version 2
run QueueMeasurement-44-20170105-15:39:30-5418
attr configname QueueMeasurement
attr datetime 20170105-15:39:30
attr experiment QueueMeasurement
attr inifile queueStudy.ini
attr iterationvars ""
attr iterationvars2 $repetition=44
attr measurement ""
attr network SimNetwork
attr processid 5418
attr repetition 44
attr replication #44
attr resultdir results
attr runnumber 44
attr seedset 44
param SimNetwork.a.parkingLot.parkingDelay exponential(45min)
param SimNetwork.a.runway.landingTime exponential(5min)
param SimNetwork.a.runway.takeoffTime exponential(5min)
param SimNetwork.a.runway.throughputCheckInterval 25min
param SimNetwork.wg.interArrivalTime exponential(25min)

vector 5  SimNetwork.a.runway  landedThroughput:vector  ETV
attr source  landedThroughputSignal
vector 6  SimNetwork.a.runway  tookoffThroughput:vector  ETV
attr source  tookoffThroughputSignal
vector 2  SimNetwork.a.landingQueue  queueLength:vector  ETV
attr source  queueLengthSignal
vector 0  SimNetwork.wg  responseTime:vector  ETV
attr source  responseTimeSignal
vector 1  SimNetwork.a.landingQueue  queueTime:vector  ETV
attr source  queueTimeSignal
vector 7  SimNetwork.a.parkingLot  parkingOccupancy:vector  ETV
attr source  parkingOccupancy
vector 4  SimNetwork.a.takeoffQueue  queueLength:vector  ETV
attr source  queueLengthSignal
vector 3  SimNetwork.a.takeoffQueue  queueTime:vector  ETV
attr source  queueTimeSignal
0	976	79695.68111286994	4756.760761609
0	1022	81812.840502530562	6568.4668965426
0	1032	81939.981685513071	2377.9431776334
0	1037	81975.28024538237	2327.4144812351
0	1064	84746.930615467812	3009.2355227102
0	1074	85115.432715081192	6904.8107540523
0	1092	86299.349725382531	7739.4789613377
0	1102	86943.419933356923	7296.0999366679
0	1107	86979.086232516227	7211.2210653288
0	1113	87317.950454901583	4500.5979458213
0	1161	90112.031875460027	4777.8012680518
0	1174	90219.850535602104	2836.803003067
0	1182	90789.366069117124	6535.7828062902
0	1187	90856.391762624368	2797.0731710337
0	1222	94196.225852657587	3162.2136555951
0	1241	94837.83276722433	4730.0591310523
0	1246	94894.95072620629	14000.484064416
0	1254	95486.702433257666	6384.9066934916
0	1262	95754.494957259858	4153.1082664855
0	1274	96660.198349954429	3433.4073783668
0	1288	97648.890190338043	8377.357073514
0	1305	100194.62448945819	4019.0982374435
0	1366	102935.744665097154	2527.9894373291
0	1374	103157.897113456121	8819.011080403
0	1382	103397.063890916199	1109.5602254825
0	1394	104528.721331140663	3559.7156399757
0	1409	105687.552299649109	4533.8430194122
0	1424	105823.458839618745	7748.9114537206
0	1432	106055.450562429549	4691.3359249466
0	1452	106725.083313568161	1182.6942443222
0	1471	108525.983205621431	6031.482242972
0	1482	109052.097637535299	3228.2049235528
0	1495	109348.871934954898	3981.6718285721
0	1512	110853.527285538585	2264.9105558629
0	1554	113016.791976858819	2891.8791829496
0	1573	113736.68520006095	7018.4144000736
0	1610	115684.955687212076	3615.5772492829
0	1615	115841.96037390782	2278.9215661895
0	1620	115946.839522535359	3920.9010641486
0	1628	116545.72664492697	4670.5960437033
0	1640	117366.608227157816	3452.6453742023
0	1653	118150.53222854872	4155.0155892415
0	1673	119365.492695229281	12805.873239768
0	1678	119464.673509197193	2450.0858130917
0	1696	121789.860661800651	3247.0206139976
0	1729	123676.838595690814	11739.152645453
0	1737	124043.731105318644	10998.648190033
0	1746	125374.726123163016	2946.334452353
0	1755	126757.433883989948	4276.4868273
0	1763	127076.228436314006	7533.6270029261
0	1780	128668.080676436049	5580.6024829347
0	1841	136039.424028539531	8339.4734305511
0	1859	136924.395560729188	6317.9599877192
0	1864	137066.137724004964	7478.8111905277
0	1869	137120.473392255847	4800.8255887361
0	1874	137497.234374766552	3192.160535491
0	1883	138898.536248947215	4295.5909824325
0	1917	141475.212529459866	1848.229491126
0	1926	142817.212956518296	7173.4221413858
0	1943	144390.116066291119	5004.8038796516
0	1980	147818.854939839806	4331.7640618627
0	1985	148327.302828220457	3791.0785528352
0	2002	149018.886087059224	4280.2507415442
0	2022	151380.505469945077	2799.4065130195
0	2027	151411.229419178511	4766.0659340528
0	2053	153501.293559204743	3785.3694062624
0	2062	154812.53089170756	2880.2243637734
0	2074	156234.624536983024	15819.727109908
0	2088	157665.446952467261	4345.6697702406
0	2117	165079.560344696897	8853.3602081791
0	2137	166749.58978875055	7340.1335599374
0	2179	170322.97652066147	5098.2556842718
0	2222	172772.43924150599	2486.6161495956
0	2238	173425.878349151365	3096.0553049075
0	2274	174343.99863542994	10496.903576711
0	2293	175680.062488587851	6664.2827585175
0	2298	175730.429547565916	5305.6266879989
0	2303	175840.848040440187	6044.2047331234
0	2308	176289.141273488966	9712.9835494554
0	2320	177251.682779783677	4960.3706706433
0	2325	177453.286341030606	4240.4988218181
0	2337	178754.593524489985	4500.7770152843
0	2345	179050.763042846854	12250.366368897
0	2350	179113.501218094051	6199.1989323553
0	2359	180688.903923864036	6998.7404886761
0	2389	184919.078049226094	10660.387987966
0	2402	185463.605024597167	2501.5377436716
0	2410	185957.84069799562	1486.9578020395
0	2438	190680.961621338036	5841.7128091382
0	2446	190804.274910364297	2711.672561787
0	2475	193916.588688317862	5173.6375952468
0	2503	196251.050668529719	3158.6032886188
0	2513	196305.140196723025	4916.5213029724
0	2539	198701.227663745158	2658.3649708644
0	2552	201073.253843925297	9542.5878960039
0	2588	203195.935538767909	6478.3408047866
0	2594	204149.44933058094	3854.5257101085
0	2599	204196.989383039526	8335.8564099974
0	2607	204646.224012489719	3543.4782579612
0	2619	205740.678187751437	8638.6521880109
0	2644	207102.761097031617	5670.3692082456
0	2666	207953.758835319306	1711.0635328338
0	2693	209636.101188756437	4432.6990454277
0	2707	210049.108257822803	2297.5592167774
0	2722	211505.837963247704	3650.9544997062
0	2732	211669.738540407143	4719.5940197165
0	2741	213349.378414901832	4159.8603165639
0	2774	215398.156522185343	986.16913194469
0	2785	215909.832306984722	7957.6025924778
0	2790	215933.268524536054	1709.4547617133
0	2819	218588.014594677346	2460.1584942932
0	2824	218742.838872991121	8229.8818603673
0	2850	220723.410762493384	4584.2364781288
0	2858	221161.558686413562	1722.3754269727
0	2898	224781.633763217197	2408.0268936696
0	2912	225547.101956148113	11099.10477162
0	2917	225813.259539437242	5841.4484809501
0	2928	229529.559624776856	7967.3863583246
0	2979	232568.594515465114	8651.7282081075
0	2989	232824.907707188285	8083.3617391897
0	2994	233325.04111211776	1818.2526158556
0	3011	234740.318768258984	3137.7371046426
0	3020	236875.375882624347	6679.3612197301
0	3045	238170.988119461709	6876.8289761579
0	3060	239575.772674463243	2355.3984659627
0	3065	239600.427424023567	5725.5230966656
0	3074	240881.292921125412	8366.2653583225
0	3088	241658.496305616281	4198.539791609
0	3114	244923.294462651595	1534.3309390954
0	3148	248761.110157689783	5083.7914325255
0	3157	249217.001982273305	9355.4853899101
0	3173	253418.03074666373	6042.8161551083
0	3187	254439.899486019767	6313.3729720713
0	3201	255282.076646899934	7086.0127964536
0	3210	256507.378255632781	4618.7496976751
0	3229	257466.878142927103	3934.8123338846
0	3243	258200.469082097485	1592.6652842658
0	3277	262331.996585248894	5110.6301949357
0	3303	264234.363844431093	3312.406890077
0	3311	264648.02892180671	1693.1685297079
0	3336	266817.148407049479	1322.7951978646
0	3351	268017.499375623936	6759.7713959621
0	3365	268616.727438779551	6764.7487271814
0	3374	270648.93960670194	7539.1656315512
0	3379	270727.611313349996	4460.3632993203
0	3417	275508.452838430221	3218.5814266578
0	3439	276550.029666824618	1413.0833012129
0	3447	277417.525180067869	2759.7036707487
0	3456	277776.487397328745	3168.1343268081
0	3474	280855.673485129097	5320.5694377772
0	3486	282660.091944410739	14732.676945647
0	3508	283936.249052406936	5891.0920416873
0	3516	284555.228991207809	1932.9876536157
0	3534	287538.860197479482	4624.2807248633
0	3558	294878.697739429897	9275.217970901
0	3575	296412.986520092958	6410.0190982605
0	3615	300389.103313150161	4000.5157511675
0	3632	302440.895804039923	7643.8221956958
0	3640	302897.018596877648	4876.1517071521
0	3657	303871.071326821862	3093.4864358982
0	3665	304007.556884104716	4447.2412705578
0	3682	304989.869643471697	8383.3089255445
0	3717	310333.843322262629	7352.7558035053
0	3729	311595.421711508498	5008.8846805419
0	3734	311725.753272657539	3654.7390712135
0	3743	312595.425337112737	8276.3269651106
0	3771	318686.62381428075	3360.7813469042
0	3780	319651.602971666263	10330.065312102
0	3804	323049.688871413467	5761.8310964998
0	3831	325211.431846372822	2906.6152695514
0	3856	326378.477920963771	3095.1182761557
0	3873	327482.220751418801	4978.722482335
0	3891	329338.301373210041	4126.5192062034
0	3917	329954.448480033205	8789.7139975529
0	3922	329990.378244839046	1253.2023844001
0	3934	331298.572395911251	2195.6201494151
0	3939	331306.626486249692	4229.5525326174
0	3956	331707.207727263225	5912.673141412
0	3976	333513.317632743501	4146.7118068562
0	3989	334409.786452259878	2953.4007371768
0	3998	334961.648741397032	1974.4800040072
0	4059	338796.168216177411	2395.1122910465
0	4073	339298.917580408472	2789.2902026029
0	4100	340197.555450863577	1498.0481485912
0	4105	340446.289949943427	3727.4108463903
0	4133	341136.912717437652	3899.7302969675
0	4138	341505.521028554252	3741.9453920985
0	4146	341578.995442796527	3900.1934765144
0	4174	342270.071975457968	2743.6597088127
0	4179	342608.526091690792	2159.58512288
0	4187	342950.942211666986	1314.6490926325
0	4217	347701.566425158528	7974.3093095925
0	4229	348155.933348083417	14664.83702825
0	4237	348555.475802792997	3070.0287044935
0	4250	349161.763580989171	7391.0658394088
0	4267	350013.309072802898	3131.0706667605
0	4272	350076.03111895508	1761.1154040223
0	4297	352443.698423445721	1394.6637602725
0	4318	354127.400765569031	2847.6574960076
0	4348	356624.550658191177	2710.0908228209
0	4364	359407.059881367222	18502.962218347
0	4378	360435.678767828855	6189.1121230432
0	4383	360441.33828581858	7242.0370478544
0	4395	361685.723987351663	6116.875083092
0	4400	361712.376800799996	12767.543951005
0	4462	366988.380342893433	7870.5846120126
0	4467	367188.909106592363	4057.3115776356
0	4476	368257.947017201605	5433.8792099174
0	4493	369225.107987882778	5355.4219981822
0	4501	369616.861445625886	3541.6504734667
0	4509	370464.499057927321	5824.1835323369
0	4519	372109.427171047423	6547.1272336751
0	4552	373950.442620089498	5495.1921216376
0	4572	375257.045571998746	2248.2655739477
0	4585	375809.947398761765	2770.9600848459
0	4593	376389.208529898572	2257.4727701879
0	4602	377940.493014437974	4690.902619982
0	4640	382294.49515085928	2125.3588450184
0	4663	383301.888976619678	2574.7327738563
0	4676	383781.344447099741	5206.6852314602
0	4682	384043.535086467311	8926.5190376529
0	4687	384747.162610513375	2724.8784846817
0	4722	389752.815329387761	6590.4647200213
0	4739	391072.034461019561	2616.1622239229
0	4756	392964.765115302719	7039.6995889079
0	4774	395179.780962145395	10022.949752029
0	4791	396127.913209720866	5693.9026709581
0	4813	400516.562729643877	6189.4351851897
0	4818	400934.610848750368	8083.2228684689
0	4834	401749.984382029971	6330.367611056
0	4885	409063.653319565497	2941.7717748791
0	4906	409482.383737956567	897.9289685147
0	4912	409510.751822903961	2653.6349452238
0	4940	411806.859286854396	6344.5609367668
0	4945	412129.26919846792	10757.165531917
0	4968	413178.520236418007	15166.309678141
0	4978	413357.66453194358	4459.7184841133
0	4994	413984.349264710445	4942.0244747198
0	5003	415200.754407699652	3046.2680359313
0	5028	418923.437434416058	9135.819716793
0	5036	419230.954100118176	6239.434876487
0	5041	419334.415803335408	5796.0781452259
0	5046	419401.698028711012	9139.8968901268
0	5076	424308.934371738249	8405.3877590683
0	5091	426466.427170789844	3707.7644884975
0	5114	427989.498639799963	4128.1538595108
0	5133	429122.288508296993	7175.9699014065
0	5141	430193.049545293234	3419.8064559903
0	5161	435202.977773953743	7441.6176211535
0	5212	440335.998531180091	5010.5433532004
0	5231	440685.397404831716	1786.0778798909
0	5236	440915.583952937612	4673.1940400587
0	5245	441463.922343659041	13497.961908363
0	5254	443538.302700439235	5631.3600075232
0	5263	444097.314349802607	10876.947061654
0	5278	446134.041335658755	6925.7589031373
0	5297	447453.376385252762	7015.6470619282
0	5306	448756.90235668928	3708.7115030742
0	5344	460696.560057797271	6469.0126781322
0	5379	463128.947934711128	17779.473337869
0	5388	464531.611516433418	2077.1617390906
0	5400	465451.687360809186	9461.0973453894
0	5405	465504.05836108913	4841.6567884836
0	5422	466720.228006731008	4110.1063271699
0	5447	468753.284017963535	7880.2984556787
0	5464	470319.360368054188	2131.695474505
0	5472	470808.832962944008	2718.6409639737
0	5481	472359.406372929375	6290.8547321084
0	5533	478356.524281817873	2420.4660610371
0	5545	479218.410953272673	3059.7440991579
0	5559	480296.0884838553	3238.8250166141
0	5570	481174.561861820268	5696.7665359287
0	5584	481904.672569040339	12800.123528709
0	5593	483525.563373104261	8259.6059205184
0	5609	484311.773320066142	3519.9840323681
0	5627	486737.900268720037	2860.8611476389
0	5645	490220.423470886673	5298.1602541778
0	5654	491929.605072471938	13263.135889298
0	5691	499401.383545305236	2293.6909019137
0	5737	503283.521042438309	1014.0195162405
0	5751	503699.310102269713	6543.0695151569
0	5762	504035.597592748677	15025.166534582
0	5770	504059.447396043227	2922.1665708066
0	5775	504232.370833292597	1852.3937329631
0	5783	504831.980402662963	4857.6664490945
0	5836	507070.112960136757	8885.6511779329
0	5841	507144.241280201137	3689.4563284875
0	5861	509486.642803025326	4546.1843012219
0	5880	509890.374534946431	3960.730354503
0	5894	510090.04335571769	3869.1808341259
0	5899	510119.437352936869	1643.8350005521
0	5907	511120.703155103343	6102.9109777902
0	5932	512514.968862620272	7285.3324886717
0	5950	515156.402594471769	5407.3972148536
0	5975	517415.610028744401	6239.0824263989
0	5988	519373.254046104329	10107.955360652
0	5993	519479.838467772635	3247.0541707762
0	6010	521249.33088005377	7360.5209010009
0	6029	521931.444907667942	5162.5046523857
0	6038	523022.231469074007	2246.3372637007
0	6060	524531.873744983963	13197.802249342
0	6069	525813.048025681906	4220.1960394903
0	6087	529251.560573111456	5995.8325732469
0	6101	532511.83252068325	10453.066381842
0	6130	533551.193243430246	6587.9807924187
0	6140	536785.637966674006	4212.9814184913
0	6160	538039.539380543336	5568.5295258597
0	6208	541631.950330596898	4285.8345107051
0	6228	543229.672066956894	2227.0760772264
0	6233	543368.109408656618	2451.2298234313
0	6270	545292.190391897224	7317.0923092032
0	6275	545388.6794046516	4606.5292126836
0	6280	545442.585413739264	12472.578840356
0	6285	545564.163823144089	1951.4123026003
0	6290	545578.685522419393	3852.7109249036
0	6321	551223.424338753152	1456.3439315824
0	6329	551779.543849665527	13081.240614982
0	6335	552173.453126807782	8409.2088938114
0	6379	559389.367934752634	1743.748036941
0	6399	560399.765523002391	5854.7118135434
0	6404	560454.432082079014	2755.2988634956
0	6425	563709.556654408497	4102.7972367804
0	6434	564686.227630856361	13892.625878789
0	6447	565445.379032890654	3719.1884402267
0	6465	568450.377537896841	12591.357155763
0	6484	571684.920308861328	6088.3600157256
0	6512	573537.05484483822	3297.8581730498
0	6523	574481.09718770678	2082.9319213005
0	6534	574573.4283783997	10546.879154501
0	6566	575738.930199268797	1563.3407348085
0	6594	577087.783966415172	4330.4055618662
0	6606	577623.771528822801	2694.3483087062
0	6622	578319.284787153071	2236.9966586115
0	6646	578842.967013101117	3570.780972572
0	6652	579010.121057349496	1179.9382626985
0	6657	579218.628888402761	2501.3097539031
0	6681	580090.866367770769	606.55263643797
0	6690	580877.662428016092	3460.5396003481
0	6701	581069.408795842009	5567.5820613482
0	6706	581201.306456287347	3281.744931876
0	6724	583668.997130659321	4152.9262611786
0	6769	587054.11672488728	3205.7901191787
0	6788	587974.112223106553	2918.5838320877
0	6803	588454.10474514671	3674.762800107
0	6833	590966.410998808089	6127.6232823779
0	6839	591058.960594293275	8151.3090516115
0	6844	591289.81801192448	4427.2687783476
0	6849	591389.994828126375	3236.8803369318
0	6866	593498.881206486894	4532.1875603591
0	6876	596733.533745968231	8441.4040096826
0	6924	604157.89241477829	12395.861874314
0	6930	604827.158375168084	6247.2891618405
0	6938	605492.143076419042	2713.3003436846
0	6971	609138.052528670636	10414.822985359
0	6989	609976.150090397082	6381.0158737636
0	7014	611117.123054789747	1694.0499533843
0	7025	611295.053862611228	4144.3686080516
0	7030	611596.318867401379	1185.7320916929
0	7042	612265.279631827807	3413.3546327745
0	7064	614081.517207567413	6761.8513616697
0	7086	617028.594621427471	4862.7269579622
0	7118	618051.851219769916	7590.4632014028
0	7129	618387.810444666827	2716.0445853543
0	7142	618914.219604645968	3790.9369019757
0	7155	619357.855277628503	3897.9748208194
0	7172	620501.979967721755	2167.9819427501
0	7189	621736.170263015464	2311.5097338413
0	7197	622303.852524776068	3703.4368057326
0	7223	625087.919567188842	3964.1111718238
0	7231	625359.246984364956	8005.9614554548
0	7273	626777.596898218447	13311.054430027
0	7284	627113.057902787824	2976.1522561344
0	7289	627178.065784750023	3114.5664255382
0	7297	628379.965077226009	2791.1088369846
0	7306	629326.827002627207	3792.2440501208
0	7314	629472.747283792639	3497.5393969835
0	7353	635031.115022573246	8802.9032489505
0	7377	635972.370228024196	2697.7247904039
0	7394	637307.64528375654	2291.3869753768
0	7399	637472.444314281657	3723.7599016106
0	7408	637974.123821725122	5808.6206254085
0	7416	638665.553229648015	3569.6515085108
0	7437	645417.948798632735	9698.8758591452
0	7454	647319.531361664873	8390.4284233007
0	7480	649917.885819006632	1349.1788746536
0	7502	650881.959253059261	4002.8345838857
0	7524	652090.693623477782	2725.9899183958
0	7529	652201.56514359412	2082.1244627285
0	7574	655483.580602234372	4773.0092308444
0	7580	655742.531041755838	1668.2118012337
0	7588	655922.890845172557	4669.115479824
0	7614	659104.28429479041	4163.5465589341
0	7642	660426.321736712526	1994.9500200882
0	7672	662279.623947638376	3099.0785087735
0	7680	662687.785972341571	8904.6720156029
0	7692	663320.22706206836	5706.2813919022
0	7697	663422.202879134147	10724.528757072
0	7709	664593.500918058628	5205.456614191
0	7726	666169.465802963412	6112.7967230075
0	7731	666225.129940903732	4588.1618282322
0	7755	667348.339479964955	3086.9942269765
0	7797	672585.162301696268	11572.084758042
0	7805	672923.741592451256	6415.4908952804
0	7810	672955.701666938556	4524.3581293086
0	7815	673006.978268756803	6587.8836826846
0	7838	674417.062883494823	4388.2054011561
0	7848	674961.057727109103	4610.2171519792
0	7876	679070.170678155215	4703.9947904177
0	7900	679919.135918069803	4358.6219743549
0	7920	682349.249630246839	3790.652943863
0	7929	683179.448695500321	4825.806790613
0	7934	683618.016157166919	9863.3992746296
0	7942	683948.057274998288	5244.7619510889
0	7976	686642.451594633439	1712.0788183127
0	7985	688141.287893136945	7543.8628189759
0	7997	689625.410915745661	5521.6545790468
0	8022	691497.052546148047	5795.9530244838
0	8028	691512.929672016673	2632.6483994173
0	8045	693254.306610063734	2462.7994838996
0	8080	698308.806056567074	2323.7166559791
0	8106	700863.87236224828	5185.2546280016
0	8114	701714.625018365704	1743.0873629213
0	8157	703728.181702480987	6764.8190390643
0	8170	704433.853222417265	2608.8304775326
0	8175	704527.062705739755	3960.2675887302
0	8180	704564.215622503324	12419.771220942
0	8189	706070.405254919876	3940.5811432878
0	8217	707413.227678459572	1280.082813049
0	8230	707642.454472245373	5160.2660453244
0	8239	709048.56027933215	5985.3157483787
0	8256	710080.318903897361	2943.7495806428
0	8274	713983.960602004546	6588.2760939361
0	8310	719189.451305029734	1845.0637156458
0	8318	719247.360317428664	10129.905955349
0	8327	720277.231142626739	7402.7628621683
0	8368	722580.084243932541	803.93709389697
0	8402	725808.62843823477	1211.986347787
0	8411	726321.088944025338	8898.0207147326
0	8422	726812.978481722503	9039.7766953165
0	8427	727139.014632937938	5700.1474889981
0	8436	727778.650592930956	6441.3640246484
0	8447	728047.241629645083	6024.0096981785
0	8452	728178.490929769601	4199.1912492431
0	8486	731127.462694831841	1728.5252916382
0	8494	731787.537753772104	6148.6368169815
0	8520	733692.252595650535	4625.1714327469
0	8537	735354.317615126873	2359.8279324329
0	8547	738202.381659407426	7561.3216311253
0	8580	740078.528347086392	566.43146787548
0	8597	741130.615620892053	7217.9052158338
0	8605	741502.844701136673	1914.9684354375
0	8613	742273.728923714705	3438.7075867559
0	8639	744170.942372680752	3991.7972505771
0	8647	744647.662267665128	1690.4315585421
0	8672	746055.960872883009	13992.363971757
0	8680	746818.644334617579	2096.7539464607
0	8690	749287.03573859116	5638.7765621816
0	8711	756155.115960226889	11431.325077556
0	8738	757327.85053594481	1039.7448270246
0	8752	758973.024157520902	4032.8717251878
0	8770	760873.579971477148	3631.5599318062
0	8795	762331.823533774169	1301.2743366436
0	8820	764115.752718484335	2363.9564634447
0	8829	765029.125630417458	8611.4357145219
0	8844	766866.993413527098	7425.8976384152
0	8874	768619.401242077754	5359.6997089725
0	8889	769672.103646695373	6954.0897779913
0	8904	770520.857289975359	3781.0097876906
0	8916	771011.039725437677	2351.4963134147
0	8929	771723.127426523053	4989.6799047407
0	8948	772385.729418949635	4339.9475459432
0	8953	772406.126947253895	3314.9955087054
0	9004	776207.78474917369	1378.7239045075
0	9012	776326.620503866267	5530.7389169133
0	9023	776788.164213551031	4876.93250816
0	9032	777219.000670176638	4099.0920913728
0	9052	779410.89409416782	4335.063728695
0	9062	779530.307876479187	6111.2065924356
0	9079	780404.463947314505	6341.4473640553
0	9087	780705.114365320144	3734.4840963028
0	9104	782491.141409406471	2488.2195815993
0	9138	784688.281780490541	6120.0041588183
0	9156	787604.934436753119	3528.079270316
0	9165	789356.524203172583	5067.825926101
0	9218	792510.818885318308	8463.5515248526
0	9226	792947.989745183783	2625.4011734384
0	9231	793194.719159412646	3436.7621610952
0	9248	794242.363005546842	8906.2954853223
0	9257	796129.732921730901	6359.2259303994
0	9266	796530.294474673512	15057.995725417
0	9283	798158.621842422896	7751.8596692141
0	9291	798294.173721415448	4893.2458201064
0	9299	799212.51978704074	7693.7804796731
0	9328	806518.514106574069	8540.1425769402
0	9347	810711.219875960625	4865.0750985932
0	9366	815311.549770650398	5644.547165467
0	9391	817358.019224948852	3858.1748435048
0	9400	817905.537356265441	1800.1816049229
0	9427	822223.254988529582	17942.244881612
0	9439	824156.519035639152	5488.9569401079
0	9453	826384.771873348253	10167.433648853
0	9478	827807.895157150802	3969.9426603653
0	9486	827963.158544976292	6466.426851937
0	9506	828959.390560200128	1848.4645464374
0	9520	829820.604098466027	2359.939286539
0	9528	830067.00264307632	1982.0731752376
0	9545	831267.507818539417	2486.4049871363
0	9562	833894.802903505473	3231.1141277581
0	9588	835849.52991110872	2200.0374721636
0	9644	838829.252765860954	4301.7195089012
0	9649	839013.646991559708	3086.4215126482
0	9654	839049.318369437265	3430.0913717909
0	9671	840493.344471495459	3503.0509063405
0	9688	841958.551316197221	5789.7504306563
0	9696	842373.657519926782	6350.5014025414
0	9705	843020.306757004367	2991.5627876677
0	9714	844973.028009156986	7916.0478482782
0	9740	847682.169416887303	1975.8180832946
0	9748	848207.052308118361	7610.9397715283
0	9769	851186.627036718506	4894.5320920871
0	9799	852993.658188093634	4477.4111399981
0	9819	854244.860526065093	2741.2644431561
0	9824	854809.046687183945	2739.2508742916
0	9850	857854.447328343618	4507.6356501165
0	9859	858602.817455328909	7446.0249614948
0	9892	860288.563414411205	1200.3637516011
0	9905	862870.328617200107	4095.2341883109
0	9916	863380.689652056218	7864.0269842581
0	9926	863657.480484278622	8052.9302214827
0	9941	864509.122653870744	5091.4971252768
0	9972	867300.900387888462	2812.2459619676
0	9985	868035.283443593995	5012.7939092454
0	10017	871133.826290228395	2375.0926818063
0	10039	871768.935234054284	7284.9442070634
0	10044	871775.853634645424	7181.5986566028
0	10070	875223.842136356324	3873.8846802064
0	10079	877122.509164964113	6239.8342749279
0	10091	877791.977793460338	8779.0245227783
0	10096	877983.123474330083	11467.048914219
0	10114	881536.090842704014	7569.4887287701
0	10123	882379.31612080375	7697.5276111349
0	10170	888687.900373060398	2712.1589708827
0	10178	888982.479776258086	4387.1219174271
0	10200	890113.198576970912	6340.8336275225
0	10209	891519.259069368998	2563.5989451522
0	10234	893257.171783535052	3449.4643710243
0	10251	894921.729852111029	2724.8305479619
0	10276	896890.189639979658	16595.65264594
0	10288	897520.132343681979	10438.056565626
0	10293	897576.328536103697	5864.1267273666
0	10310	899538.178000757085	3659.1392365158
0	10329	903821.595286202548	9609.7261985333
0	10338	905397.915312700452	9741.7469487258
0	10364	907678.732325961518	1471.9649933485
0	10372	908014.145083306681	10067.609222877
0	10397	909338.132333187989	861.16078917497
0	10408	909830.318007798477	3394.4256809371
0	10421	910315.378573301885	9419.8002754699
0	10430	910725.799511612538	2210.5403588203
0	10464	914587.248413820722	1855.2565162701
0	10506	917269.492633100563	3143.5067431402
0	10518	918113.578813609341	2330.0076427191
0	10523	918464.157343746957	3192.501620495
0	10531	918723.936043143107	3581.3896965159
0	10552	921666.612354776618	8006.7249253345
0	10563	922169.13083460965	12540.078983827
0	10613	924117.236055078365	3986.1570972442
0	10637	925068.949952753413	9066.6134496247
0	10654	925577.196442531103	3553.750183875
0	10659	925830.705676539546	1987.4526657261
0	10664	926005.931820700036	4284.3995615874
0	10680	926428.998250066572	1894.6945847385
0	10692	927324.08100023037	4331.0064101563
0	10700	927504.953783955948	2474.6178700596
0	10733	929812.008367801965	7573.6390113173
0	10738	929830.648859713407	3512.7345166688
0	10748	931756.032289983811	8584.2066365102
0	10756	932629.561682785432	5185.852590347
0	10765	933002.532241055231	5467.6165972636
0	10793	935187.371245123584	1613.2666764593
0	10798	935618.284200460245	7389.8465125225
0	10828	939452.444980568224	2847.8921253056
0	10846	942432.527822080395	7876.7538233381
0	10876	944191.255933789955	681.90787646075
0	10884	944605.66822171259	5281.2541954259
0	10901	945700.754435126259	7052.3981824783
0	10927	948333.239725827905	6066.9040157161
0	10935	948720.40276801847	4056.6189472274
0	10943	949435.490583178752	2531.3844961869
1	978	79695.68111286994	133.64260499024
1	986	80148.755785868606	501.43578917961
1	991	80493.048316152219	845.18255200499
1	1002	80933.706448123517	1165.8412809361
1	1008	81061.34145406376	166.87479227395
1	1024	81812.840502530562	75.145409772906
1	1043	82817.352509080318	0
1	1066	84746.930615467812	493.34735264089
1	1094	86299.349725382531	965.11911797432
1	1118	87383.047532535068	0
1	1126	88059.318591590664	0
1	1135	89101.795739766046	0
1	1146	89492.657185425944	221.12406860189
1	1163	90112.031875460027	4.258239287949
1	1192	91034.012197062536	0
1	1201	91601.386690774375	0
1	1224	94196.225852657587	969.43488106993
1	1232	94385.319928864243	46.4338958111
1	1276	96660.198349954429	484.67209793971
1	1293	98074.547385898178	0
1	1310	100407.755227768098	0
1	1319	100969.005691164939	0
1	1327	101228.938530578276	75.229250341345
1	1335	101457.164349701791	93.049712218856
1	1344	102287.503665433676	0
1	1352	102494.500962649394	0
1	1411	105687.552299649109	320.35219326635
1	1416	105775.706782937559	233.31771369164
1	1434	106055.450562429549	231.55784844707
1	1454	106725.083313568161	165.46385810662
1	1462	107976.903710502726	1258.6329105154
1	1484	109052.097637535299	463.48090785957
1	1501	110124.912793909199	0
1	1518	111875.130601223719	0
1	1532	112294.526438941867	356.84048870373
1	1537	112338.416213121801	312.47775473508
1	1546	112531.654380868368	462.27594293921
1	1559	113045.082915285177	0
1	1575	113736.68520006095	173.64639234262
1	1587	114340.55481842846	426.59196547298
1	1595	114530.910341811822	535.39370250465
1	1642	117366.608227157816	352.02053105234
1	1659	118542.840047803086	0
1	1683	119542.601433387949	0
1	1701	122428.39167081004	0
1	1709	122481.889933296169	0.942876606198
1	1718	123087.478193501368	0
1	1769	127699.950597988434	0
1	1786	129587.326533477217	0
1	1795	130606.435573010013	0
1	1804	132319.647803519788	0
1	1813	134305.073839275566	0
1	1821	134602.945266514752	0
1	1830	135643.790815132475	0
1	1888	139385.312186639551	0
1	1897	139626.983038333859	0
1	1905	140414.897427074571	0
1	1931	143487.090877977075	0
1	1948	144536.224275385231	0
1	1956	144782.437683070544	43.80233755551
1	1965	146645.163485125727	0
1	1991	148581.098956925565	0
1	2007	149715.924152942348	0
1	2033	151932.306527934206	0
1	2042	153319.777182226627	0
1	2076	156234.624536983024	8.424400465198
1	2094	159409.456228813155	0
1	2105	163847.095058719416	0
1	2122	165224.72083638968	0
1	2139	166749.58978875055	173.43206471694
1	2147	167111.202206101782	310.80553215225
1	2156	169015.779730070316	0
1	2165	169796.643307316793	0
1	2181	170322.97652066147	37.153428751087
1	2192	170507.030632062672	177.20758781878
1	2198	171276.305706191118	851.50284662409
1	2224	172772.43924150599	481.12713236563
1	2240	173425.878349151365	511.57606341258
1	2254	173792.514275150462	579.72675593795
1	2260	174125.718089045527	435.55465385759
1	2276	174343.99863542994	90.182126224305
1	2284	175273.161336210066	1014.4712749501
1	2365	182962.067280925552	0
1	2374	184470.882895956164	0
1	2391	184919.078049226094	79.829237026263
1	2417	188092.602348577272	0
1	2425	188742.951093071019	0
1	2451	191388.618893750621	0
1	2459	191530.665947921437	0
1	2477	193916.588688317862	824.1413084069
1	2486	195861.13297304216	0
1	2505	196251.050668529719	208.18797564895
1	2519	196717.594733981308	0
1	2527	197102.02599974054	0
1	2554	201073.253843925297	778.33022345283
1	2565	202003.92670946187	901.18095493339
1	2574	202608.745160901501	1176.3532721155
1	2621	205740.678187751437	537.27604442272
1	2629	206242.695302485522	0
1	2646	207102.761097031617	152.61657634095
1	2668	207953.758835319306	202.2097942739
1	2677	208828.80044171485	973.91697817337
1	2682	208999.595188426693	1047.3654739198
1	2695	209636.101188756437	446.58309041855
1	2724	211505.837963247704	992.88095062389
1	2746	214223.81376282279	0
1	2754	214411.987390240657	0
1	2763	214703.026885126808	255.0297005982
1	2796	216127.856100384117	0
1	2804	216337.305009838255	198.13072547372
1	2830	219439.183259440818	0
1	2838	219971.811058487173	0
1	2863	221562.173266452266	0
1	2872	222373.606869547614	0
1	2881	223916.866307357565	0
1	2900	224781.633763217197	40.08779521859
1	2933	230196.014662894277	0
1	2942	231294.159143303803	0
1	2959	231904.194522838385	397.40602657622
1	2964	231989.023284557575	386.44162094123
1	2981	232568.594515465114	53.566952662185
1	2999	233874.904327358011	0
1	3026	237220.37420850053	0
1	3034	237459.956514007301	0
1	3076	240881.292921125412	1019.7763287622
1	3094	243388.963523556166	0
1	3102	243677.318725164309	0
1	3120	247375.214591555435	0
1	3129	248126.526513948425	0
1	3140	248352.624945194435	156.5610947481
1	3175	253418.03074666373	1529.402188706
1	3189	254439.899486019767	907.83367697731
1	3215	256607.80379783169	0
1	3231	257466.878142927103	245.51175261386
1	3249	260921.956954354078	0
1	3258	261257.727979661874	0
1	3266	261851.978711598112	0
1	3283	262954.860392098776	0
1	3295	264002.30624409448	892.53226894371
1	3316	265494.353209184915	0
1	3325	266267.248014029662	0
1	3353	268017.499375623936	90.084376860638
1	3385	272289.871411772458	0
1	3395	274608.353070520666	0
1	3403	274752.411409862025	94.58990054284
1	3419	275508.452838430221	371.50647281849
1	3427	275553.149793843579	18.045746491696
1	3461	278045.157010719673	0
1	3488	282660.091944410739	37.850606818638
1	3496	283083.870181918559	169.29070930235
1	3522	285603.479768528878	0
1	3541	290002.967421832458	0
1	3560	294878.697739429897	81.624131085743
1	3577	296412.986520092958	24.398958110315
1	3585	296686.496576684836	79.935858757629
1	3594	298020.866889725532	0
1	3603	299560.315613546955	0
1	3620	300777.584890923699	0
1	3645	302981.087518757315	0
1	3670	304319.098372002186	0
1	3688	306586.537030966639	0
1	3697	308071.014201444011	0
1	3706	309321.537659564367	0
1	3750	315325.842467376567	0
1	3759	317287.857774913687	0
1	3786	321164.734482480323	0
1	3806	323049.688871413467	744.87229459209
1	3814	323296.570040046215	793.07177096242
1	3819	323468.589933884659	185.23028907655
1	3836	325211.782167006604	0
1	3845	325794.53458585125	0
1	3862	327077.073953632245	0
1	3893	329338.301373210041	601.12551277111
1	3901	329472.758095414407	369.80584891826
1	3906	329498.529483023882	131.92365713657
1	3944	331456.385715083079	0
1	3961	332987.168737389846	0
1	3978	333513.317632743501	22.221312910183
1	4004	336401.0559251309	0
1	4015	336787.357632892322	277.73025508674
1	4023	337260.417058845531	541.53795529236
1	4028	337272.543695930527	35.361275460374
1	4037	337678.801966282104	0
1	4045	337783.298185311027	19.722548855257
1	4061	338796.168216177411	96.660913905079
1	4078	339526.412266645238	0
1	4086	339727.257115566044	0
1	4110	340448.9409688108	0
1	4125	341098.57918483669	194.48152181644
1	4151	341636.293119034446	0
1	4165	341894.940429527608	124.24268794725
1	4194	345485.44709829951	0
1	4209	346996.187935782465	113.94952974008
1	4239	348555.475802792997	240.56008786018
1	4252	349161.763580989171	216.93073119391
1	4278	351049.034663173183	0
1	4286	351372.60063926667	92.857369705203
1	4303	353199.301237964178	0
1	4320	354127.400765569031	212.94093019876
1	4328	354514.479245867614	267.912601082
1	4337	355568.848904259622	0
1	4366	359407.059881367222	289.26415048638
1	4405	362824.067807284238	0
1	4414	363606.917894918439	475.32036596167
1	4422	364259.350686385056	389.66469668445
1	4431	364640.315525590383	0
1	4439	365562.299937372334	0
1	4451	366456.670979824103	381.46000766489
1	4481	368455.250498451926	0
1	4524	373008.779998051056	0
1	4532	373089.552212922828	50.564899006951
1	4544	373918.638393015001	669.04799855904
1	4557	374131.735759710683	0
1	4574	375257.045571998746	140.02952318438
1	4608	378574.659215639499	0
1	4617	380169.136305840878	0
1	4625	380727.156202763331	0
1	4642	382294.49515085928	272.21102502761
1	4665	383301.888976619678	139.5383672532
1	4692	385156.831210116763	0
1	4701	385925.065526394834	0
1	4710	388455.87223709663	0
1	4728	390434.010538762788	0
1	4745	392851.387980281418	0
1	4762	394327.127544454171	0
1	4779	395419.61677097394	0
1	4797	398012.210558277172	0
1	4823	401372.103666550527	0
1	4842	405462.298350087628	0
1	4850	406121.881544686401	0
1	4859	406857.1168776802	0
1	4868	408584.454769441863	0
1	4887	409063.653319565497	165.70727173518
1	4892	409101.827915462929	59.503125472274
1	4917	409787.617717623081	0
1	4932	411715.010257562117	1453.2091189779
1	4950	412154.486371768344	0
1	4970	413178.520236418007	187.00101278682
1	4983	413538.337658109531	0
1	5009	415903.546612669916	0
1	5053	421946.318606890468	0
1	5061	422758.662682292328	0
1	5078	424308.934371738249	447.58959144909
1	5096	426773.243089302957	0
1	5116	427989.498639799963	228.13848699969
1	5121	428136.107601833822	170.14716653824
1	5148	433220.367288148607	0
1	5166	435325.45517797965	0
1	5174	436242.389912878869	0
1	5183	437906.942692915996	0
1	5199	439508.873808913141	609.55428397237
1	5204	439658.953037654924	450.67060513343
1	5217	440437.729323324534	0
1	5280	446134.041335658755	1085.8504820437
1	5285	446190.84016934175	841.36557249917
1	5314	454227.547379665022	0
1	5323	455990.590015419787	0
1	5346	460696.560057797271	34.158485191772
1	5355	462443.596850784214	1570.6112884993
1	5363	462473.43293898699	18.98316164419
1	5371	462659.619436623661	49.497757062567
1	5410	466068.551640821005	0
1	5428	468090.191998970347	0
1	5436	468335.890005070566	148.22511152141
1	5452	469104.549040330888	0
1	5488	475265.957452585838	0
1	5496	475477.795325891548	0
1	5505	475936.058220780769	0
1	5513	476158.666854114767	0
1	5522	477057.263467241212	0
1	5547	479218.410953272673	551.9417700984
1	5572	481174.561861820268	382.77257412222
1	5598	483877.0391210811	0
1	5615	484922.263216708908	0
1	5634	489010.43105816645	0
1	5663	497107.692643391506	0
1	5671	497322.498913933976	166.25832682112
1	5680	498184.46178220384	0
1	5697	499974.313953568435	0
1	5706	501137.280825236651	0
1	5714	502269.501526197798	0
1	5722	502379.977100329517	0
1	5753	503699.310102269713	244.52515055611
1	5788	504940.458501803384	0
1	5796	505051.486227124792	33.694049811617
1	5804	505229.636373948593	0
1	5813	505929.644180443433	0
1	5827	506622.845816943348	401.98329535155
1	5846	508475.602352384738	0
1	5863	509486.642803025326	221.34411757308
1	5882	509890.374534946431	141.36915532829
1	5912	511176.527602345499	0
1	5920	511363.19284111695	29.121345474752
1	5938	513888.809979052875	0
1	5956	516232.784296996443	0
1	5964	516768.940255282203	0
1	5999	520775.894205373337	0
1	6015	521592.85198619163	0
1	6040	523022.231469074007	963.46533023248
1	6049	523573.642180725623	317.91418086106
1	6075	526963.212451011588	0
1	6103	532511.83252068325	40.82266599963
1	6111	532879.546763048421	306.89021486567
1	6122	533436.570198177068	466.56362479345
1	6146	537346.11581989181	0
1	6162	538039.539380543336	64.441297849346
1	6171	538698.303234683925	0
1	6180	540782.15019196796	0
1	6191	541314.759640166169	397.88005494083
1	6196	541339.919874698088	337.32388496757
1	6213	541725.974597515828	0
1	6238	543612.751520543812	0
1	6250	544619.366534999758	855.12230200333
1	6298	549767.08040717073	0
1	6307	550793.601752066994	0
1	6341	554545.053709458966	0
1	6350	555859.020382133374	0
1	6359	557645.619897811668	0
1	6368	558014.81242563613	315.67920705275
1	6385	559606.759417628102	0
1	6410	561726.19059266397	0
1	6436	564686.227630856361	659.67840695742
1	6453	565596.560293135684	0
1	6472	570239.196671788408	0
1	6489	572398.165266406238	0
1	6497	572760.035965536999	2.657560988017
1	6525	574481.09718770678	305.5077232465
1	6539	574929.423220116605	0
1	6547	575272.18604052909	0
1	6555	575501.826734493838	0
1	6572	576082.288128541588	0
1	6586	576812.685384467221	95.366249967593
1	6608	577623.771528822801	206.64870115476
1	6624	578319.284787153071	489.10199250205
1	6629	578336.698545692477	417.13702128109
1	6662	579484.313731332795	0
1	6670	579596.821817153026	80.750947672261
1	6712	582907.651542681824	0
1	6729	583848.32660570854	0
1	6737	584779.341945039673	0
1	6745	584875.598985956986	36.811269526835
1	6754	585055.528391018853	0
1	6771	587054.11672488728	191.56749131036
1	6805	588454.10474514671	300.99025395211
1	6814	589807.253446722959	1515.1237104374
1	6819	589878.987555977465	912.29390984971
1	6854	591762.030540463869	0
1	6883	598579.869213327567	0
1	6891	598787.471803461605	64.242260149854
1	6901	602778.842732734449	0
1	6910	603595.134216633478	0
1	6944	607150.685254559675	0
1	6952	607344.484301937768	24.818456040029
1	6973	609138.052528670636	286.12752961729
1	6981	609544.234307154657	121.16120574924
1	6994	610410.586775708434	0
1	7002	610466.449209597428	5.061191230359
1	7044	612265.279631827807	99.411968362565
1	7052	613466.542468191005	0
1	7088	617028.594621427471	1905.3119187572
1	7093	617118.150085426779	1658.2696286177
1	7101	617444.539169934855	1772.7733106223
1	7106	617515.215820238964	161.93029132878
1	7131	618387.810444666827	53.812419695161
1	7144	618914.219604645968	313.80388560245
1	7160	619424.660529174129	0
1	7178	621123.808395365069	0
1	7204	624063.499359211787	0
1	7212	624270.233429798141	133.32778314476
1	7237	625534.582952506397	0
1	7248	625744.924510717788	156.06827047636
1	7259	626080.657410138943	105.44952332976
1	7275	626777.596898218447	549.38512459571
1	7321	632165.503196316645	0
1	7330	633274.645437620309	0
1	7338	633748.684412671052	0
1	7355	635031.115022573246	14.85671419346
1	7366	635353.578830483062	257.67710934581
1	7379	635972.370228024196	253.29728853668
1	7421	638929.10293836413	0
1	7443	646879.124669173596	0
1	7460	648568.70694435303	0
1	7468	649364.703705081988	0
1	7485	650119.440680865621	0
1	7504	650881.959253059261	171.38788166927
1	7513	651295.085142174194	41.309776825622
1	7535	652697.674122061827	0
1	7543	653783.113956738691	0
1	7552	654499.090920157981	424.77167963586
1	7560	654940.737735856344	0
1	7594	657613.945670166182	0
1	7602	658431.371716624291	0
1	7619	659180.545438864916	0
1	7627	659656.17664736068	268.13234349309
1	7644	660426.321736712526	369.65265675665
1	7652	661013.077543653813	0
1	7661	661692.111204250804	55.14309157923
1	7711	664593.500918058628	332.1556650702
1	7736	666419.094586072157	0
1	7744	666509.285171436134	1.034474265294
1	7761	668431.343537629955	0
1	7770	670028.857482338713	0
1	7778	670350.84057512991	0
1	7821	673754.616882537323	0
1	7840	674417.062883494823	50.88699575732
1	7854	675560.513943714887	0
1	7878	679070.170678155215	716.52877326785
1	7883	679185.653898208528	627.05721182473
1	7888	679284.386371369356	581.09104745998
1	7905	680597.425074161065	0
1	7948	684103.756336698851	0
1	7956	684930.372776320767	0
1	7965	685701.099521664276	0
1	7999	689625.410915745661	745.12964314633
1	8008	690791.507126164152	0
1	8033	692144.444401561063	0
1	8051	695678.617734246632	0
1	8059	695985.08940058801	0
1	8068	696963.362663416675	0
1	8086	699971.537655444395	0
1	8098	700691.848774703909	125.05365769434
1	8119	701825.022744884691	0
1	8128	702129.824111632075	0
1	8139	702870.298502331011	388.11007541004
1	8159	703728.181702480987	664.93717152755
1	8194	706133.144865410539	0
1	8203	707136.569323254531	0
1	8219	707413.227678459572	17.543170391095
1	8244	709117.454362079232	0
1	8263	712874.468280458395	0
1	8282	717344.387589383973	0
1	8294	718837.599773711307	1414.5315444186
1	8299	718936.538769975483	1163.3369835694
1	8332	721337.286568282595	0
1	8341	721513.364374772958	74.497230833163
1	8349	721776.147150035569	0
1	8357	722023.231931466611	0
1	8374	723979.299680526528	0
1	8383	724596.64209044778	0
1	8391	725638.90093679059	0
1	8458	729067.081162903636	0
1	8466	729400.157016399839	1.219613206169
1	8475	730641.060028282133	0
1	8500	732063.596901126347	0
1	8511	733131.695646275846	137.20596358191
1	8525	733912.710405058229	0
1	8552	738835.021336958791	0
1	8561	739512.096879210914	0
1	8569	739587.876265699199	0
1	8585	740179.145122103634	0
1	8619	742957.23070912302	0
1	8627	743648.259176409588	0
1	8652	744721.890388156926	0
1	8663	744979.923200631545	256.1323179604
1	8699	754940.152432333097	0
1	8716	756288.105708920199	0
1	8724	756417.689915895598	0
1	8740	757327.85053594481	85.830496273835
1	8758	759441.095775111925	0
1	8775	761030.549197130538	0
1	8783	761751.796255039678	0
1	8800	762718.01386870406	0
1	8808	763259.701533105297	0
1	8846	766866.993413527098	133.5458917447
1	8851	767060.880663606375	321.03316132165
1	8860	768045.781873006443	0
1	8891	769672.103646695373	1012.5602346724
1	8896	770205.8094864419	1114.6780478934
1	8918	771011.039725437677	215.15813848471
1	8934	771911.231705391067	0
1	8959	773119.908578803796	0
1	8967	773419.101284043622	0
1	8976	774063.016583259226	0
1	8984	774829.060844666229	0
1	8992	775153.189063374971	77.358697902117
1	9034	777219.000670176638	248.37040115932
1	9054	779410.89409416782	842.61647249561
1	9068	780002.921827807149	0
1	9092	781472.29874925641	0
1	9110	784047.267360465674	0
1	9124	784400.231252977836	323.37608654074
1	9130	784594.030584609095	305.33230753747
1	9143	785336.067520224513	0
1	9170	789757.956998317405	0
1	9178	789863.189590113407	92.682598781901
1	9192	790474.047565907855	151.4589941625
1	9198	791193.060299123641	786.29812591483
1	9207	792146.02827534408	627.28896797646
1	9236	793400.927901309001	0
1	9271	797978.371529633889	0
1	9308	804281.010106917365	0
1	9317	805846.144777367376	0
1	9335	809667.002605183429	0
1	9354	813499.844381444069	0
1	9372	816105.355751342586	0
1	9380	816217.338224495178	0
1	9405	818667.562095531224	0
1	9415	821496.731693039269	0
1	9441	824156.519035639152	318.56653885367
1	9459	827110.92601376268	0
1	9467	827460.664811927066	0
1	9492	828084.929467838672	0
1	9508	828959.390560200128	178.28772879701
1	9533	830663.688775747333	0
1	9551	833649.492438945118	0
1	9568	834527.533256959717	0
1	9577	835619.226997646328	0
1	9593	835927.225478911554	0
1	9607	836492.201865116686	469.0457477313
1	9612	836654.151771395597	485.3508858547
1	9627	837179.492739583574	189.19917442858
1	9632	837303.087271599709	246.10711072091
1	9660	840028.743969336632	0
1	9676	840596.112536590039	0
1	9719	845706.351333592697	0
1	9728	846292.094944631378	0
1	9753	848516.247048095528	0
1	9771	851186.627036718506	29.834542884404
1	9779	851503.596082909	0
1	9788	852069.795812892392	0
1	9804	853346.811678227164	0
1	9830	855516.662667798146	0
1	9838	855604.550262795961	0
1	9864	858775.094428889242	0
1	9872	859250.566533090806	162.36687028074
1	9880	859488.080889848756	70.455361254856
1	9918	863380.689652056218	358.20011770765
1	9943	864509.122653870744	25.131626879835
1	9951	865023.197228632248	534.54280271137
1	9956	865078.527592742629	484.27261469997
1	9974	867300.900387888462	784.82582777769
1	9991	868758.733608422126	0
1	9999	869426.141329119109	413.1880584371
1	10019	871133.826290228395	251.15140019223
1	10031	871646.166340470815	296.20888432092
1	10050	873966.602113933958	0
1	10059	874681.78850966883	0
1	10102	880294.53699404011	0
1	10129	883772.36494944837	0
1	10137	884595.357858830964	0
1	10146	885975.741402177698	0
1	10155	887082.075778055924	0
1	10180	888982.479776258086	26.819652041328
1	10189	889807.707412510787	0
1	10214	891712.201808737056	0
1	10222	892196.899304149106	0
1	10240	894211.869087669279	0
1	10257	895656.168363974665	0
1	10265	895972.676460506649	93.637696265341
1	10298	897946.535860430099	0
1	10316	900895.578297832025	0
1	10344	906206.767332613065	0
1	10352	906595.988223576666	160.09589671528
1	10377	908476.971544013018	0
1	10385	908595.066850285	79.807697492736
1	10410	909830.318007798477	201.26615701614
1	10436	912731.991897550642	0
1	10445	913659.887429442132	0
1	10453	914125.985889960404	0
1	10470	915142.546346627203	0
1	10478	915271.655723252006	0
1	10486	915783.571170890267	0
1	10495	916653.912647314333	651.57614418561
1	10537	920131.078957834162	0
1	10565	922169.13083460965	447.59857549702
1	10570	922206.302841559193	182.85658290311
1	10588	923172.725969446929	934.35661296223
1	10593	923183.706884560181	190.6322944861
1	10601	923412.376038781148	240.55038530755
1	10615	924117.236055078365	273.9830442649
1	10626	924748.569724168506	214.2660588404
1	10639	925068.949952753413	38.614038857085
1	10669	926317.914343044576	0
1	10702	927504.953783955948	61.244691517477
1	10710	927899.168659359014	364.25301556738
1	10718	928228.437687937788	0
1	10770	933574.104568664278	0
1	10779	934555.77399874225	0
1	10804	936604.552855262651	0
1	10813	938648.356252647941	0
1	10830	939452.444980568224	128.03095428151
1	10848	942432.527822080395	166.19211196854
1	10857	943509.348057329208	0
1	10865	944005.02600264428	278.86060222955
1	10889	944663.783820791086	0
1	10907	946904.106086991873	0
1	10915	947269.201451253573	0
1	10949	949633.281522200021	0
2	967	79562.038507879703	1
2	970	79647.319996688998	2
2	973	79647.865764147225	3
2	978	79695.68111286994	2
2	981	79767.865167187412	3
2	986	80148.755785868606	2
2	991	80493.048316152219	1
2	997	80894.466661789812	2
2	1002	80933.706448123517	1
2	1008	81061.34145406376	0
2	1019	81737.695092757656	1
2	1024	81812.840502530562	0
2	1041	82817.352509080318	1
2	1043	82817.352509080318	0
2	1058	84253.583262826918	1
2	1066	84746.930615467812	0
2	1085	85334.230607408211	1
2	1094	86299.349725382531	0
2	1116	87383.047532535068	1
2	1118	87383.047532535068	0
2	1124	88059.318591590664	1
2	1126	88059.318591590664	0
2	1133	89101.795739766046	1
2	1135	89101.795739766046	0
2	1138	89271.533116824056	1
2	1146	89492.657185425944	0
2	1158	90107.773636172078	1
2	1163	90112.031875460027	0
2	1190	91034.012197062536	1
2	1192	91034.012197062536	0
2	1199	91601.386690774375	1
2	1201	91601.386690774375	0
2	1213	93226.790971587661	1
2	1224	94196.225852657587	0
2	1227	94338.886033053143	1
2	1232	94385.319928864243	0
2	1271	96175.526252014719	1
2	1276	96660.198349954429	0
2	1291	98074.547385898178	1
2	1293	98074.547385898178	0
2	1308	100407.755227768098	1
2	1310	100407.755227768098	0
2	1317	100969.005691164939	1
2	1319	100969.005691164939	0
2	1322	101153.709280236931	1
2	1327	101228.938530578276	0
2	1330	101364.114637482935	1
2	1335	101457.164349701791	0
2	1342	102287.503665433676	1
2	1344	102287.503665433676	0
2	1350	102494.500962649394	1
2	1352	102494.500962649394	0
2	1403	105367.200106382761	1
2	1406	105542.389069245919	2
2	1411	105687.552299649109	1
2	1416	105775.706782937559	0
2	1429	105823.892713982477	1
2	1434	106055.450562429549	0
2	1446	106559.61945546154	1
2	1449	106718.270799987318	2
2	1454	106725.083313568161	1
2	1462	107976.903710502726	0
2	1479	108588.616729675724	1
2	1484	109052.097637535299	0
2	1499	110124.912793909199	1
2	1501	110124.912793909199	0
2	1516	111875.130601223719	1
2	1518	111875.130601223719	0
2	1521	111937.685950238136	1
2	1524	112025.938458386724	2
2	1527	112069.378437929154	3
2	1532	112294.526438941867	2
2	1537	112338.416213121801	1
2	1546	112531.654380868368	0
2	1557	113045.082915285177	1
2	1559	113045.082915285177	0
2	1570	113563.038807718326	1
2	1575	113736.68520006095	0
2	1578	113913.962852955483	1
2	1581	113995.516639307173	2
2	1587	114340.55481842846	1
2	1595	114530.910341811822	0
2	1637	117014.587696105474	1
2	1642	117366.608227157816	0
2	1657	118542.840047803086	1
2	1659	118542.840047803086	0
2	1681	119542.601433387949	1
2	1683	119542.601433387949	0
2	1699	122428.39167081004	1
2	1701	122428.39167081004	0
2	1704	122480.947056689971	1
2	1709	122481.889933296169	0
2	1716	123087.478193501368	1
2	1718	123087.478193501368	0
2	1767	127699.950597988434	1
2	1769	127699.950597988434	0
2	1784	129587.326533477217	1
2	1786	129587.326533477217	0
2	1793	130606.435573010013	1
2	1795	130606.435573010013	0
2	1802	132319.647803519788	1
2	1804	132319.647803519788	0
2	1811	134305.073839275566	1
2	1813	134305.073839275566	0
2	1819	134602.945266514752	1
2	1821	134602.945266514752	0
2	1828	135643.790815132475	1
2	1830	135643.790815132475	0
2	1886	139385.312186639551	1
2	1888	139385.312186639551	0
2	1895	139626.983038333859	1
2	1897	139626.983038333859	0
2	1903	140414.897427074571	1
2	1905	140414.897427074571	0
2	1929	143487.090877977075	1
2	1931	143487.090877977075	0
2	1946	144536.224275385231	1
2	1948	144536.224275385231	0
2	1951	144738.635345515034	1
2	1956	144782.437683070544	0
2	1963	146645.163485125727	1
2	1965	146645.163485125727	0
2	1989	148581.098956925565	1
2	1991	148581.098956925565	0
2	2005	149715.924152942348	1
2	2007	149715.924152942348	0
2	2031	151932.306527934206	1
2	2033	151932.306527934206	0
2	2040	153319.777182226627	1
2	2042	153319.777182226627	0
2	2071	156226.200136517826	1
2	2076	156234.624536983024	0
2	2092	159409.456228813155	1
2	2094	159409.456228813155	0
2	2103	163847.095058719416	1
2	2105	163847.095058719416	0
2	2120	165224.72083638968	1
2	2122	165224.72083638968	0
2	2134	166576.157724033614	1
2	2139	166749.58978875055	0
2	2142	166800.396673949536	1
2	2147	167111.202206101782	0
2	2154	169015.779730070316	1
2	2156	169015.779730070316	0
2	2163	169796.643307316793	1
2	2165	169796.643307316793	0
2	2176	170285.823091910383	1
2	2181	170322.97652066147	0
2	2184	170329.823044243891	1
2	2187	170424.802859567031	2
2	2192	170507.030632062672	1
2	2198	171276.305706191118	0
2	2218	172291.312109140362	1
2	2224	172772.43924150599	0
2	2232	172914.302285738788	1
2	2235	173212.787519212509	2
2	2240	173425.878349151365	1
2	2249	173690.163435187936	2
2	2254	173792.514275150462	1
2	2260	174125.718089045527	0
2	2268	174253.816509205635	1
2	2271	174258.690061260006	2
2	2276	174343.99863542994	1
2	2284	175273.161336210066	0
2	2363	182962.067280925552	1
2	2365	182962.067280925552	0
2	2372	184470.882895956164	1
2	2374	184470.882895956164	0
2	2386	184839.248812199831	1
2	2391	184919.078049226094	0
2	2415	188092.602348577272	1
2	2417	188092.602348577272	0
2	2423	188742.951093071019	1
2	2425	188742.951093071019	0
2	2449	191388.618893750621	1
2	2451	191388.618893750621	0
2	2457	191530.665947921437	1
2	2459	191530.665947921437	0
2	2471	193092.447379910965	1
2	2477	193916.588688317862	0
2	2484	195861.13297304216	1
2	2486	195861.13297304216	0
2	2497	196042.862692880768	1
2	2505	196251.050668529719	0
2	2517	196717.594733981308	1
2	2519	196717.594733981308	0
2	2525	197102.02599974054	1
2	2527	197102.02599974054	0
2	2548	200294.923620472469	1
2	2554	201073.253843925297	0
2	2557	201102.745754528477	1
2	2560	201432.39188878598	2
2	2565	202003.92670946187	1
2	2574	202608.745160901501	0
2	2615	205203.402143328717	1
2	2621	205740.678187751437	0
2	2627	206242.695302485522	1
2	2629	206242.695302485522	0
2	2640	206950.14452069067	1
2	2646	207102.761097031617	0
2	2657	207751.549041045407	1
2	2660	207854.883463541478	2
2	2663	207952.229714506925	3
2	2668	207953.758835319306	2
2	2677	208828.80044171485	1
2	2682	208999.595188426693	0
2	2690	209189.518098337887	1
2	2695	209636.101188756437	0
2	2715	210512.957012623818	1
2	2724	211505.837963247704	0
2	2744	214223.81376282279	1
2	2746	214223.81376282279	0
2	2752	214411.987390240657	1
2	2754	214411.987390240657	0
2	2757	214447.997184528608	1
2	2763	214703.026885126808	0
2	2794	216127.856100384117	1
2	2796	216127.856100384117	0
2	2799	216139.174284364535	1
2	2804	216337.305009838255	0
2	2828	219439.183259440818	1
2	2830	219439.183259440818	0
2	2836	219971.811058487173	1
2	2838	219971.811058487173	0
2	2861	221562.173266452266	1
2	2863	221562.173266452266	0
2	2870	222373.606869547614	1
2	2872	222373.606869547614	0
2	2879	223916.866307357565	1
2	2881	223916.866307357565	0
2	2892	224741.545967998607	1
2	2900	224781.633763217197	0
2	2931	230196.014662894277	1
2	2933	230196.014662894277	0
2	2940	231294.159143303803	1
2	2942	231294.159143303803	0
2	2948	231506.788496262165	1
2	2951	231602.581663616342	2
2	2959	231904.194522838385	1
2	2964	231989.023284557575	0
2	2976	232515.027562802929	1
2	2981	232568.594515465114	0
2	2997	233874.904327358011	1
2	2999	233874.904327358011	0
2	3024	237220.37420850053	1
2	3026	237220.37420850053	0
2	3032	237459.956514007301	1
2	3034	237459.956514007301	0
2	3070	239861.516592363217	1
2	3076	240881.292921125412	0
2	3092	243388.963523556166	1
2	3094	243388.963523556166	0
2	3100	243677.318725164309	1
2	3102	243677.318725164309	0
2	3118	247375.214591555435	1
2	3120	247375.214591555435	0
2	3127	248126.526513948425	1
2	3129	248126.526513948425	0
2	3132	248196.063850446338	1
2	3140	248352.624945194435	0
2	3166	251888.628557957698	1
2	3175	253418.03074666373	0
2	3184	253532.065809042457	1
2	3189	254439.899486019767	0
2	3213	256607.80379783169	1
2	3215	256607.80379783169	0
2	3226	257221.366390313239	1
2	3231	257466.878142927103	0
2	3247	260921.956954354078	1
2	3249	260921.956954354078	0
2	3256	261257.727979661874	1
2	3258	261257.727979661874	0
2	3264	261851.978711598112	1
2	3266	261851.978711598112	0
2	3281	262954.860392098776	1
2	3283	262954.860392098776	0
2	3286	263109.773975150774	1
2	3295	264002.30624409448	0
2	3314	265494.353209184915	1
2	3316	265494.353209184915	0
2	3323	266267.248014029662	1
2	3325	266267.248014029662	0
2	3348	267927.414998763298	1
2	3353	268017.499375623936	0
2	3383	272289.871411772458	1
2	3385	272289.871411772458	0
2	3393	274608.353070520666	1
2	3395	274608.353070520666	0
2	3398	274657.821509319185	1
2	3403	274752.411409862025	0
2	3414	275136.946365611736	1
2	3419	275508.452838430221	0
2	3422	275535.104047351883	1
2	3427	275553.149793843579	0
2	3459	278045.157010719673	1
2	3461	278045.157010719673	0
2	3483	282622.241337592101	1
2	3488	282660.091944410739	0
2	3491	282914.579472616209	1
2	3496	283083.870181918559	0
2	3520	285603.479768528878	1
2	3522	285603.479768528878	0
2	3539	290002.967421832458	1
2	3541	290002.967421832458	0
2	3555	294797.073608344154	1
2	3560	294878.697739429897	0
2	3572	296388.587561982643	1
2	3577	296412.986520092958	0
2	3580	296606.560717927207	1
2	3585	296686.496576684836	0
2	3592	298020.866889725532	1
2	3594	298020.866889725532	0
2	3601	299560.315613546955	1
2	3603	299560.315613546955	0
2	3618	300777.584890923699	1
2	3620	300777.584890923699	0
2	3643	302981.087518757315	1
2	3645	302981.087518757315	0
2	3668	304319.098372002186	1
2	3670	304319.098372002186	0
2	3686	306586.537030966639	1
2	3688	306586.537030966639	0
2	3695	308071.014201444011	1
2	3697	308071.014201444011	0
2	3704	309321.537659564367	1
2	3706	309321.537659564367	0
2	3748	315325.842467376567	1
2	3750	315325.842467376567	0
2	3757	317287.857774913687	1
2	3759	317287.857774913687	0
2	3784	321164.734482480323	1
2	3786	321164.734482480323	0
2	3797	322304.816576821377	1
2	3801	322503.498269083792	2
2	3806	323049.688871413467	1
2	3809	323283.359644808112	2
2	3814	323296.570040046215	1
2	3819	323468.589933884659	0
2	3834	325211.782167006604	1
2	3836	325211.782167006604	0
2	3843	325794.53458585125	1
2	3845	325794.53458585125	0
2	3860	327077.073953632245	1
2	3862	327077.073953632245	0
2	3885	328737.175860438929	1
2	3888	329102.952246496144	2
2	3893	329338.301373210041	1
2	3896	329366.605825887308	2
2	3901	329472.758095414407	1
2	3906	329498.529483023882	0
2	3942	331456.385715083079	1
2	3944	331456.385715083079	0
2	3959	332987.168737389846	1
2	3961	332987.168737389846	0
2	3973	333491.096319833318	1
2	3978	333513.317632743501	0
2	4002	336401.0559251309	1
2	4004	336401.0559251309	0
2	4007	336509.627377805581	1
2	4010	336718.879103553168	2
2	4015	336787.357632892322	1
2	4018	337237.182420470153	2
2	4023	337260.417058845531	1
2	4028	337272.543695930527	0
2	4035	337678.801966282104	1
2	4037	337678.801966282104	0
2	4040	337763.57563645577	1
2	4045	337783.298185311027	0
2	4056	338699.507302272332	1
2	4061	338796.168216177411	0
2	4076	339526.412266645238	1
2	4078	339526.412266645238	0
2	4084	339727.257115566044	1
2	4086	339727.257115566044	0
2	4108	340448.9409688108	1
2	4110	340448.9409688108	0
2	4114	340904.097663020249	1
2	4125	341098.57918483669	0
2	4149	341636.293119034446	1
2	4151	341636.293119034446	0
2	4154	341770.697741580356	1
2	4165	341894.940429527608	0
2	4192	345485.44709829951	1
2	4194	345485.44709829951	0
2	4204	346882.23840604238	1
2	4209	346996.187935782465	0
2	4234	348314.915714932819	1
2	4239	348555.475802792997	0
2	4247	348944.83284979526	1
2	4252	349161.763580989171	0
2	4276	351049.034663173183	1
2	4278	351049.034663173183	0
2	4281	351279.743269561467	1
2	4286	351372.60063926667	0
2	4301	353199.301237964178	1
2	4303	353199.301237964178	0
2	4314	353914.459835370273	1
2	4320	354127.400765569031	0
2	4323	354246.566644785612	1
2	4328	354514.479245867614	0
2	4335	355568.848904259622	1
2	4337	355568.848904259622	0
2	4361	359117.795730880843	1
2	4366	359407.059881367222	0
2	4403	362824.067807284238	1
2	4405	362824.067807284238	0
2	4409	363131.597528956773	1
2	4414	363606.917894918439	0
2	4417	363869.685989700605	1
2	4422	364259.350686385056	0
2	4429	364640.315525590383	1
2	4431	364640.315525590383	0
2	4437	365562.299937372334	1
2	4439	365562.299937372334	0
2	4443	366075.210972159215	1
2	4451	366456.670979824103	0
2	4479	368455.250498451926	1
2	4481	368455.250498451926	0
2	4522	373008.779998051056	1
2	4524	373008.779998051056	0
2	4527	373038.987313915877	1
2	4532	373089.552212922828	0
2	4535	373249.590394455961	1
2	4544	373918.638393015001	0
2	4555	374131.735759710683	1
2	4557	374131.735759710683	0
2	4569	375117.016048814362	1
2	4574	375257.045571998746	0
2	4606	378574.659215639499	1
2	4608	378574.659215639499	0
2	4615	380169.136305840878	1
2	4617	380169.136305840878	0
2	4623	380727.156202763331	1
2	4625	380727.156202763331	0
2	4637	382022.28412583167	1
2	4642	382294.49515085928	0
2	4660	383162.35060936648	1
2	4665	383301.888976619678	0
2	4690	385156.831210116763	1
2	4692	385156.831210116763	0
2	4699	385925.065526394834	1
2	4701	385925.065526394834	0
2	4708	388455.87223709663	1
2	4710	388455.87223709663	0
2	4726	390434.010538762788	1
2	4728	390434.010538762788	0
2	4743	392851.387980281418	1
2	4745	392851.387980281418	0
2	4760	394327.127544454171	1
2	4762	394327.127544454171	0
2	4777	395419.61677097394	1
2	4779	395419.61677097394	0
2	4795	398012.210558277172	1
2	4797	398012.210558277172	0
2	4821	401372.103666550527	1
2	4823	401372.103666550527	0
2	4840	405462.298350087628	1
2	4842	405462.298350087628	0
2	4848	406121.881544686401	1
2	4850	406121.881544686401	0
2	4857	406857.1168776802	1
2	4859	406857.1168776802	0
2	4866	408584.454769441863	1
2	4868	408584.454769441863	0
2	4879	408897.946047830315	1
2	4882	409042.324789990655	2
2	4887	409063.653319565497	1
2	4892	409101.827915462929	0
2	4915	409787.617717623081	1
2	4917	409787.617717623081	0
2	4923	410261.801138584245	1
2	4932	411715.010257562117	0
2	4948	412154.486371768344	1
2	4950	412154.486371768344	0
2	4962	412991.51922363119	1
2	4970	413178.520236418007	0
2	4981	413538.337658109531	1
2	4983	413538.337658109531	0
2	5007	415903.546612669916	1
2	5009	415903.546612669916	0
2	5051	421946.318606890468	1
2	5053	421946.318606890468	0
2	5059	422758.662682292328	1
2	5061	422758.662682292328	0
2	5073	423861.344780289156	1
2	5078	424308.934371738249	0
2	5094	426773.243089302957	1
2	5096	426773.243089302957	0
2	5108	427761.360152800274	1
2	5111	427965.960435295585	2
2	5116	427989.498639799963	1
2	5121	428136.107601833822	0
2	5146	433220.367288148607	1
2	5148	433220.367288148607	0
2	5164	435325.45517797965	1
2	5166	435325.45517797965	0
2	5172	436242.389912878869	1
2	5174	436242.389912878869	0
2	5181	437906.942692915996	1
2	5183	437906.942692915996	0
2	5187	438899.319524940769	1
2	5193	439208.282432521494	2
2	5199	439508.873808913141	1
2	5204	439658.953037654924	0
2	5215	440437.729323324534	1
2	5217	440437.729323324534	0
2	5271	445048.190853615078	1
2	5274	445349.474596842576	2
2	5280	446134.041335658755	1
2	5285	446190.84016934175	0
2	5312	454227.547379665022	1
2	5314	454227.547379665022	0
2	5321	455990.590015419787	1
2	5323	455990.590015419787	0
2	5341	460662.401572605499	1
2	5346	460696.560057797271	0
2	5349	460872.985562284864	1
2	5355	462443.596850784214	0
2	5358	462454.4497773428	1
2	5363	462473.43293898699	0
2	5366	462610.121679561094	1
2	5371	462659.619436623661	0
2	5408	466068.551640821005	1
2	5410	466068.551640821005	0
2	5426	468090.191998970347	1
2	5428	468090.191998970347	0
2	5431	468187.664893549152	1
2	5436	468335.890005070566	0
2	5450	469104.549040330888	1
2	5452	469104.549040330888	0
2	5486	475265.957452585838	1
2	5488	475265.957452585838	0
2	5494	475477.795325891548	1
2	5496	475477.795325891548	0
2	5503	475936.058220780769	1
2	5505	475936.058220780769	0
2	5511	476158.666854114767	1
2	5513	476158.666854114767	0
2	5520	477057.263467241212	1
2	5522	477057.263467241212	0
2	5542	478666.469183174272	1
2	5547	479218.410953272673	0
2	5567	480791.78928769805	1
2	5572	481174.561861820268	0
2	5596	483877.0391210811	1
2	5598	483877.0391210811	0
2	5613	484922.263216708908	1
2	5615	484922.263216708908	0
2	5632	489010.43105816645	1
2	5634	489010.43105816645	0
2	5661	497107.692643391506	1
2	5663	497107.692643391506	0
2	5666	497156.240587112853	1
2	5671	497322.498913933976	0
2	5678	498184.46178220384	1
2	5680	498184.46178220384	0
2	5695	499974.313953568435	1
2	5697	499974.313953568435	0
2	5704	501137.280825236651	1
2	5706	501137.280825236651	0
2	5712	502269.501526197798	1
2	5714	502269.501526197798	0
2	5720	502379.977100329517	1
2	5722	502379.977100329517	0
2	5742	503454.784951713601	1
2	5753	503699.310102269713	0
2	5786	504940.458501803384	1
2	5788	504940.458501803384	0
2	5791	505017.792177313175	1
2	5796	505051.486227124792	0
2	5802	505229.636373948593	1
2	5804	505229.636373948593	0
2	5811	505929.644180443433	1
2	5813	505929.644180443433	0
2	5822	506220.862521591794	1
2	5827	506622.845816943348	0
2	5844	508475.602352384738	1
2	5846	508475.602352384738	0
2	5858	509265.298685452248	1
2	5863	509486.642803025326	0
2	5874	509749.005379618136	1
2	5882	509890.374534946431	0
2	5910	511176.527602345499	1
2	5912	511176.527602345499	0
2	5915	511334.071495642198	1
2	5920	511363.19284111695	0
2	5936	513888.809979052875	1
2	5938	513888.809979052875	0
2	5954	516232.784296996443	1
2	5956	516232.784296996443	0
2	5962	516768.940255282203	1
2	5964	516768.940255282203	0
2	5997	520775.894205373337	1
2	5999	520775.894205373337	0
2	6013	521592.85198619163	1
2	6015	521592.85198619163	0
2	6035	522058.766138841528	1
2	6040	523022.231469074007	0
2	6043	523255.727999864562	1
2	6049	523573.642180725623	0
2	6073	526963.212451011588	1
2	6075	526963.212451011588	0
2	6097	532471.00985468362	1
2	6103	532511.83252068325	0
2	6106	532572.656548182752	1
2	6111	532879.546763048421	0
2	6114	532970.006573383617	1
2	6122	533436.570198177068	0
2	6144	537346.11581989181	1
2	6146	537346.11581989181	0
2	6157	537975.09808269399	1
2	6162	538039.539380543336	0
2	6169	538698.303234683925	1
2	6171	538698.303234683925	0
2	6178	540782.15019196796	1
2	6180	540782.15019196796	0
2	6183	540916.879585225337	1
2	6186	541002.595989730515	2
2	6191	541314.759640166169	1
2	6196	541339.919874698088	0
2	6211	541725.974597515828	1
2	6213	541725.974597515828	0
2	6236	543612.751520543812	1
2	6238	543612.751520543812	0
2	6241	543764.244232996432	1
2	6250	544619.366534999758	0
2	6296	549767.08040717073	1
2	6298	549767.08040717073	0
2	6305	550793.601752066994	1
2	6307	550793.601752066994	0
2	6339	554545.053709458966	1
2	6341	554545.053709458966	0
2	6348	555859.020382133374	1
2	6350	555859.020382133374	0
2	6357	557645.619897811668	1
2	6359	557645.619897811668	0
2	6362	557699.133218583378	1
2	6368	558014.81242563613	0
2	6383	559606.759417628102	1
2	6385	559606.759417628102	0
2	6408	561726.19059266397	1
2	6410	561726.19059266397	0
2	6431	564026.549223898945	1
2	6436	564686.227630856361	0
2	6451	565596.560293135684	1
2	6453	565596.560293135684	0
2	6470	570239.196671788408	1
2	6472	570239.196671788408	0
2	6487	572398.165266406238	1
2	6489	572398.165266406238	0
2	6492	572757.378404548982	1
2	6497	572760.035965536999	0
2	6517	574175.589464460276	1
2	6525	574481.09718770678	0
2	6537	574929.423220116605	1
2	6539	574929.423220116605	0
2	6545	575272.18604052909	1
2	6547	575272.18604052909	0
2	6553	575501.826734493838	1
2	6555	575501.826734493838	0
2	6570	576082.288128541588	1
2	6572	576082.288128541588	0
2	6581	576717.319134499628	1
2	6586	576812.685384467221	0
2	6602	577417.122827668038	1
2	6608	577623.771528822801	0
2	6616	577830.182794651023	1
2	6619	577919.56152441139	2
2	6624	578319.284787153071	1
2	6629	578336.698545692477	0
2	6660	579484.313731332795	1
2	6662	579484.313731332795	0
2	6665	579516.070869480765	1
2	6670	579596.821817153026	0
2	6710	582907.651542681824	1
2	6712	582907.651542681824	0
2	6727	583848.32660570854	1
2	6729	583848.32660570854	0
2	6735	584779.341945039673	1
2	6737	584779.341945039673	0
2	6740	584838.787716430151	1
2	6745	584875.598985956986	0
2	6752	585055.528391018853	1
2	6754	585055.528391018853	0
2	6766	586862.549233576916	1
2	6771	587054.11672488728	0
2	6794	588153.114491194601	1
2	6800	588292.129736285591	2
2	6805	588454.10474514671	1
2	6808	588966.69364612775	2
2	6814	589807.253446722959	1
2	6819	589878.987555977465	0
2	6852	591762.030540463869	1
2	6854	591762.030540463869	0
2	6881	598579.869213327567	1
2	6883	598579.869213327567	0
2	6886	598723.229543311751	1
2	6891	598787.471803461605	0
2	6899	602778.842732734449	1
2	6901	602778.842732734449	0
2	6908	603595.134216633478	1
2	6910	603595.134216633478	0
2	6942	607150.685254559675	1
2	6944	607150.685254559675	0
2	6947	607319.665845897739	1
2	6952	607344.484301937768	0
2	6967	608851.924999053347	1
2	6973	609138.052528670636	0
2	6976	609423.073101405412	1
2	6981	609544.234307154657	0
2	6992	610410.586775708434	1
2	6994	610410.586775708434	0
2	6997	610461.388018367069	1
2	7002	610466.449209597428	0
2	7039	612165.867663465242	1
2	7044	612265.279631827807	0
2	7050	613466.542468191005	1
2	7052	613466.542468191005	0
2	7073	615123.282702670242	1
2	7076	615459.880456809069	2
2	7079	615671.765859312538	3
2	7088	617028.594621427471	2
2	7093	617118.150085426779	1
2	7096	617353.285528910185	2
2	7101	617444.539169934855	1
2	7106	617515.215820238964	0
2	7126	618333.998024971666	1
2	7131	618387.810444666827	0
2	7139	618600.415719043514	1
2	7144	618914.219604645968	0
2	7158	619424.660529174129	1
2	7160	619424.660529174129	0
2	7176	621123.808395365069	1
2	7178	621123.808395365069	0
2	7202	624063.499359211787	1
2	7204	624063.499359211787	0
2	7207	624136.905646653376	1
2	7212	624270.233429798141	0
2	7235	625534.582952506397	1
2	7237	625534.582952506397	0
2	7240	625588.856240241426	1
2	7248	625744.924510717788	0
2	7251	625975.207886809184	1
2	7259	626080.657410138943	0
2	7270	626228.211773622741	1
2	7275	626777.596898218447	0
2	7319	632165.503196316645	1
2	7321	632165.503196316645	0
2	7328	633274.645437620309	1
2	7330	633274.645437620309	0
2	7336	633748.684412671052	1
2	7338	633748.684412671052	0
2	7350	635016.258308379786	1
2	7355	635031.115022573246	0
2	7358	635095.90172113725	1
2	7366	635353.578830483062	0
2	7374	635719.072939487512	1
2	7379	635972.370228024196	0
2	7419	638929.10293836413	1
2	7421	638929.10293836413	0
2	7441	646879.124669173596	1
2	7443	646879.124669173596	0
2	7458	648568.70694435303	1
2	7460	648568.70694435303	0
2	7466	649364.703705081988	1
2	7468	649364.703705081988	0
2	7483	650119.440680865621	1
2	7485	650119.440680865621	0
2	7496	650710.571371389995	1
2	7504	650881.959253059261	0
2	7508	651253.775365348572	1
2	7513	651295.085142174194	0
2	7533	652697.674122061827	1
2	7535	652697.674122061827	0
2	7541	653783.113956738691	1
2	7543	653783.113956738691	0
2	7547	654074.319240522117	1
2	7552	654499.090920157981	0
2	7558	654940.737735856344	1
2	7560	654940.737735856344	0
2	7592	657613.945670166182	1
2	7594	657613.945670166182	0
2	7600	658431.371716624291	1
2	7602	658431.371716624291	0
2	7617	659180.545438864916	1
2	7619	659180.545438864916	0
2	7622	659388.044303867591	1
2	7627	659656.17664736068	0
2	7639	660056.669079955879	1
2	7644	660426.321736712526	0
2	7650	661013.077543653813	1
2	7652	661013.077543653813	0
2	7656	661636.968112671574	1
2	7661	661692.111204250804	0
2	7705	664261.345252988428	1
2	7711	664593.500918058628	0
2	7734	666419.094586072157	1
2	7736	666419.094586072157	0
2	7739	666508.25069717084	1
2	7744	666509.285171436134	0
2	7759	668431.343537629955	1
2	7761	668431.343537629955	0
2	7768	670028.857482338713	1
2	7770	670028.857482338713	0
2	7776	670350.84057512991	1
2	7778	670350.84057512991	0
2	7819	673754.616882537323	1
2	7821	673754.616882537323	0
2	7832	674366.175887737503	1
2	7840	674417.062883494823	0
2	7852	675560.513943714887	1
2	7854	675560.513943714887	0
2	7867	678353.641904887365	1
2	7870	678558.596686383802	2
2	7873	678703.295323909381	3
2	7878	679070.170678155215	2
2	7883	679185.653898208528	1
2	7888	679284.386371369356	0
2	7903	680597.425074161065	1
2	7905	680597.425074161065	0
2	7946	684103.756336698851	1
2	7948	684103.756336698851	0
2	7954	684930.372776320767	1
2	7956	684930.372776320767	0
2	7963	685701.099521664276	1
2	7965	685701.099521664276	0
2	7994	688880.281272599327	1
2	7999	689625.410915745661	0
2	8006	690791.507126164152	1
2	8008	690791.507126164152	0
2	8031	692144.444401561063	1
2	8033	692144.444401561063	0
2	8049	695678.617734246632	1
2	8051	695678.617734246632	0
2	8057	695985.08940058801	1
2	8059	695985.08940058801	0
2	8066	696963.362663416675	1
2	8068	696963.362663416675	0
2	8084	699971.537655444395	1
2	8086	699971.537655444395	0
2	8093	700566.795117009567	1
2	8098	700691.848774703909	0
2	8117	701825.022744884691	1
2	8119	701825.022744884691	0
2	8126	702129.824111632075	1
2	8128	702129.824111632075	0
2	8134	702482.188426920975	1
2	8139	702870.298502331011	0
2	8147	703063.244530953436	1
2	8159	703728.181702480987	0
2	8192	706133.144865410539	1
2	8194	706133.144865410539	0
2	8201	707136.569323254531	1
2	8203	707136.569323254531	0
2	8214	707395.684508068477	1
2	8219	707413.227678459572	0
2	8242	709117.454362079232	1
2	8244	709117.454362079232	0
2	8261	712874.468280458395	1
2	8263	712874.468280458395	0
2	8280	717344.387589383973	1
2	8282	717344.387589383973	0
2	8285	717423.06822929275	1
2	8288	717773.201786406036	2
2	8294	718837.599773711307	1
2	8299	718936.538769975483	0
2	8330	721337.286568282595	1
2	8332	721337.286568282595	0
2	8335	721438.867143939795	1
2	8341	721513.364374772958	0
2	8347	721776.147150035569	1
2	8349	721776.147150035569	0
2	8355	722023.231931466611	1
2	8357	722023.231931466611	0
2	8372	723979.299680526528	1
2	8374	723979.299680526528	0
2	8381	724596.64209044778	1
2	8383	724596.64209044778	0
2	8389	725638.90093679059	1
2	8391	725638.90093679059	0
2	8456	729067.081162903636	1
2	8458	729067.081162903636	0
2	8461	729398.93740319367	1
2	8466	729400.157016399839	0
2	8473	730641.060028282133	1
2	8475	730641.060028282133	0
2	8498	732063.596901126347	1
2	8500	732063.596901126347	0
2	8506	732994.489682693935	1
2	8511	733131.695646275846	0
2	8523	733912.710405058229	1
2	8525	733912.710405058229	0
2	8550	738835.021336958791	1
2	8552	738835.021336958791	0
2	8559	739512.096879210914	1
2	8561	739512.096879210914	0
2	8567	739587.876265699199	1
2	8569	739587.876265699199	0
2	8583	740179.145122103634	1
2	8585	740179.145122103634	0
2	8617	742957.23070912302	1
2	8619	742957.23070912302	0
2	8625	743648.259176409588	1
2	8627	743648.259176409588	0
2	8650	744721.890388156926	1
2	8652	744721.890388156926	0
2	8655	744723.790882671143	1
2	8663	744979.923200631545	0
2	8697	754940.152432333097	1
2	8699	754940.152432333097	0
2	8714	756288.105708920199	1
2	8716	756288.105708920199	0
2	8722	756417.689915895598	1
2	8724	756417.689915895598	0
2	8735	757242.020039670975	1
2	8740	757327.85053594481	0
2	8756	759441.095775111925	1
2	8758	759441.095775111925	0
2	8773	761030.549197130538	1
2	8775	761030.549197130538	0
2	8781	761751.796255039678	1
2	8783	761751.796255039678	0
2	8798	762718.01386870406	1
2	8800	762718.01386870406	0
2	8806	763259.701533105297	1
2	8808	763259.701533105297	0
2	8838	766733.447521782402	1
2	8841	766739.847502284722	2
2	8846	766866.993413527098	1
2	8851	767060.880663606375	0
2	8858	768045.781873006443	1
2	8860	768045.781873006443	0
2	8879	768659.543412023015	1
2	8885	769091.131438548521	2
2	8891	769672.103646695373	1
2	8896	770205.8094864419	0
2	8912	770795.881586952971	1
2	8918	771011.039725437677	0
2	8932	771911.231705391067	1
2	8934	771911.231705391067	0
2	8957	773119.908578803796	1
2	8959	773119.908578803796	0
2	8965	773419.101284043622	1
2	8967	773419.101284043622	0
2	8974	774063.016583259226	1
2	8976	774063.016583259226	0
2	8982	774829.060844666229	1
2	8984	774829.060844666229	0
2	8987	775075.830365472854	1
2	8992	775153.189063374971	0
2	9028	776970.630269017313	1
2	9034	777219.000670176638	0
2	9046	778568.277621672209	1
2	9054	779410.89409416782	0
2	9066	780002.921827807149	1
2	9068	780002.921827807149	0
2	9090	781472.29874925641	1
2	9092	781472.29874925641	0
2	9108	784047.267360465674	1
2	9110	784047.267360465674	0
2	9113	784076.8551664371	1
2	9119	784288.698277071627	2
2	9124	784400.231252977836	1
2	9130	784594.030584609095	0
2	9141	785336.067520224513	1
2	9143	785336.067520224513	0
2	9168	789757.956998317405	1
2	9170	789757.956998317405	0
2	9173	789770.506991331506	1
2	9178	789863.189590113407	0
2	9184	790322.588571745354	1
2	9187	790406.762173208806	2
2	9192	790474.047565907855	1
2	9198	791193.060299123641	0
2	9201	791518.739307367618	1
2	9207	792146.02827534408	0
2	9234	793400.927901309001	1
2	9236	793400.927901309001	0
2	9269	797978.371529633889	1
2	9271	797978.371529633889	0
2	9306	804281.010106917365	1
2	9308	804281.010106917365	0
2	9315	805846.144777367376	1
2	9317	805846.144777367376	0
2	9333	809667.002605183429	1
2	9335	809667.002605183429	0
2	9352	813499.844381444069	1
2	9354	813499.844381444069	0
2	9370	816105.355751342586	1
2	9372	816105.355751342586	0
2	9378	816217.338224495178	1
2	9380	816217.338224495178	0
2	9403	818667.562095531224	1
2	9405	818667.562095531224	0
2	9413	821496.731693039269	1
2	9415	821496.731693039269	0
2	9436	823837.952496785487	1
2	9441	824156.519035639152	0
2	9457	827110.92601376268	1
2	9459	827110.92601376268	0
2	9465	827460.664811927066	1
2	9467	827460.664811927066	0
2	9490	828084.929467838672	1
2	9492	828084.929467838672	0
2	9503	828781.102831403119	1
2	9508	828959.390560200128	0
2	9531	830663.688775747333	1
2	9533	830663.688775747333	0
2	9549	833649.492438945118	1
2	9551	833649.492438945118	0
2	9566	834527.533256959717	1
2	9568	834527.533256959717	0
2	9575	835619.226997646328	1
2	9577	835619.226997646328	0
2	9591	835927.225478911554	1
2	9593	835927.225478911554	0
2	9596	836023.156117385388	1
2	9599	836168.800885540896	2
2	9607	836492.201865116686	1
2	9612	836654.151771395597	0
2	9615	836990.293565154997	1
2	9619	837056.980160878797	2
2	9627	837179.492739583574	1
2	9632	837303.087271599709	0
2	9658	840028.743969336632	1
2	9660	840028.743969336632	0
2	9674	840596.112536590039	1
2	9676	840596.112536590039	0
2	9717	845706.351333592697	1
2	9719	845706.351333592697	0
2	9726	846292.094944631378	1
2	9728	846292.094944631378	0
2	9751	848516.247048095528	1
2	9753	848516.247048095528	0
2	9766	851156.792493834102	1
2	9771	851186.627036718506	0
2	9777	851503.596082909	1
2	9779	851503.596082909	0
2	9786	852069.795812892392	1
2	9788	852069.795812892392	0
2	9802	853346.811678227164	1
2	9804	853346.811678227164	0
2	9828	855516.662667798146	1
2	9830	855516.662667798146	0
2	9836	855604.550262795961	1
2	9838	855604.550262795961	0
2	9862	858775.094428889242	1
2	9864	858775.094428889242	0
2	9867	859088.199662810068	1
2	9872	859250.566533090806	0
2	9875	859417.6255285939	1
2	9880	859488.080889848756	0
2	9913	863022.48953434857	1
2	9918	863380.689652056218	0
2	9935	864483.991026990909	1
2	9938	864488.654425920876	2
2	9943	864509.122653870744	1
2	9946	864594.254978042663	2
2	9951	865023.197228632248	1
2	9956	865078.527592742629	0
2	9968	866516.074560110774	1
2	9974	867300.900387888462	0
2	9989	868758.733608422126	1
2	9991	868758.733608422126	0
2	9994	869012.953270682008	1
2	9999	869426.141329119109	0
2	10014	870882.674890036166	1
2	10019	871133.826290228395	0
2	10025	871349.957456149897	1
2	10031	871646.166340470815	0
2	10048	873966.602113933958	1
2	10050	873966.602113933958	0
2	10057	874681.78850966883	1
2	10059	874681.78850966883	0
2	10100	880294.53699404011	1
2	10102	880294.53699404011	0
2	10127	883772.36494944837	1
2	10129	883772.36494944837	0
2	10135	884595.357858830964	1
2	10137	884595.357858830964	0
2	10144	885975.741402177698	1
2	10146	885975.741402177698	0
2	10153	887082.075778055924	1
2	10155	887082.075778055924	0
2	10175	888955.660124216758	1
2	10180	888982.479776258086	0
2	10187	889807.707412510787	1
2	10189	889807.707412510787	0
2	10212	891712.201808737056	1
2	10214	891712.201808737056	0
2	10220	892196.899304149106	1
2	10222	892196.899304149106	0
2	10238	894211.869087669279	1
2	10240	894211.869087669279	0
2	10255	895656.168363974665	1
2	10257	895656.168363974665	0
2	10260	895879.038764241308	1
2	10265	895972.676460506649	0
2	10296	897946.535860430099	1
2	10298	897946.535860430099	0
2	10314	900895.578297832025	1
2	10316	900895.578297832025	0
2	10342	906206.767332613065	1
2	10344	906206.767332613065	0
2	10347	906435.892326861387	1
2	10352	906595.988223576666	0
2	10375	908476.971544013018	1
2	10377	908476.971544013018	0
2	10380	908515.259152792264	1
2	10385	908595.066850285	0
2	10405	909629.051850782334	1
2	10410	909830.318007798477	0
2	10434	912731.991897550642	1
2	10436	912731.991897550642	0
2	10443	913659.887429442132	1
2	10445	913659.887429442132	0
2	10451	914125.985889960404	1
2	10453	914125.985889960404	0
2	10468	915142.546346627203	1
2	10470	915142.546346627203	0
2	10476	915271.655723252006	1
2	10478	915271.655723252006	0
2	10484	915783.571170890267	1
2	10486	915783.571170890267	0
2	10489	916002.336503128719	1
2	10495	916653.912647314333	0
2	10535	920131.078957834162	1
2	10537	920131.078957834162	0
2	10557	921721.532259112632	1
2	10560	922023.446258656079	2
2	10565	922169.13083460965	1
2	10570	922206.302841559193	0
2	10573	922238.369356484696	1
2	10577	922993.07459007408	2
2	10583	923171.825653473596	3
2	10588	923172.725969446929	2
2	10593	923183.706884560181	1
2	10601	923412.376038781148	0
2	10609	923843.253010813466	1
[...]
7	5123	428763.108068150261	1
7	5128	429052.931665359822	2
7	5135	430100.130986921701	1
7	5152	433536.634469316244	2
7	5155	435129.228132424862	1
7	5169	435390.600694504276	2
7	5178	436650.439377356672	3
7	5189	439065.874056480399	2
7	5197	439508.873808913141	3
7	5202	439658.953037654924	4
7	5207	440040.11073077375	5
7	5219	440439.886467090549	4
7	5223	440448.926349620004	5
7	5227	440607.988055625921	4
7	5239	441395.15389207066	3
7	5248	443026.246379897196	2
7	5256	443780.17173881588	1
7	5265	444124.911668081417	0
7	5283	446190.84016934175	1
7	5288	446882.886132761417	2
7	5291	447348.088210768401	1
7	5299	448306.155461652891	0
7	5317	454394.074945304719	1
7	5327	456409.989959130577	2
7	5331	460145.845422073419	1
7	5336	460414.050587410013	0
7	5353	462443.596850784214	1
7	5361	462473.43293898699	2
7	5369	462659.619436623661	3
7	5374	462804.061400034277	4
7	5382	464297.025313844302	3
7	5390	464874.383985889504	2
7	5396	465418.775934453431	1
7	5413	466089.006289942805	2
7	5416	466637.788936066667	1
7	5434	468335.890005070566	2
7	5439	468337.358787954001	3
7	5441	468628.879068292773	2
7	5455	469163.923214073753	3
7	5458	469538.209574189236	2
7	5466	470552.75550815491	1
7	5475	472213.385787885754	0
7	5491	475309.841392359477	1
7	5500	475631.167511463391	2
7	5508	476140.390897658364	3
7	5516	476520.586301980081	4
7	5525	477343.689549257084	5
7	5527	477999.238227874581	4
7	5536	478609.175524220675	3
7	5550	479578.246469264626	4
7	5553	480053.694589276214	3
7	5561	480489.86568583927	2
7	5576	481600.37841665588	3
7	5578	481675.677600451321	2
7	5587	483123.505190097763	1
7	5601	484080.496773611178	2
7	5603	484281.958473837172	1
7	5618	484948.637272642457	2
7	5621	486634.530988457095	1
7	5637	489667.6273019093	2
7	5639	489708.287411421726	1
7	5648	491698.190447683066	0
7	5669	497322.498913933976	1
7	5674	497433.923053301508	2
7	5683	498404.676794636221	3
7	5685	498995.660801998826	2
7	5700	500397.597976947626	3
7	5709	501346.198059069602	4
7	5717	502373.979915655747	5
7	5726	502695.447487314981	6
7	5728	502831.137478447647	5
7	5733	503153.629959420987	4
7	5744	503460.656611877794	3
7	5747	503492.58389926068	2
7	5756	503900.054151485611	3
7	5766	504035.951714746582	2
7	5777	504674.687270243938	1
7	5794	505051.486227124792	2
7	5799	505098.605475314815	3
7	5808	505535.236614349452	4
7	5815	505973.524045557008	3
7	5818	506154.975247871014	2
7	5825	506622.845816943348	3
7	5830	506925.631297098452	4
7	5850	508785.358199965087	5
7	5852	508911.273939064933	4
7	5866	509514.487107367234	5
7	5868	509608.206269104056	4
7	5876	509861.253859258441	3
7	5885	509976.105539749838	4
7	5890	510081.280243213809	3
7	5901	510984.173244988114	2
7	5918	511363.19284111695	3
7	5924	511679.546521307058	4
7	5926	512420.085134422324	3
7	5941	514358.716568409571	4
7	5944	515055.590552676628	3
7	5959	516361.558566961502	4
7	5966	517082.998758043228	3
7	5970	517413.733265025272	4
7	5978	518563.480109960308	3
7	5984	519348.685984554786	2
7	6001	520803.513308831116	1
7	6005	520822.601360822047	2
7	6017	521610.302213151993	1
7	6021	521615.382210123645	2
7	6025	521930.284616405835	1
7	6047	523573.642180725623	2
7	6052	524462.755176252722	3
7	6054	524501.267075130457	2
7	6063	525809.210114686023	1
7	6078	527065.34697174224	2
7	6081	529184.054318858429	1
7	6091	532172.568449545046	0
7	6109	532879.546763048421	1
7	6116	533008.516287156571	0
7	6120	533436.570198177068	1
7	6125	533442.317831563367	2
7	6134	536565.177529642727	1
7	6148	537752.642417781906	0
7	6152	537878.055146401251	1
7	6165	538122.021757580892	2
7	6174	539220.333741634769	3
7	6189	541314.759640166169	4
7	6194	541339.919874698088	5
7	6200	541521.738478012308	6
7	6202	541613.755485602114	5
7	6216	542163.56264330482	6
7	6218	542699.418107300519	5
7	6224	543012.988996481979	4
7	6243	544068.989354177459	3
7	6248	544619.366534999758	4
7	6252	544662.41763980061	3
7	6256	544708.400634317769	4
7	6260	544796.628591573731	3
7	6263	545142.027966439162	2
7	6266	545232.931037843837	1
7	6302	550791.489977865727	2
7	6310	550924.660314582253	3
7	6312	550937.99049958362	2
7	6317	551204.429311870595	1
7	6325	551676.878481935744	0
7	6345	555268.84093432483	1
7	6353	555972.222637906593	2
7	6366	558014.81242563613	3
7	6371	558570.392315369509	4
7	6373	559214.009494505501	3
7	6387	559616.720135407594	2
7	6391	559799.232207102523	3
7	6395	559907.468450798612	2
7	6413	561748.639133717399	3
7	6416	563307.713006907239	2
7	6421	563470.32750870354	1
7	6439	564858.353960812321	2
7	6441	565405.796898185267	1
7	6456	565840.604708596851	2
7	6459	568018.843805864488	1
7	6475	570416.638662968734	2
7	6477	571351.454789281003	1
7	6495	572760.035965536999	2
7	6499	572936.89902860977	1
7	6504	573003.354089697077	2
7	6508	573059.414431446875	1
7	6519	574312.538321299205	0
7	6529	574544.582060121779	1
7	6542	574931.094566263113	2
7	6550	575356.331945975307	3
7	6558	575618.225467321157	4
7	6560	575735.290762610825	3
7	6574	576441.013049949339	2
7	6577	576652.309007428845	1
7	6584	576812.685384467221	2
7	6589	576999.582599916442	3
7	6598	577401.651480272846	2
7	6611	577809.71602596949	3
7	6627	578336.698545692477	4
7	6631	578479.576073515247	3
7	6635	578601.433068335509	4
7	6639	578800.841625061794	3
7	6642	578805.947512851464	2
7	6668	579596.821817153026	3
7	6673	579656.289748770842	4
7	6675	579768.484285677141	3
7	6684	580838.397613524115	2
7	6692	580964.817716981653	1
7	6697	581000.019747508292	0
7	6715	583476.502786131515	1
7	6718	583576.382924633462	0
7	6732	583977.02064851543	1
7	6743	584875.598985956986	2
7	6748	584992.163962550845	3
7	6757	585357.605219400498	4
7	6760	586593.830488154943	3
7	6774	587108.674471346685	4
7	6776	587117.016847909861	3
7	6781	587406.571240167942	2
7	6784	587608.649574972793	1
7	6796	588276.438493011838	0
7	6812	589807.253446722959	1
7	6817	589878.987555977465	2
7	6821	590107.991928022969	1
7	6824	590635.730881207367	0
7	6828	590767.959065476288	1
7	6858	592800.705147054249	2
7	6860	593450.990503993867	1
7	6870	596690.196377811446	0
7	6889	598787.471803461605	1
7	6894	599105.229360749565	2
7	6904	602929.924239886369	3
7	6912	603851.140188186159	2
7	6915	603920.637152789319	1
7	6919	604116.275245229303	2
7	6932	605125.03175227523	1
7	6950	607344.484301937768	2
7	6956	607732.136755019233	3
7	6958	607742.741974023335	2
7	6963	607922.911854112783	1
7	6979	609544.234307154657	2
7	6984	609586.74219136858	3
7	7000	610466.449209597428	4
7	7006	610619.760861727942	5
7	7008	610895.243075416233	4
7	7016	611144.589889754155	3
7	7021	611191.52826336973	2
7	7032	611685.178416459125	1
7	7047	612402.44655098706	2
7	7055	613499.546845267491	3
7	7058	613844.582624846684	2
7	7067	615068.775836700126	1
7	7081	615780.801264006548	0
7	7091	617118.150085426779	1
7	7099	617444.539169934855	2
7	7104	617515.215820238964	3
7	7109	617633.584114104218	4
7	7113	617881.156041747238	3
7	7122	618167.438593311813	2
7	7134	618429.412571875543	3
7	7147	618945.011529502995	4
7	7149	619215.088889039175	3
7	7164	619696.33711577919	4
7	7166	620447.145133234606	3
7	7181	621217.518385455775	4
7	7183	621688.956662015871	3
7	7191	622229.924513597964	2
7	7210	624270.233429798141	3
7	7215	624547.192356596193	4
7	7217	624632.574604424429	3
7	7225	625177.803229755571	2
7	7242	625604.927737789745	1
7	7246	625744.924510717788	2
7	7253	626022.49012868645	1
7	7257	626080.657410138943	2
7	7261	626096.853236869999	1
7	7265	626185.814125960753	2
7	7278	626888.593745855196	3
7	7291	628339.899217358018	2
7	7300	629260.915180395875	1
7	7308	629419.639920364475	0
7	7324	632375.481650024374	1
7	7333	633401.973757518405	2
7	7341	633932.426158513114	3
7	7344	634723.836113911819	2
7	7360	635342.304368090377	1
7	7364	635353.578830483062	2
7	7369	635540.869268497893	3
7	7383	636275.559007108829	4
7	7385	637152.740500291854	3
7	7390	637176.348484707418	2
7	7402	637950.099728083141	1
7	7410	638380.226666207473	0
7	7425	639000.58557806923	1
7	7430	643841.125306372808	0
7	7446	647065.771769793327	1
7	7448	647297.560741841299	0
7	7463	648682.997264711875	1
7	7472	649549.519961176578	2
7	7474	649649.858218132839	1
7	7488	650373.056408129741	2
7	7490	650559.782216945974	1
7	7498	650874.722048611398	0
7	7511	651295.085142174194	1
7	7515	651303.03845499337	0
7	7519	651639.623370202983	1
7	7538	653616.372181004771	2
7	7550	654499.090920157981	3
7	7555	654628.106612266819	4
7	7563	655224.871618970356	5
7	7565	655236.44788820087	4
7	7570	655325.870758034736	3
7	7582	655805.847767059731	2
7	7597	657984.333587163171	3
7	7605	658443.316909804022	4
7	7608	658848.971825855183	3
7	7625	659656.17664736068	4
7	7630	659707.140838646052	5
7	7632	659757.95430227091	4
7	7647	660525.486705768921	5
7	7659	661692.111204250804	6
7	7664	661846.987889096214	7
7	7666	662126.525187581644	6
7	7674	662614.543315252395	5
7	7682	662955.520862123444	4
7	7688	663011.743550720865	3
7	7699	664106.234775811834	2
7	7713	664699.229637318885	1
7	7717	664764.793816273719	2
7	7721	665266.84581252884	1
7	7742	666509.285171436134	2
7	7746	666698.516164884997	1
7	7750	666715.73629238882	2
7	7764	668536.462959862605	3
7	7773	670176.443325178897	4
7	7781	670465.955723099054	5
7	7785	672463.682112530012	4
7	7790	672466.140001516103	3
7	7793	672497.726802059989	2
7	7801	672886.378214710414	1
7	7824	673773.309632029889	2
7	7826	673889.871518393282	1
7	7834	674374.693100080561	0
7	7843	674868.918976715363	1
7	7857	675643.694177723517	2
7	7860	677885.972235482981	1
7	7881	679185.653898208528	2
7	7886	679284.386371369356	3
7	7892	679561.442805348806	4
7	7894	679841.550594978798	3
7	7908	680883.904101730968	4
7	7911	681850.047797575575	3
7	7916	682210.736466839985	2
7	7925	682523.977998146015	1
7	7936	683877.226734895185	0
7	7951	684281.836162966391	1
7	7959	685341.220739639469	2
7	7968	685790.307207902466	3
7	7970	686623.105145379558	2
7	7979	688071.335696437541	1
7	7988	688821.913042207816	0
7	8003	690462.564578255101	1
7	8011	691122.054114096537	2
7	8013	691181.196697341839	1
7	8018	691426.807066320549	0
7	8036	692438.555584133001	1
7	8038	692806.923057768828	0
7	8054	695741.01400123683	1
7	8063	696184.679381660994	2
7	8071	696982.272876863126	3
7	8074	697831.60005930117	2
7	8088	700323.347576435086	1
7	8096	700691.848774703909	2
7	8101	700821.493774976184	3
7	8108	701566.102801617207	2
7	8122	701975.432821734923	3
7	8130	702249.678616375296	2
7	8137	702870.298502331011	3
7	8142	703060.406653602715	4
7	8149	703159.544459198974	3
7	8152	703400.170874463431	2
7	8162	704212.098076687611	3
7	8166	704360.866479315674	2
7	8183	705986.083755889062	1
7	8198	706515.908091404246	2
7	8206	707278.889169902457	3
7	8208	707301.782387389186	2
7	8222	707506.153193496193	3
7	8224	707555.121694879377	2
7	8233	708815.532353775827	1
7	8247	709128.393465087331	2
7	8250	709858.491161023844	1
7	8266	713162.701450613809	2
7	8268	713934.744353628147	1
7	8292	718837.599773711307	2
7	8297	718936.538769975483	3
7	8302	719045.822548059218	4
7	8304	719181.240753167371	3
7	8312	719236.404181174435	2
7	8321	720024.584416538836	1
7	8339	721513.364374772958	2
7	8344	721772.118199169745	3
7	8352	721851.404692631505	4
7	8360	722068.672002666602	5
7	8362	722324.610292167078	4
7	8377	724120.816212072959	5
7	8386	724877.838312430985	6
7	8394	725695.690589587107	7
7	8396	725763.748251821509	6
7	8405	726036.416793857624	5
7	8413	726657.305272206594	4
7	8418	726766.127118334311	3
7	8430	727524.289555197403	2
7	8438	727975.713131551951	1
7	8443	728020.777242301959	0
7	8464	729400.157016399839	1
7	8469	729499.360119359927	2
7	8478	730680.883828566159	3
7	8480	730913.574170980953	2
7	8488	731655.210218954224	1
7	8502	732986.342708189555	0
7	8509	733131.695646275846	1
7	8515	733570.228055729221	2
7	8528	734724.649609511629	3
7	8531	735280.387115748222	2
7	8540	737889.744588834808	1
7	8556	739508.662305880171	2
7	8564	739547.698935943931	3
7	8572	739751.231080552983	4
7	8574	739933.812081623207	3
7	8589	741075.1151606429	4
7	8591	741120.416796230393	3
7	8599	741304.826681950962	2
7	8607	741771.208121615749	1
7	8622	743257.37578472403	2
7	8630	744006.451856311266	1
7	8634	744045.969165781899	2
7	8641	744194.135634942302	1
7	8657	744865.502586287205	0
7	8661	744979.923200631545	1
7	8667	745738.211838932692	2
7	8674	746542.190962652468	1
7	8684	749148.20128767707	0
7	8702	754964.615741430257	1
7	8704	755847.425185297099	0
7	8719	756343.296201023113	1
7	8727	756557.169523705647	2
7	8729	756864.424261408334	1
7	8743	757496.141175432971	2
7	8746	758039.415302034532	1
7	8761	759484.864667640524	2
7	8763	759818.047609993437	1
7	8778	761064.454151607779	2
7	8786	761801.783871386236	3
7	8789	762304.482120023649	2
7	8803	763006.040727800319	3
7	8811	763444.914813223779	4
7	8814	764072.299722967579	3
7	8822	764630.981293311399	2
7	8831	766440.233663125687	1
7	8849	767060.880663606375	2
7	8854	767217.498716598867	3
7	8862	768103.324663492513	2
7	8866	768155.710717158173	3
7	8870	768573.405764285969	2
7	8881	768703.645435028453	1
7	8894	770205.8094864419	2
7	8899	770246.399894137055	3
7	8906	770664.678271023104	2
7	8920	771028.548135419865	1
7	8924	771460.17852743614	2
7	8936	772077.749835616272	1
7	8939	772202.490006447826	0
7	8943	772320.036144002271	1
7	8962	773199.865924276729	2
7	8970	773501.384075564597	3
7	8979	774365.566458116029	4
7	8990	775153.189063374971	5
7	8995	775166.980397235645	6
7	8998	776042.326563423352	5
7	9006	776303.375438517394	4
7	9014	776655.001393604568	3
7	9019	776764.800864131509	2
7	9037	777281.771073926015	3
7	9040	778542.755013419232	2
7	9048	778937.172639853637	1
7	9057	779492.992153731715	2
7	9071	780030.748035157601	3
7	9073	780374.278402799359	2
7	9081	780423.057420470082	1
7	9096	781936.885364809502	2
7	9098	782408.313174830135	1
7	9115	784153.163962948689	0
7	9122	784400.231252977836	1
7	9128	784594.030584609095	2
7	9133	784673.452377100878	3
7	9146	785398.037654289907	4
7	9149	787429.494979026934	3
7	9159	789337.480732150136	2
7	9176	789863.189590113407	3
7	9180	789922.075751925713	2
7	9190	790474.047565907855	3
7	9196	791193.060299123641	4
7	9205	792146.02827534408	5
7	9209	792155.164687903194	4
7	9213	792415.147110631538	5
7	9222	792608.490967082224	4
7	9239	793594.825057457976	3
7	9243	794008.872366443576	4
7	9251	796081.291814368901	3
7	9259	796346.593610205574	2
7	9275	798128.538561209161	3
7	9277	798133.978913026402	2
7	9285	798238.530572740275	1
7	9293	799046.355554106204	0
7	9311	804663.816803867824	1
7	9320	806048.120146488624	2
7	9322	806477.479971758614	1
7	9338	809919.012938723545	2
7	9341	810501.692569906315	1
7	9357	813652.305262259292	2
7	9360	815113.062132438564	1
7	9375	816190.62400868355	2
7	9382	816263.008440894798	1
7	9386	817259.283761585754	2
7	9393	817387.947596810038	1
7	9409	819519.207041368319	2
7	9418	821507.055665648848	3
7	9420	821782.534571735432	2
7	9429	823005.213276106828	1
7	9444	824183.831092856223	2
7	9447	826157.908005123407	1
7	9462	827260.236430101834	2
7	9469	827553.908002744499	1
7	9473	827556.320601198716	2
7	9480	827915.451250702633	1
7	9494	828116.402678700829	0
7	9498	828767.886793772449	1
7	9511	828970.411211164516	2
7	9513	829483.177889107183	1
7	9522	829973.207769583279	0
7	9536	830689.195686012019	1
7	9538	830969.425337869255	0
7	9554	833722.14596724929	1
7	9556	833852.108444075203	0
7	9571	834625.279164722339	1
7	9580	835628.749861979461	2
7	9582	835673.900070465194	1
7	9601	836463.259810476128	0
7	9605	836492.201865116686	1
7	9610	836654.151771395597	2
7	9621	837083.073278489847	1
7	9625	837179.492739583574	2
7	9630	837303.087271599709	3
7	9635	837749.224758853083	4
7	9639	838092.864050872614	3
7	9663	840405.809570483239	4
7	9665	840464.992803682005	3
7	9679	840912.990622154343	4
7	9681	841400.27024393817	3
7	9690	842063.409621080114	2
7	9698	842837.948813676886	1
7	9708	844763.892297242535	0
7	9722	845747.044398987258	1
7	9731	846819.084083599662	2
7	9734	847511.89403018347	1
7	9742	848183.014961302649	0
7	9757	849017.36331725715	1
7	9759	850325.164988423743	0
7	9774	851234.567955917968	1
7	9782	851849.98564047821	2
7	9790	852472.545044080556	1
7	9794	852473.197839797911	2
7	9806	853410.422478180026	1
7	9811	853698.088728363142	2
7	9815	854056.071148406089	1
7	9833	855588.795987920526	2
7	9841	855820.993561369562	3
7	9844	857514.221293021161	2
7	9853	858431.305246569034	1
7	9870	859250.566533090806	2
7	9878	859488.080889848756	3
7	9884	859590.040048237228	4
7	9886	860271.906201912003	3
7	9895	862053.642553837754	2
7	9900	862469.201794422278	1
7	9909	862896.897939622898	0
7	9921	863467.964324735225	1
7	9929	864408.514758173122	0
7	9949	865023.197228632248	1
7	9954	865078.527592742629	2
7	9960	865920.750432659083	3
7	9962	865950.934642020393	2
7	9977	867469.922414415707	3
7	9979	867775.634544148337	2
7	9997	869426.141329119109	3
7	10002	869526.033425026319	4
7	10005	870278.996034765228	3
7	10010	870403.456697253969	2
7	10021	871210.25743007384	1
7	10029	871646.166340470815	2
7	10034	871671.037471463743	3
7	10053	873994.031671927405	4
7	10062	874737.113687050809	5
7	10064	875063.96316297167	4
7	10073	876788.795804326157	3
7	10082	877555.620830610071	2
7	10087	877658.130928959041	1
7	10106	880771.402967441974	2
7	10108	881498.232387339317	1
7	10116	881982.574797024776	0
7	10132	883913.534039818299	1
7	10140	884627.026427552534	2
7	10149	886236.334553276151	3
7	10158	887526.552507244047	4
7	10161	888635.812357378934	3
7	10166	888653.630442794814	2
7	10183	889026.990964330092	3
7	10192	889827.214878948718	4
7	10194	889926.562533519382	3
7	10203	891439.345940412566	2
7	10217	891756.095995686085	3
7	10225	892721.091380627551	2
7	10229	893091.551092950501	3
7	10243	894222.592579036537	4
7	10245	894875.836929993581	3
7	10263	895972.676460506649	4
7	10268	896779.198800065736	5
7	10270	896856.526033996581	4
7	10279	897250.129326641678	3
7	10284	897422.083425204095	2
7	10301	897969.166302254957	3
7	10304	899501.09708942954	2
7	10319	901065.373416672094	3
7	10323	903594.996400749797	2
7	10332	905180.205061855888	1
7	10350	906595.988223576666	2
7	10355	906879.621295323276	3
7	10357	907499.468342485601	2
7	10366	907692.691015736074	1
7	10383	908595.066850285	2
7	10388	908832.993284383829	3
7	10390	908986.354691800991	2
7	10399	909615.688101970829	1
7	10413	909858.025940643101	2
7	10415	909938.108932967779	1
7	10424	910661.160614240402	0
7	10439	912985.802337905889	1
7	10448	913724.612163164636	2
7	10455	914296.911255069268	1
7	10459	914547.74174288505	2
7	10473	915225.771212678431	3
7	10481	915375.997967570567	4
7	10493	916653.912647314333	5
7	10498	916865.092673814758	6
7	10500	916873.087414704145	5
7	10508	917731.460872433713	4
7	10514	918069.931210804076	3
7	10525	918501.963499149253	2
7	10539	920773.370144995808	1
7	10543	921448.811543899465	0
7	10547	921492.984526968318	1
7	10568	922206.302841559193	2
7	10579	922999.135062118719	1
7	10586	923172.725969446929	2
7	10591	923183.706884560181	3
7	10595	923372.849201280074	2
7	10599	923412.376038781148	3
7	10604	923830.752238349112	4
7	10620	924544.015497269241	3
7	10624	924748.569724168506	4
7	10629	924771.433174026823	5
7	10641	925257.794453245659	4
7	10645	925403.655813644307	5
7	10649	925480.692160658355	4
7	10671	926344.753426710867	3
7	10675	926346.425224832587	4
7	10682	926574.396675166359	3
7	10687	926940.345497705638	2
7	10708	927899.168659359014	3
7	10713	927999.249784602286	4
7	10721	928337.416853081661	5
7	10724	929050.254474681016	4
7	10729	929577.438636517909	3
7	10742	931672.359359882058	2
7	10750	932370.309069866057	1
7	10758	932848.448472116449	0
7	10773	933576.948820106873	1
7	10782	934623.017527383759	2
7	10784	934936.559429331374	1
7	10789	935177.768736266946	0
7	10807	936783.53728341436	1
7	10816	938649.652622826292	2
7	10819	939084.373611152577	1
7	10833	939592.39900756565	2
7	10837	942247.56777098112	1
7	10851	942860.345492527955	2
7	10863	944005.02600264428	3
7	10868	944017.565643291869	4
7	10870	944038.214673750126	3
7	10878	944208.875212219677	2
7	10893	945115.013318424089	3
7	10895	945644.733896594228	2
7	10910	947016.721340274253	3
7	10918	947583.368299237343	4
7	10921	948294.000475977786	3
7	10929	948336.313155541301	2
7	10937	949167.539396947788	1
7	10952	949739.903520386918	2
7	10954	950263.049673848783	1
