file 171892 1483968271                                          
version 2
run QueueMeasurement-120-20170109-14:24:31-6856
attr configname QueueMeasurement
attr datetime 20170109-14:24:31
attr experiment QueueMeasurement
attr inifile queueStudy.ini
attr iterationvars ""
attr iterationvars2 $repetition=120
attr measurement ""
attr network controltower.SimNetwork
attr processid 6856
attr repetition 120
attr replication #120
attr resultdir results
attr runnumber 120
attr seedset 120
param SimNetwork.a.parkingLot.parkingDelay exponential(45min)
param SimNetwork.a.runway.landingTime exponential(5min)
param SimNetwork.a.runway.takeoffTime exponential(5min)
param SimNetwork.a.runway.throughputCheckInterval 25min
param SimNetwork.wg.interArrivalTime exponential(25min)

vector 5  SimNetwork.a.runway  landedThroughput:vector  ETV
attr source  landedThroughputSignal
vector 6  SimNetwork.a.runway  tookoffThroughput:vector  ETV
attr source  tookoffThroughputSignal
vector 7  SimNetwork.a.parkingLot  parkingOccupancy:vector  ETV
attr source  parkingOccupancy
vector 4  SimNetwork.a.takeoffQueue  queueLength:vector  ETV
attr source  queueLengthSignal
vector 3  SimNetwork.a.takeoffQueue  queueTime:vector  ETV
attr source  queueTimeSignal
vector 0  SimNetwork.wg  responseTime:vector  ETV
attr source  responseTimeSignal
vector 2  SimNetwork.a.landingQueue  queueLength:vector  ETV
attr source  queueLengthSignal
vector 1  SimNetwork.a.landingQueue  queueTime:vector  ETV
attr source  queueTimeSignal
0	1437 22850 820 9920 80557.706966164044 949693.149083342139 535 810.91582226217 21249.44902934 2928832.6358672 21622666250.688
1	24287 17878 859 9884 83540.012906572687 948080.143466334879 531 0 1878.9922347406 73557.818023096 53270201.727378
2	42165 30667 857 9884 83540.012906572687 948080.143466334879 1062 0 4 631 783
3	72832 18874 817 9917 80451.826966669611 949510.314962956869 535 0 5494.3616492889 154422.59076515 221605496.96519
4	91706 30881 815 9917 80451.826966669611 949510.314962956869 1070 0 5 757 1159
5	122587 9268 813 9913 79500 949500 581 0 5 532 1008
6	131855 9268 813 9913 79500 949500 581 0 6 533 1121
7	141123 30769 814 9910 80451.826966669611 949234.430318209758 1066 0 8 2461 8117
