version 2
run QueueMeasurement-56-20170109-14:23:57-6792
attr configname QueueMeasurement
attr datetime 20170109-14:23:57
attr experiment QueueMeasurement
attr inifile queueStudy.ini
attr iterationvars ""
attr iterationvars2 $repetition=56
attr measurement ""
attr network controltower.SimNetwork
attr processid 6792
attr repetition 56
attr replication #56
attr resultdir results
attr runnumber 56
attr seedset 56
param SimNetwork.a.parkingLot.parkingDelay exponential(45min)
param SimNetwork.a.runway.landingTime exponential(5min)
param SimNetwork.a.runway.takeoffTime exponential(5min)
param SimNetwork.a.runway.throughputCheckInterval 25min
param SimNetwork.wg.interArrivalTime exponential(25min)

statistic SimNetwork.wg 	responseTime:stats
field count 580
field mean 5130.8035351754
field stddev 3132.322451418
field sum 2975866.0504017
field sqrsum 20949410092.671
field min 381.92779591677
field max 19896.886172286
attr source  responseTimeSignal
scalar SimNetwork.a.landingQueue 	queueLength:timeavg 	0.081367811017999
attr source  queueLengthSignal
statistic SimNetwork.a.landingQueue 	queueLength:stats
field count 1160
field mean 0.56896551724138
field stddev 0.58488493490229
field sum 660
field sqrsum 772
field min 0
field max 4
attr source  queueLengthSignal
statistic SimNetwork.a.landingQueue 	queueTime:stats
field count 580
field mean 122.19852428554
field stddev 296.82673747007
field sum 70875.144085613
field sqrsum 59674276.908442
field min 0
field max 2790.849040565
attr source  queueTimeSignal
scalar SimNetwork.a.takeoffQueue 	queueLength:timeavg 	0.1148920118194
attr source  queueLengthSignal
statistic SimNetwork.a.takeoffQueue 	queueLength:stats
field count 1160
field mean 0.6051724137931
field stddev 0.62667822348243
field sum 702
field sqrsum 880
field min 0
field max 4
attr source  queueLengthSignal
statistic SimNetwork.a.takeoffQueue 	queueTime:stats
field count 580
field mean 172.30930095955
field stddev 378.02362628204
field sum 99939.394556541
field sqrsum 99960665.328235
field min 0
field max 3181.7600646681
attr source  queueTimeSignal
scalar SimNetwork.a.parkingLot 	parkingOccupancy:timeavg 	1.8356966902089
attr source  parkingOccupancy
statistic SimNetwork.a.parkingLot 	parkingOccupancy:stats
field count 1160
field mean 2.2775862068966
field stddev 1.3494693429868
field sum 2642
field sqrsum 8128
field min 0
field max 7
attr source  parkingOccupancy
