version 2
run QueueMeasurement-70-20170109-14:24:05-6806
attr configname QueueMeasurement
attr datetime 20170109-14:24:05
attr experiment QueueMeasurement
attr inifile queueStudy.ini
attr iterationvars ""
attr iterationvars2 $repetition=70
attr measurement ""
attr network controltower.SimNetwork
attr processid 6806
attr repetition 70
attr replication #70
attr resultdir results
attr runnumber 70
attr seedset 70
param SimNetwork.a.parkingLot.parkingDelay exponential(45min)
param SimNetwork.a.runway.landingTime exponential(5min)
param SimNetwork.a.runway.takeoffTime exponential(5min)
param SimNetwork.a.runway.throughputCheckInterval 25min
param SimNetwork.wg.interArrivalTime exponential(25min)

vector 7  SimNetwork.a.parkingLot  parkingOccupancy:vector  ETV
attr source  parkingOccupancy
vector 5  SimNetwork.a.runway  landedThroughput:vector  ETV
attr source  landedThroughputSignal
vector 6  SimNetwork.a.runway  tookoffThroughput:vector  ETV
attr source  tookoffThroughputSignal
vector 2  SimNetwork.a.landingQueue  queueLength:vector  ETV
attr source  queueLengthSignal
vector 1  SimNetwork.a.landingQueue  queueTime:vector  ETV
attr source  queueTimeSignal
vector 4  SimNetwork.a.takeoffQueue  queueLength:vector  ETV
attr source  queueLengthSignal
vector 3  SimNetwork.a.takeoffQueue  queueTime:vector  ETV
attr source  queueTimeSignal
vector 0  SimNetwork.wg  responseTime:vector  ETV
attr source  responseTimeSignal
0	817	83633.92503907387	2364.6995276694
0	825	83867.10488104525	2472.7191007153
0	838	83995.465826170029	4818.3362449522
0	860	87173.38778227944	12105.359058612
0	865	87186.833039576006	4586.4214633167
0	873	87279.572785787637	3638.4486399935
0	899	91466.774213990945	5077.2104727659
0	909	93902.860223877632	4400.3732328111
0	962	100869.161302782101	3860.1381736586
0	976	101868.716658147853	11615.937215292
0	1011	103094.547225420922	1055.5486680496
0	1023	103731.579477037642	4804.926651593
0	1031	104228.675720678776	9307.2703855056
0	1036	104592.665764145676	2900.6887911371
0	1048	105364.978607777362	6997.8440656389
0	1056	105887.967167293976	4159.1160811224
0	1069	106190.813089517702	3493.0025022764
0	1097	111946.623274825745	6093.3860975513
0	1130	113582.239068166694	14004.758826256
0	1139	114218.202541135236	3277.8036290146
0	1147	115309.408737352642	5471.1180666143
0	1156	115855.720030670376	3232.1343576358
0	1181	117107.973751823785	5023.0062405431
0	1191	120286.560115622198	4037.5145759058
0	1199	120525.133036572661	7368.119237731
0	1228	123305.554916749879	6775.5954479539
0	1241	123830.677982570253	2616.6499228255
0	1251	127371.345972102469	6100.3914548955
0	1268	128027.208161032039	4788.7952767152
0	1329	136035.796573429173	1838.2684349085
0	1346	137470.330752537419	3827.5001339257
0	1363	138807.527323176912	2374.9534879075
0	1374	139159.498913533189	7207.1170977785
0	1379	139320.510514203972	4603.6179167645
0	1388	139532.004466395976	7800.1909370089
0	1417	142528.243757301608	4542.0794807302
0	1422	143206.141015961045	11205.82397313
0	1447	144069.777667758177	556.43050251962
0	1458	145355.398686856699	4045.8333798953
0	1464	145752.4433346251	3636.2827296316
0	1480	146700.133195892808	3004.0737363295
0	1497	148324.874041949501	1880.1147966195
0	1506	148626.188222720021	20996.462220816
0	1543	151691.872883082426	1626.5649263617
0	1548	151725.529215295551	3702.3015873015
0	1565	154498.226328866182	3398.1407709909
0	1574	155884.510968881024	6211.3749187084
0	1609	160398.448964726284	7121.5697958104
0	1618	160779.603082579771	4319.8487200222
0	1634	161930.414177695977	2947.2308444114
0	1659	163146.857979200112	1190.8182861274
0	1668	164060.269301006001	3055.5828678869
0	1686	166540.978632407215	9757.0924537429
0	1711	168103.172897626055	2483.2665425125
0	1727	168996.474192271185	2433.3693224022
0	1735	169138.392253317386	6509.3440562304
0	1743	169406.024253794968	2491.6257327608
0	1787	174739.236450247064	4885.3434607441
0	1798	175442.694533371571	7146.5432719134
0	1820	176406.596138302165	4413.4162056206
0	1828	176865.458278449609	1443.2352896158
0	1837	177232.829764104499	3993.6078641812
0	1846	178836.285196646158	5210.202794679
0	1889	183975.615784774317	3815.6220740134
0	1897	184059.883750100015	3163.7211901239
0	1912	185612.396326321208	4759.3333588359
0	1965	188142.798138174354	12679.29069562
0	1985	189798.393016174003	4209.2983440451
0	1995	190119.098734903966	9049.4343312331
0	2003	190379.905849413403	4636.1479212372
0	2009	190526.576135109876	4312.6561307939
0	2014	190586.942144587018	2509.1257609284
0	2022	190926.210814769932	4329.5462041644
0	2032	193544.076190970754	6439.6913149261
0	2086	198235.237475562566	2976.8089886007
0	2091	198477.599643678207	8998.655232393
0	2102	198940.154499224644	2561.2364941977
0	2127	200093.91659351831	3712.3348755167
0	2140	200579.129732869949	1670.1115501851
0	2149	201054.949610342529	1719.4030615891
0	2161	203243.544444683128	6676.3717579893
0	2208	206488.306301750891	1404.9845163336
0	2225	207250.99493026218	1799.6211738595
0	2250	209713.018758052538	7013.9133387136
0	2262	210129.442895386281	4926.8314526465
0	2270	210176.014400196662	3452.0315731625
0	2281	210501.601403987537	14875.708438386
0	2299	211033.192255780274	1997.7497527659
0	2307	211137.38356624273	919.28078443983
0	2333	213261.153812890605	9607.1576610797
0	2349	214250.297002317042	2524.9863123372
0	2361	215471.603816355962	5071.8331264307
0	2366	215967.554447249248	4228.3653309266
0	2375	217014.08483810314	16970.388124693
0	2393	218585.292558881635	9266.9007461826
0	2425	220384.185499229181	1906.2256086641
0	2434	220768.574515369907	3145.1173910533
0	2442	221206.967086230412	7689.8305842609
0	2451	222144.970611473251	3985.8889181458
0	2477	225343.289389389805	1656.5860194856
0	2485	225898.046106715927	6615.5805154082
0	2530	228737.453169248414	1956.012781645
0	2535	228739.124046687641	1507.6714286034
0	2552	229720.198843843342	2468.4693191933
0	2561	231322.474841754284	4677.5601676254
0	2601	234910.179587527074	10369.689346674
0	2606	235200.422993371365	3663.9639657963
0	2612	235646.208217278216	3631.0958661718
0	2639	240000.178243849109	2051.4239735503
0	2647	240519.363509581706	11400.722061592
0	2659	241608.590621480816	8638.3564239583
0	2702	246440.35012642754	3165.6651705243
0	2707	246640.451201886161	5638.9750070518
0	2717	249526.752278620068	6686.5474098539
0	2777	253839.67594764989	9213.4277167067
0	2782	254319.568361337937	4694.71339572
0	2787	254356.954607110184	4415.347650125
0	2792	254554.207870696541	16429.314157232
0	2837	256674.05942239945	5411.2942964445
0	2858	257369.276439328394	1694.6549541633
0	2870	258159.478785815138	1529.2422610475
0	2878	259439.760777293934	3653.9418542795
0	2884	259528.64698056155	8164.0236385108
0	2909	261954.350332532048	6341.1796426188
0	2917	262291.96509120585	5573.7872729318
0	2937	263513.74212218898	8177.2985208855
0	2953	263896.417817733416	4270.39205829
0	2970	264592.301952047028	4013.0095587386
0	2975	265033.907699833631	1536.6662944264
0	2984	265813.094658150648	2475.9910080184
0	3017	267489.752355828204	3646.6934060894
0	3025	267897.226500303389	18186.749921841
0	3034	269352.94709125891	2878.4692219544
0	3070	271230.125087751581	4163.1585542637
0	3076	271599.968820831167	4544.5245908771
0	3084	272526.888061053911	2626.0130320962
0	3110	274866.328971261444	5479.6004651027
0	3135	277288.489908585552	3694.2774819687
0	3144	277941.118185027358	4651.0334147139
0	3171	282176.168317205871	3101.7781678078
0	3187	283496.742060500061	2740.5841942975
0	3196	284025.154694547591	13997.467548748
0	3213	285638.987082689606	9712.6950285777
0	3238	287577.241752311377	1335.0886210559
0	3255	288228.54434627433	11387.867237211
0	3271	288832.252413604759	3918.2946440536
0	3287	289373.527793886659	2749.4602879358
0	3296	290492.242720562229	2602.4288103094
0	3307	290929.344083693633	2199.6213703482
0	3313	291345.464844624287	8655.3703276019
0	3339	294122.468966623709	1231.9653604692
0	3364	295608.307329494513	6672.7911890652
0	3400	298393.397873451979	3901.4314080156
0	3409	298955.586044237381	4075.5226250621
0	3422	299580.780030357251	6342.0902994353
0	3467	302370.701831936741	2238.9818495527
0	3475	302624.885817696885	5506.4004319224
0	3506	303194.151064556976	6438.7604580609
0	3516	303567.295910083168	4664.7544101798
0	3521	303616.773999504221	2666.1472177409
0	3530	304619.948715938002	2215.9424934918
0	3544	305213.906506385174	8383.0425722051
0	3554	305696.730207388625	2787.7459266223
0	3575	307759.654330199643	7352.5164808479
0	3580	308055.150762326357	4926.1122853898
0	3590	311544.887050648824	10338.181451251
0	3616	313700.777223287041	8668.3301520429
0	3649	316127.926263811033	2573.0819551664
0	3666	317996.099419092509	4810.3906174137
0	3675	318476.615384535098	3241.2845296476
0	3692	320529.155760877062	4774.621208777
0	3700	320815.008457501199	4158.2759361216
0	3725	322047.360272908606	3320.1959538003
0	3734	322582.210575614175	1692.3639563016
0	3762	324599.037223319671	10375.989348187
0	3795	325520.509031700134	4215.8646390896
0	3800	326034.805953546707	2814.7471879268
0	3808	326424.091867441483	2890.1080255202
0	3820	327360.339623886667	20721.212852725
0	3825	328286.394520279442	3715.1296845195
0	3843	330406.974589282231	5611.0573892407
0	3876	332594.915356578995	7466.3107178894
0	3885	333377.900002756694	4088.5424319019
0	3896	334269.704094002162	2625.1731682961
0	3907	334414.730131692416	3745.9271428124
0	3926	335948.467121725874	1655.9868947346
0	3935	336239.584107351052	3963.3849766888
0	3985	339785.524615986943	2103.1778864481
0	4021	341624.537306669708	3253.4295836834
0	4037	341849.499563131473	4616.879585473
0	4049	342159.024572833449	1530.4088412185
0	4060	342781.688474629947	4259.1228850511
0	4073	343234.04870676998	6426.27569219
0	4078	343314.250141393477	8991.8584325311
0	4084	343552.895326339916	2496.4165808683
0	4096	345744.152418180858	4846.3751510026
0	4126	347843.376225578397	2925.8388826671
0	4146	348684.767311538798	7111.2181172643
0	4159	349119.147052267069	2548.1226310116
0	4169	351416.557183655573	5112.756164744
0	4177	352002.084224872159	9554.2497629983
0	4215	356049.703390916567	2477.1209550183
0	4220	356543.889140494323	7932.3825571651
0	4228	356719.296111729496	2187.6594902854
0	4246	358892.210900467637	10913.830804021
0	4266	360573.20911024131	2943.4455514467
0	4305	363742.213702337969	8613.8819885714
0	4313	364406.361566619425	2057.0830687085
0	4330	365107.287075465431	5260.6161524112
0	4341	365701.151244091588	5488.626769061
0	4357	369732.490879563211	6899.5062443653
0	4365	370001.959474711662	9164.9605730722
0	4402	373213.164564100477	7543.5476063783
0	4413	373445.672885485601	8928.5343596644
0	4424	373599.295138133458	2553.2283537868
0	4432	374814.85183494463	2005.6629186454
0	4453	377324.966713237332	3970.5654260718
0	4458	377461.212914921977	5963.2058657762
0	4504	386625.661900807772	5129.7948456217
0	4524	387413.470938389448	2194.0078874965
0	4529	387581.596047377485	11666.586527502
0	4549	389957.887866346409	8533.0573195905
0	4558	390038.513624812787	7394.2138930739
0	4580	392121.60839812002	2088.2477309114
0	4613	393980.284961089863	5433.7845143281
0	4632	396293.653184787956	3626.6603361431
0	4637	396484.614593022175	3956.6010958299
0	4642	396937.200549170521	10233.09273486
0	4648	397627.145284508623	6607.6492714757
0	4666	401631.943355584452	8610.2490783089
0	4696	405370.971448924172	4537.8940134356
0	4701	405396.666298219478	3681.4982192012
0	4736	409789.865619051264	2151.4333904447
0	4744	410344.505970583289	3441.0317314927
0	4762	413438.97415015533	4924.4020482844
0	4770	413818.424177916918	11759.465602797
0	4792	417791.395618292531	5151.5301113783
0	4805	418290.980861302838	3125.6537479401
0	4867	422258.322252986388	3310.102307531
0	4872	422604.873181009731	1051.6751716413
0	4884	423883.950976206427	4172.7328122558
0	4890	424689.113748624957	4246.3853700004
0	4898	424841.316478155646	3954.7634291595
0	4940	428244.604399077651	11616.674453598
0	4966	429904.562819923344	8204.6495270694
0	4971	430105.883250063656	3985.1907374538
0	4976	430166.871943923194	3487.648695054
0	4981	430196.865318220708	4351.9901351642
0	5010	432780.140705237001	6025.5104084541
0	5019	434055.511025238558	5210.1922326707
0	5024	434082.772788774927	2423.742736185
0	5041	435297.518881851016	3377.2609590325
0	5066	437524.522592650063	1470.0111868688
0	5074	437872.849700591759	3656.708775135
0	5108	440308.672197954642	2356.6440823989
0	5116	440903.149268334694	2553.9515848801
0	5125	441520.323346979117	5148.9896966364
0	5174	446247.619566572211	1425.7302479006
0	5194	447415.529889706818	3765.1684646674
0	5209	448285.990582338533	5477.677961588
0	5217	448403.515365940496	2427.4790786869
0	5229	449256.996138590817	9869.9364150403
0	5242	449864.493543412125	4378.7801802277
0	5251	450065.640348552641	3496.0618114871
0	5283	450913.314518972785	750.79596899573
0	5291	451168.944008424486	978.76873846465
0	5300	451843.026245155072	4715.058157056
0	5329	460014.366435250679	9819.5081542165
0	5338	461000.19603863229	11911.196617561
0	5348	463683.957701894874	7133.6237594044
0	5374	467797.946223283741	8400.6484792561
0	5395	469728.713997286903	3263.9666105903
0	5417	471976.243948990692	2924.9044753093
0	5443	474639.539481640997	4993.6907700654
0	5462	475386.987483685113	2807.8207174721
0	5468	475570.348015302936	10054.796819022
0	5476	476922.91872725189	4139.4373030846
0	5496	482155.542289359769	12372.880948215
0	5535	487894.811144959417	2094.3815132387
0	5540	487928.260741449282	4172.4835360854
0	5581	489751.866389879621	1811.2734713818
0	5596	490604.426363020628	1985.1864504589
0	5601	490702.117877380485	3593.6561455448
0	5606	491044.29235207773	10338.626406285
0	5623	492732.536044799608	4086.0145952246
0	5631	493166.311736804043	4596.2192276094
0	5640	494541.596287198744	19562.418387881
0	5670	503822.562009862625	1901.1684070671
0	5679	504093.362193039055	12081.344367563
0	5720	505911.79571023268	3704.7785905561
0	5731	506930.504411978578	2176.7348090866
0	5737	507048.654895007612	1971.7388660448
0	5745	508255.006733945781	3953.5550975796
0	5779	511009.547134291467	5431.8444059433
0	5808	513147.165421987501	2489.7191024655
0	5833	515638.672982103053	2609.6821197335
0	5847	516315.128893404893	2865.1555717061
0	5895	518657.781880971602	7341.7614866769
0	5901	519008.8636557703	2674.6004602888
0	5906	519756.127178233559	7483.223902915
0	5911	520449.06942925042	12006.925147025
0	5920	521219.66346143281	5667.261844122
0	5925	521463.464442602601	4397.7198913717
0	5930	521572.466590160851	12019.130072367
0	5958	527848.467862026477	10534.68598282
0	5983	528768.278480519486	4498.2088356349
0	6021	532837.004226447172	6452.5669810743
0	6026	533213.438818224782	4725.9329721522
0	6046	534045.7313940906	4007.4333883029
0	6051	534191.21596081341	3314.4420738227
0	6115	538043.226291341406	4431.0826695926
0	6120	538263.01427651965	10105.259814061
0	6135	539003.945601207022	3685.3446562476
0	6148	539544.192078476182	8243.8296238295
0	6153	539548.252151588556	2897.1103107756
0	6158	539568.324741904754	4280.1908484932
0	6167	540075.397968199409	3071.0730865229
0	6187	541701.820209114416	5030.9501311434
0	6200	542589.957868242491	7255.6414756787
0	6209	543411.381796692652	2557.500194804
0	6217	544431.904568874249	5899.2547884716
0	6246	547451.038796214639	5887.0016903447
0	6275	549180.396307870277	3599.4633757384
0	6293	550040.531812940574	2991.8985330652
0	6310	551462.022651097935	3349.4153258404
0	6318	551949.681167104525	3352.8187600683
0	6347	553752.99355472896	8297.0057660471
0	6355	554051.909876795786	5645.5203931912
0	6361	555116.352032682936	4608.1260421659
0	6369	555823.124903864699	3361.1174609027
0	6415	564509.351906313924	11957.854796488
0	6424	566985.936604058181	8494.1297642601
0	6443	570596.946354277381	8737.5775449641
0	6468	571653.596210398002	809.56872320574
0	6482	572789.478292460902	4508.3583344286
0	6501	573403.218137885422	10307.53424017
0	6512	574416.348708009798	1681.084552418
0	6526	575331.801926181571	13607.669043053
0	6535	576704.47142418559	5329.8819181057
0	6581	581359.241520933608	1971.5298992691
0	6603	583291.506781922668	10394.189543016
0	6611	583411.916364277451	2918.2197200029
0	6620	583891.335627255844	3912.6262830534
0	6631	584004.371363936559	5133.3961837594
0	6636	584605.939286450125	10351.641920588
0	6645	585081.308991583357	3814.1481744053
0	6662	586754.358639374663	4173.7962600835
0	6723	593580.745366741126	3692.3590262476
0	6729	594473.35046878372	7157.4040148685
0	6734	594611.778446935009	8975.3382435803
0	6742	595169.596086890519	3839.7089705954
0	6764	596492.407287365788	1595.5935928745
0	6772	596948.195945472258	7217.9069117424
0	6789	598380.206955398384	6166.8052402254
0	6823	600066.357750242769	1484.5803126533
0	6840	601083.782409800787	3663.456768947
0	6859	602169.430395863914	6455.0503025978
0	6864	602458.305412450675	3022.2857709935
0	6872	602870.230463632217	1932.1069771078
0	6898	605082.302058459674	2116.0830759762
0	6906	605385.32868430037	5892.978736934
0	6915	606841.511848543935	5738.986149727
0	6960	610054.3039459643	1601.1155846512
0	6965	610169.089597496711	6521.837730667
0	7042	618154.772672967285	10201.04406921
0	7055	618760.384657350835	3548.5224004438
0	7060	618871.679949527825	9482.9867017061
0	7065	619000.148355154401	4916.9920522468
0	7071	619734.056024159445	3565.6771317575
0	7076	620049.252888931611	4244.3192361265
0	7085	621904.242405811519	5226.8162192587
0	7134	626457.842913284838	3376.3914708593
0	7139	626484.941019384779	1124.3814727962
0	7144	626535.099668055351	10484.664452259
0	7161	627594.747048293737	19564.88925566
0	7179	630050.538594052565	4912.0988346458
0	7188	631595.931569237697	4154.1116127421
0	7196	632814.91889201104	6975.019730404
0	7205	633575.099406877771	15718.413093321
0	7245	636476.415799220806	8178.1247644865
0	7255	637021.668740048149	2794.7652983332
0	7287	639236.016395514289	2767.2238141132
0	7305	639998.936628290172	4572.0255375058
0	7316	640354.014310693118	2545.0505601011
0	7321	640380.19543414717	2961.3736293533
0	7330	641093.005069960112	2213.0307961755
0	7340	643739.328212516023	9689.8800347456
0	7368	649989.950908329287	4333.1787489308
0	7393	651458.722592840999	2881.2812567535
0	7402	652718.23041679782	2002.9101209985
0	7432	657690.632559757335	18468.2844863
0	7440	658183.902204281546	1832.2572475686
0	7446	658620.996931327772	7712.242558869
0	7499	661932.44949231941	5172.8609395287
0	7504	662259.593232200446	2059.6320858057
0	7512	662718.915911624085	2022.8558140455
0	7538	664529.188969836367	3800.3627223942
0	7547	667111.794926731669	7731.9837653195
0	7556	668406.103375378964	4965.4367798459
0	7582	670512.076971856708	9163.7540973878
0	7598	671640.440419748301	2940.1244885457
0	7623	673076.055437422417	9502.4349887691
0	7631	673377.535614568962	1887.3952344133
0	7648	674502.617267243437	4721.786781561
0	7656	674916.550328937934	2561.2093801847
0	7668	675394.546214901931	2796.5913746307
0	7681	676413.560626414151	2997.801863212
0	7711	684339.789259054103	9021.5555146727
0	7739	686607.207498960351	1460.5359648798
0	7762	687384.556689955831	3889.3354827926
0	7783	687953.415711254587	4945.478342597
0	7788	688083.628334804813	2796.6507772923
0	7796	688344.759531039131	1788.0004300241
0	7802	688519.982488869257	1379.0207188502
0	7824	693606.311382776925	6465.061306257
0	7854	694762.133965472464	3149.8409054403
0	7862	695709.215209009534	2343.55396237
0	7890	697346.717012474253	3726.1920246258
0	7895	697376.392109480949	3599.8188301001
0	7903	697444.831551969128	1540.989916887
0	7923	703424.836181991613	7470.5610842856
0	7942	707512.262512606921	6641.2867252102
0	7962	713703.686588672697	7599.8112556435
0	7981	717306.497035561216	7252.0345009471
0	8009	719662.777962170831	1559.7275779234
0	8035	721955.528347847914	3750.7119549203
0	8040	722430.120742714302	2838.8295836538
0	8049	723251.044855274705	6563.7531470702
0	8085	730122.789429976911	9529.2527485845
0	8106	733023.34980662933	6386.8684127417
0	8137	735846.625605910346	9292.5439879955
0	8154	736540.72282075779	6391.7082236886
0	8162	736940.834475779708	1787.9131991253
0	8183	739962.143063207963	11208.765962232
0	8205	741636.38486911731	5274.9780052759
0	8214	743252.02012753294	3298.3310711765
0	8225	743899.950754326864	10986.170245817
0	8247	744795.450404364899	3517.6578590779
0	8259	745678.219610185586	6936.4210806063
0	8264	745878.39300410066	10993.258409401
0	8281	747633.224764207169	3937.6077878755
0	8329	755064.092230881518	1883.2883347041
0	8337	755478.925799348185	3754.5466368147
0	8345	755690.414570460365	11715.271896761
0	8351	756000.688104922384	3181.7498925056
0	8368	757736.890067451843	11123.553569043
0	8393	759447.653492678381	6043.2422302376
0	8410	761298.204636696796	3295.7121342078
0	8418	761664.08571410469	4812.880090225
0	8444	764645.288867695567	5867.8514862125
0	8469	766302.317948670436	6137.382240824
0	8490	768517.891031159472	5269.6459858143
0	8495	768884.426998700484	3483.9332028707
0	8503	769144.858042413782	3421.7577724565
0	8513	771395.685407712997	8314.7795790457
0	8565	780331.376790920941	8292.4014852053
0	8575	781211.38085556964	13825.82491312
0	8598	782214.360009888562	2791.226516968
0	8603	782568.575072564482	4874.8416488107
0	8608	782941.720104869798	6655.1430251189
0	8642	788183.461862911278	3598.1368731388
0	8655	788889.958223924313	7647.7855953988
0	8667	789441.741607441235	16637.110198321
0	8689	790978.47875273193	5754.7015189331
0	8694	791131.028081955084	4725.5161771424
0	8714	793402.875439770134	4370.3431762886
0	8728	793759.116849216566	3638.24570346
0	8736	794233.409834109682	1547.9538308979
0	8754	796624.63387235192	3728.1248643162
0	8779	798764.335430962444	3152.3529725398
0	8793	803608.445210634867	6701.9134805245
0	8825	808384.690429307388	5313.6710822762
0	8835	810055.886095023728	3761.7310914377
0	8870	814878.393961926533	2570.2121439715
0	8899	818042.869525494256	19622.15842024
0	8910	818912.04803240749	4951.7595615306
0	8921	819178.505503613397	12233.313697118
0	8930	821004.49531180755	4653.2854441869
0	8941	821520.3869922923	4062.8016395758
0	8971	822401.740800794289	1164.4613135546
0	8979	822923.125114669377	12034.877299037
0	9014	825350.207304797528	1846.9311473681
0	9030	826124.890913478375	4590.1685540719
0	9046	826894.158865239821	8587.5233515823
0	9054	827529.560490319224	3883.4402853663
0	9071	828209.115986286268	6460.4272616589
0	9088	830614.208360396054	4550.0722690538
0	9111	832261.785613796477	8021.7147575836
0	9145	834010.845803403758	8162.9802261867
0	9155	834257.876179035443	6292.7843927211
0	9166	835032.518696625259	2371.2370604807
0	9183	836300.846512155448	4475.9281596201
0	9188	836366.810559979489	5369.5878769398
0	9196	836927.085275665413	2983.7194832998
0	9208	837978.545135746996	7718.1096642207
0	9238	839405.128031068283	6807.2466674153
0	9254	839782.837779169751	4978.9071074839
0	9262	839993.440444568158	1327.2992762911
0	9272	841737.912991789763	3644.381810062
0	9289	843440.340140601648	3993.2648363472
0	9323	847076.454499585998	9251.9011215082
0	9335	848356.665194963406	6197.8121312469
0	9349	849322.80402524624	4648.9680100395
0	9361	850819.572654781223	4268.3098381427
0	9392	854711.872204475243	9612.596078934
0	9401	855999.124998897503	5427.4915874329
0	9411	858179.902769583675	10425.271517981
0	9439	864073.482755045497	13175.231912308
0	9447	864489.140160553663	11879.548655818
0	9463	865086.492521862011	6016.9452926049
0	9483	866373.228699546317	4421.6295342299
0	9513	867666.963762764009	2982.9157846481
0	9522	869328.064959355448	3461.8377836167
0	9539	870221.823640676899	3652.776273897
0	9563	871332.418212679311	4993.7374883799
0	9578	872012.292489041751	4806.6299846418
0	9583	872246.082396691954	2009.9148685375
0	9588	872297.911141253572	2812.9699122196
0	9631	876580.468969930958	4080.4795081002
0	9640	877756.082631947509	4017.6413751801
0	9648	878238.185652144124	7446.4281912111
0	9665	879025.828026241024	3403.9172233744
0	9674	881046.30775651387	7266.2388813807
0	9700	883898.551025965318	1621.7739682621
0	9717	885075.357032279585	2601.649674806
0	9725	886182.017478424179	7573.5773157611
0	9775	888242.275482601184	1930.074019618
0	9783	888488.182209281679	3817.96856398
0	9792	890708.034589762858	4051.019342997
0	9810	893622.852406019441	7389.0465833295
0	9828	895334.025144963741	7630.0607697663
0	9847	896224.979000108365	9554.3018850928
0	9855	896395.375635955496	2939.9719087368
0	9872	898440.315367723411	3456.0677378829
0	9895	900608.977624764082	4379.9817010683
0	9903	901213.819240127842	3261.3183679057
0	9932	903429.72960164586	8471.4222269015
0	9937	903805.365635615301	3585.1831688348
0	9969	906282.883806560059	2180.9930041125
0	9979	906651.73122196995	4148.1180902545
0	9991	908306.027857589292	5884.6289420297
0	10013	909448.904828445364	1175.2543064225
0	10025	910570.951314719682	4388.4925068878
0	10047	913436.128643980916	2965.1819496925
0	10056	914042.391232137516	8258.2397264017
0	10064	914920.733696748417	6606.340559593
0	10135	919780.62547981755	2422.6285722558
0	10140	919795.826689344753	858.48404879009
0	10149	921299.993284080866	2926.1488088035
0	10166	922702.322720757606	5041.4009198645
0	10174	923163.37814048352	3915.6823967522
0	10182	923345.848081891122	4310.0488705124
0	10221	929257.31683185811	16859.056222519
0	10226	929509.546032664135	7366.5365623214
0	10251	930832.289417791362	13844.008976115
0	10260	932156.204692257577	8224.9822064806
0	10277	933150.7746019529	3088.8886282955
0	10288	933642.818657519819	7407.1040602602
0	10354	936513.083774313512	2197.9621639225
0	10362	936923.286983637717	3544.620989699
0	10367	937052.787096505299	6896.7995418011
0	10385	937721.432242140161	2598.757331755
0	10398	938299.779179749904	13271.614364911
0	10403	938613.337471918256	3192.6741605709
0	10408	938617.084363969829	3759.7684602251
0	10416	938668.798922963157	2910.135409895
0	10425	939389.748110146701	3464.5396648571
0	10433	940466.784300192327	7696.7152797233
0	10460	944139.291981310555	6477.7259316277
0	10496	950182.635787843662	7369.1818770531
1	786	81269.225511404439	0
1	794	81457.15787183124	62.772091501317
1	803	82600.411576259339	0
1	827	83867.10488104525	225.98073525109
1	845	86389.563741225068	0
1	879	89502.486991066578	0
1	888	90252.779442855729	0
1	915	94921.405335173181	0
1	924	97009.023129123462	0
1	933	98367.134542138472	0
1	941	98926.652825444598	0
1	954	100696.843299369327	1119.3630574582
1	978	101868.716658147853	176.73968513928
1	983	101963.156493990745	234.30540781915
1	992	102602.679231666498	563.68067429519
1	1000	102697.810587241304	0
1	1058	105887.967167293976	34.729990019504
1	1077	109838.290670738305	0
1	1085	110940.398912120609	0
1	1102	112084.967511280703	0
1	1111	112623.58567303456	0
1	1119	113157.01379884162	0
1	1161	116249.045539716361	0
1	1169	116529.959468795966	0
1	1204	121214.028059744744	0
1	1213	121506.059018630364	235.1045014234
1	1230	123305.554916749879	67.142032433019
1	1257	127629.726001904487	0
1	1275	131731.813529387098	0
1	1287	132802.112790915111	849.73097516044
1	1292	132853.387065450571	853.07002261964
1	1301	133642.830618611745	0
1	1309	134197.528138520678	0
1	1317	134716.892597439452	0
1	1334	136432.573835269418	0
1	1351	137986.164276571426	0
1	1394	141309.565306961352	0
1	1402	142116.160604993515	0
1	1427	143513.347165238557	0
1	1435	143696.059459563348	0
1	1469	146444.759245330012	0
1	1486	148023.227627994053	0
1	1511	149673.136050172614	0
1	1520	150329.390422746799	264.08246602609
1	1528	151100.085557875239	0
1	1554	153276.879168915856	0
1	1580	156459.754362557583	0
1	1589	158281.04664530446	1497.1604666401
1	1597	158983.183333284615	0
1	1623	161004.686433119131	0
1	1639	161956.039693072729	0
1	1648	162629.048197087007	0
1	1674	165619.906355113533	0
1	1691	166563.104869868978	0
1	1699	167131.939719431299	217.54119839708
1	1716	168296.15126145822	0
1	1749	169853.892989503011	0
1	1758	171993.179932681544	0
1	1767	173239.221899923276	0
1	1775	173626.082401967134	0
1	1800	175442.694533371571	20.471544537744
1	1812	176298.301565751503	834.79412319712
1	1852	180159.993710760879	0
1	1860	180853.06296748535	0
1	1872	181591.489724699529	695.32716472341
1	1877	181688.890924911325	619.22652124046
1	1914	185612.396326321208	23.301654192264
1	1926	186293.794023897102	550.03609572093
1	1931	186434.111966334379	220.1919620184
1	1945	187139.400804512782	542.73619390725
1	1954	187586.815439542717	482.4305634981
1	1967	188142.798138174354	64.981754515773
1	1987	189798.393016174003	319.44860488883
1	2038	195258.428486961876	0
1	2046	195625.892965601284	0
1	2054	196378.918005026898	0
1	2062	196430.031702950271	48.449984948616
1	2071	196628.00754571049	60.834859016702
1	2104	198940.154499224644	31.136316539762
1	2112	199420.65014913852	85.103600385087
1	2129	200093.91659351831	50.219880108179
1	2163	203243.544444683128	544.43902534418
1	2171	203653.996151810928	0
1	2180	205083.321785417314	0
1	2192	205644.64686356183	442.03542082204
1	2197	206105.444000261988	654.07024385932
1	2213	206723.982827034156	0
1	2231	209035.442503014402	0
1	2239	209318.391812699006	0
1	2283	210501.601403987537	283.49862218464
1	2291	210664.398204505064	264.62751457978
1	2313	211725.310689979876	0
1	2324	212763.120544746756	1023.9314284241
1	2338	213517.136501969522	0
1	2395	218585.292558881635	961.83543456498
1	2400	218808.453598117689	649.37190479023
1	2409	219357.183090195904	879.22319963081
1	2414	219618.872630981433	336.40703967369
1	2457	223686.70336990422	0
1	2465	224540.490240853122	0
1	2491	226644.9146741289	0
1	2499	226781.440387603455	0
1	2507	227231.452618084289	0
1	2515	227760.170019195989	508.44049454593
1	2540	229118.641447989943	0
1	2566	231536.45902757506	0
1	2574	232015.112351106398	0
1	2583	232970.234197522558	0
1	2618	237948.754270298834	0
1	2626	238124.893713464594	0
1	2661	241608.590621480816	607.11442664645
1	2669	242840.204868766217	0
1	2678	243274.68495590323	0
1	2687	244626.248230943198	0
1	2722	249624.854965617962	0
1	2730	249710.476578462396	0
1	2738	249941.606956985153	0
1	2747	251262.765125954996	0
1	2759	252172.40856071709	807.7852186663
1	2798	255336.443601303509	0
1	2806	255613.17068991324	0
1	2814	255691.770025719436	17.1485405543
1	2822	256024.278166473225	238.45924345877
1	2839	256674.05942239945	43.82289763179
1	2847	256718.177818274082	0
1	2889	259626.025759443465	0
1	2897	260579.292393308413	0
1	2923	263337.103650132257	0
1	2939	263513.74212218898	16.500716781783
1	2955	263896.417817733416	53.358867994657
1	2989	266474.477869304504	0
1	2998	267055.444229954047	0
1	3006	267066.966533487864	0
1	3039	269386.728506158736	0
1	3047	269900.875028957718	0
1	3059	270116.319080972497	88.631935172926
1	3090	273290.084770313496	0
1	3098	273594.212426616806	0
1	3115	275926.292054111919	0
1	3124	276840.677109063371	0
1	3150	279074.390149398114	0
1	3159	280756.157866202595	0
1	3176	282690.094517022409	0
1	3201	284913.957769551175	0
1	3218	286242.153131255451	0
1	3227	286624.067505950835	0
1	3243	287889.813910252869	0
1	3260	288729.722713345439	0
1	3276	288935.516140429321	0
1	3319	292890.503606154555	0
1	3327	293463.583192415798	224.89346149384
1	3344	294491.966465436407	0
1	3352	294880.063419175276	0
1	3369	296755.390606496125	0
1	3377	296895.955834012265	65.091899832169
1	3386	297151.884113139589	33.398727365104
1	3411	298955.586044237381	53.044544334034
1	3428	300131.719982383995	0
1	3436	300407.137849351763	0
1	3444	300950.626781763368	0
1	3456	301637.129108459346	430.42350906161
1	3477	302624.885817696885	220.87959525067
1	3488	302965.248281071456	56.264000305145
1	3508	303194.151064556976	65.112587620397
1	3546	305213.906506385174	181.45943514107
1	3560	306639.126771161999	0
1	3596	313185.708801678809	0
1	3608	313564.582457570775	9.738148926173
1	3621	314223.047875132649	0
1	3630	315235.330854887506	0
1	3638	315754.534552100093	0
1	3655	316656.732521379556	0
1	3680	318727.164319108317	0
1	3705	320889.846619312604	0
1	3714	321671.31239220464	366.66799959409
1	3739	323220.058765619886	0
1	3747	323533.98384192129	0
1	3764	324599.037223319671	27.772387559711
1	3778	325077.102334883006	281.18513484144
1	3786	325269.92256411598	141.3179254264
1	3831	329289.357570854795	0
1	3848	330668.802988880005	0
1	3857	331644.530925706044	0
1	3868	332293.793573206838	17.594442544616
1	3909	334414.730131692416	122.24990470112
1	3915	334600.021636808849	277.62992794648
1	3940	336807.77301457998	0
1	3948	337232.619977658466	0
1	3957	337682.3467295388	0
1	3965	338371.10772298626	0
1	3974	339130.821381876978	608.25579229817
1	3991	340628.615731614993	0
1	4002	341254.782254500023	357.00498732176
1	4007	341364.260026884122	307.78128141248
1	4023	341624.537306669708	50.988112395253
1	4062	342781.688474629947	333.85401275614
1	4098	345744.152418180858	826.6150752696
1	4106	346303.801018911531	0
1	4115	346593.484927408195	22.460506152714
1	4131	347978.38009644677	0
1	4148	348684.767311538798	73.260728209611
1	4183	353572.582435898287	0
1	4192	354531.636621444126	0
1	4200	355128.331713766618	0
1	4234	357629.763558794607	0
1	4251	359846.670923054208	0
1	4268	360573.20911024131	360.6846352107
1	4276	360836.998901639454	0
1	4285	362349.278497910926	0
1	4297	363615.821231953816	782.83659675587
1	4319	364517.138525821185	0
1	4343	365701.151244091588	31.53428636946
1	4371	371046.066784346642	0
1	4379	371911.689391265343	413.68234211954
1	4394	373129.782810580324	320.59389428113
1	4415	373445.672885485601	91.271598320063
1	4438	375915.009519875155	0
1	4466	381424.830546755859	0
1	4474	381495.867055186036	0
1	4483	382644.299731738851	0
1	4492	385219.463050892984	0
1	4509	386704.107814310564	0
1	4535	388546.500446761773	0
1	4560	390038.513624812787	5.152957604175
1	4568	391019.496013032934	0
1	4585	392528.013497192293	0
1	4593	392679.119840490337	12.126991845481
1	4602	393021.694277275529	0
1	4655	400833.077435488545	0
1	4671	401715.168079018268	0
1	4680	402058.958575120091	0
1	4707	406903.474239090543	0
1	4715	407638.43222860655	0
1	4724	408514.572101870948	0
1	4751	412639.865506914279	0
1	4776	415165.327113362693	0
1	4794	417791.395618292531	1163.4656728133
1	4811	418948.219945455347	0
1	4823	420453.130384211422	741.91222026076
1	4828	420784.765846556746	342.03746793218
1	4836	421080.377372544965	193.82432354884
1	4845	421553.19800936844	0
1	4856	421816.765475866183	116.85218301228
1	4903	425844.875183056544	0
1	4912	426120.692512609904	0
1	4923	427330.87548459544	651.65223572627
1	4932	427521.25725572828	766.62695894535
1	4945	428845.318792567881	0
1	4987	431659.030052589974	0
1	4999	432307.107977723975	386.85005490542
1	5029	434216.140925456803	0
1	5046	436054.511405781223	0
1	5055	437141.695755117867	770.36210477514
1	5079	437952.028115555782	0
1	5088	438349.197683454625	0
1	5096	439387.059723550556	0
1	5131	442808.312620750507	0
1	5139	443650.361425039447	0
1	5148	444821.889318671649	0
1	5156	445485.713363184408	0
1	5176	446247.619566572211	271.58327931866
1	5196	447415.529889706818	845.95135264132
1	5201	447499.911733709155	371.94364561009
1	5231	449256.996138590817	167.99671751987
1	5256	450162.518549977057	0
1	5267	450391.123712247407	200.94844228757
1	5272	450715.673886324814	520.81560529065
1	5308	456550.333942490519	0
1	5318	459397.297744027664	0
1	5354	465515.551196281106	0
1	5362	466464.747386696562	0
1	5380	469051.339473681401	0
1	5397	469728.713997286903	82.865285711292
1	5405	469782.661341144757	0
1	5423	472579.16676621306	0
1	5435	474106.441410622994	1322.9599864557
1	5448	474979.177899317355	0
1	5484	480705.665945792551	0
1	5502	483755.777205363856	0
1	5511	485800.429631720764	0
1	5520	487108.461731835714	0
1	5545	487940.592918497803	0
1	5553	488570.092509194689	0
1	5561	488619.239912561723	0
1	5569	488722.912251400618	76.390801825628
1	5612	492012.017825476486	0
1	5650	501921.393602795526	0
1	5658	502207.017119676551	0
1	5684	504301.451636366197	0
1	5692	504753.76960289202	0
1	5703	505379.413435733643	302.49740677087
1	5712	505689.534399668472	111.83167132029
1	5750	508442.144282225601	0
1	5759	509553.336517793418	0
1	5771	510880.797390159356	223.35107063737
1	5784	511316.020394294718	0
1	5793	512272.903275318541	0
1	5810	513147.165421987501	118.17455961799
1	5818	513993.560132611577	543.5868109128
1	5835	515638.672982103053	86.271364792286
1	5852	516334.263195481504	0
1	5860	517065.744551230917	0
1	5868	517313.78187920651	0
1	5937	524270.069644884598	0
1	5946	526384.437245372841	0
1	5964	528157.754462458953	0
1	5972	528487.505846072614	0
1	5989	530038.298005787696	0
1	5997	530876.773886990687	0
1	6006	531640.478458942485	340.11600429583
1	6031	533612.143621748776	0
1	6056	535288.133893411521	0
1	6064	535318.600944959438	0
1	6079	536181.567072852424	847.25068028866
1	6090	536788.862354786109	137.72051397313
1	6102	537916.402722740269	1245.5326447692
1	6107	537918.448313997167	914.12343232069
1	6137	539003.945601207022	471.29582080434
1	6172	540853.881601888688	0
1	6189	541701.820209114416	137.78310324444
1	6223	545455.987788681886	0
1	6232	546340.810283040175	759.8773509083
1	6248	547451.038796214639	402.40551633927
1	6257	548112.607325257549	0
1	6277	549180.396307870277	774.00682426574
1	6282	549327.944310567411	731.08190353121
1	6299	550508.225990517077	0
1	6324	552462.007442962022	0
1	6338	553181.706436909506	630.20932708316
1	6376	558491.806839798064	0
1	6386	561724.132883128564	0
1	6394	562291.307456922781	431.93864760946
1	6403	563095.683897715804	0
1	6430	568281.11995803226	0
1	6448	570844.02748719226	0
1	6456	571374.589506079936	0
1	6484	572789.478292460902	54.214136869076
1	6492	572916.404955723513	19.087716816673
1	6514	574416.348708009798	162.05134214785
1	6541	578870.975180177162	0
1	6550	579387.711621664474	0
1	6558	579978.709344202423	0
1	6566	580493.69664427452	0
1	6583	581359.241520933608	92.0807037556
1	6592	582580.562379291121	0
1	6650	585636.440203354682	0
1	6667	587315.946453915192	0
1	6677	589730.289033729862	0
1	6686	591271.425496417534	1383.039155924
1	6694	591507.403103454017	177.51598715891
1	6702	592213.401715172984	0
1	6744	595169.596086890519	272.78239239924
1	6753	595714.380093266146	0
1	6778	597420.325640853815	0
1	6795	598581.777437589507	0
1	6803	599436.019641457215	0
1	6811	599492.349947366343	0
1	6842	601083.782409800787	145.65892327633
1	6850	601341.610842817972	239.08514400104
1	6877	602966.218982483506	0
1	6886	603967.481501185222	320.22963435554
1	6921	607953.728603757781	0
1	6929	608196.756456888196	166.89866425417
1	6938	609084.58005104034	631.39168972721
1	6946	609388.693247821709	0
1	6973	614083.156302907643	0
1	6982	615211.862256907061	0
1	6993	615992.727713716991	187.79406091186
1	7004	616197.827191932102	147.3919761358
1	7019	616837.214991854225	668.83609945231
1	7024	617062.258699973173	384.83251342033
1	7044	618154.772672967285	298.08635941034
1	7091	623081.451442425529	0
1	7100	625138.439759406724	0
1	7108	625360.559546588611	0
1	7120	625935.293894647311	95.394733040314
1	7150	627441.819956495556	0
1	7166	628298.291034734333	0
1	7210	634049.448177770435	0
1	7218	634339.438848674544	112.53540695963
1	7227	635426.911090784354	0
1	7247	636476.415799220806	7.623217819706
1	7260	637418.821804793908	0
1	7269	637808.963750592057	0
1	7289	639236.016395514289	356.04212172972
1	7297	639885.25672497355	662.90865151583
1	7346	645656.772159398487	0
1	7356	648577.441336087528	0
1	7373	650715.320295799307	0
1	7382	651010.968040729777	102.21366827097
1	7409	656351.644956712972	0
1	7417	656805.882642817994	46.294090027245
1	7451	659379.811161412205	0
1	7460	660199.961146394782	0
1	7468	660696.060097578558	0
1	7483	661583.871059720758	855.04481227859
1	7488	661666.815781372901	318.49290690403
1	7518	663440.666595533014	0
1	7526	663727.798253711874	154.17780505859
1	7561	668700.315931202606	0
1	7570	669780.830485682452	0
1	7587	671490.140380155683	0
1	7604	672355.340948753232	0
1	7612	672597.954840271221	0
1	7636	673415.758763202177	0
1	7670	675394.546214901931	76.312470520553
1	7691	683007.937368657542	0
1	7699	683495.221207163202	0
1	7716	685146.671534080545	0
1	7724	685354.447666276667	67.470108764119
1	7741	686607.207498960351	50.448397945345
1	7764	687384.556689955831	243.59491993682
1	7769	687555.57281837621	414.32274185631
1	7809	691612.293060032189	0
1	7826	693606.311382776925	240.65013613743
1	7834	693620.524987848406	0
1	7842	693925.086323017854	148.51304363702
1	7867	695903.841635082159	0
1	7875	695980.460261711006	26.185164005016
1	7911	700870.975787396714	0
1	7930	706103.875333029196	0
1	7949	710054.462534614103	0
1	7969	716687.291708204505	0
1	7986	718103.050384247439	0
1	7994	718254.646170914214	49.829777986607
1	8011	719662.777962170831	71.486803110368
1	8020	720593.536681392383	0
1	8056	726554.081617914819	0
1	8064	727220.674740590807	584.19334670316
1	8073	728753.377100976299	0
1	8090	730149.014597069151	0
1	8108	733023.34980662933	109.56929811947
1	8117	734885.134594700062	0
1	8126	735152.921276654383	0
1	8142	736361.40686384136	0
1	8168	738741.798529579303	0
1	8185	739962.143063207963	8.454006851564
1	8194	741277.792545286966	0
1	8227	743899.950754326864	204.33377799521
1	8235	743975.142673699211	0
1	8269	746613.336498408434	0
1	8289	751724.379162533506	0
1	8297	752818.938212416804	0
1	8306	753180.803896177422	0
1	8314	753497.128240972986	92.716978532166
1	8356	756851.205623879666	0
1	8373	758002.492502488984	0
1	8381	758777.43738148311	0
1	8398	760164.935707846404	0
1	8424	763080.905828667302	0
1	8436	764521.011289878139	1272.766244533
1	8450	765400.493795829822	0
1	8461	765941.73551493563	218.63524497839
1	8475	767385.555942449552	0
1	8518	772038.975305715664	0
1	8527	772804.631409119768	0
1	8537	776286.577079750884	0
1	8546	777693.733423753742	0
1	8567	780331.376790920941	908.2432980004
1	8580	781242.172628525476	0
1	8615	784585.324989772458	0
1	8623	785790.355729297594	566.57849549875
1	8644	788183.461862911278	1777.9499580986
1	8669	789441.741607441235	409.20934395969
1	8677	790175.078610753782	54.207464997263
1	8700	792685.456003211766	0
1	8716	793402.875439770134	506.36643173437
1	8742	795611.982458422684	0
1	8759	796906.531730110318	0
1	8768	798420.711105254309	0
1	8795	803608.445210634867	537.42586360371
1	8805	806294.155003585985	0
1	8813	806945.191806495844	0
1	8840	810888.247815632061	0
1	8849	812308.181817955032	0
1	8858	813960.288470876883	0
1	8876	816351.20986762065	0
1	8884	817457.585352716462	0
1	8912	818912.04803240749	605.41251874995
1	8943	821520.3869922923	283.10750505261
1	8951	821534.722359406497	0
1	8959	821748.688724627363	0
1	8985	823503.276157429407	0
1	8993	823843.575819701396	197.4556147485
1	9016	825350.207304797528	1110.1364485847
1	9032	826124.890913478375	277.02533626129
1	9037	826416.588733409809	352.45264206758
1	9059	827965.091786314374	0
1	9077	830260.435471526282	0
1	9093	830997.222683039738	0
1	9113	832261.785613796477	436.86726126118
1	9125	833159.279413383215	561.39804973026
1	9133	833536.507512667289	875.22587652274
1	9147	834010.845803403758	67.480011038122
1	9168	835032.518696625259	228.58802493941
1	9210	837978.545135746996	153.99175766917
1	9218	838248.691143808965	155.1599620812
1	9227	838666.141168277082	0
1	9243	839447.075304254455	0
1	9277	842158.853063716471	0
1	9295	844673.83601520678	0
1	9303	845099.276125541193	0
1	9312	846551.262816638549	0
1	9337	848356.665194963406	602.03394336029
1	9363	850819.572654781223	247.93924331663
1	9371	851056.603241849499	158.35239911208
1	9380	852609.591504735754	0
1	9416	859069.547229257134	0
1	9426	861951.599165316436	0
1	9452	864684.047978115876	0
1	9469	865866.227175738725	0
1	9485	866373.228699546317	34.547975246922
1	9493	866569.04736677988	0
1	9505	867236.188562611728	30.526058211746
1	9527	869484.941229034	0
1	9544	870236.167528154414	0
1	9552	870791.757460933048	0
1	9593	872499.989461830789	0
1	9602	873738.441256767388	0
1	9610	874354.446186516507	574.37731138335
1	9619	875621.910802866617	0
1	9653	878608.440162663122	0
1	9680	882276.777057703174	0
1	9688	883003.540522968085	529.83316549455
1	9705	884670.213645301701	0
1	9730	886233.805822689933	0
1	9738	886312.201462983163	0
1	9747	886657.015246765854	0
1	9755	887286.203954591925	615.52683957635
1	9766	887997.964145285768	293.99977008838
1	9799	893455.403727218729	0
1	9830	895334.025144963741	375.71777021942
1	9836	895540.694840876133	556.44721103558
1	9857	896395.375635955496	166.37971225971
1	9874	898440.315367723411	487.81449550129
1	9884	900220.182466780506	0
1	9909	902421.398915559626	0
1	9920	902874.488321279013	370.87518956361
1	9942	904101.890802447587	0
1	9951	905784.151505735777	0
1	9971	906282.883806560059	100.42499872816
1	9993	908306.027857589292	32.377335566442
1	10001	908616.82233433479	302.42919717941
1	10027	910570.951314719682	100.00462043131
1	10036	912398.260609338674	0
1	10071	916988.28044167673	0
1	10079	917357.996907561724	0
1	10087	917660.921800893091	0
1	10096	918565.3741955504	191.52972027304
1	10104	918999.731688039241	62.38904748458
1	10112	919195.698079681106	159.89886830238
1	10123	919347.324065043278	99.628321312003
1	10154	922143.00947034271	0
1	10187	923931.222485776987	0
1	10196	925028.164814838732	0
1	10205	926235.7145972596	0
1	10232	930061.885973657383	0
1	10243	930262.042878229348	106.0553235252
1	10265	932770.069020468988	0
1	10290	933642.818657519819	264.1526635811
1	10302	934909.165415182904	594.04380479187
1	10310	935136.633610373754	279.31770662899
1	10315	935156.697769366646	34.0228589815
1	10326	935522.491051509047	101.82774016174
1	10334	935807.903128332794	49.239615264602
1	10343	936199.553227440665	274.3447821511
1	10387	937721.432242140161	59.866192457328
1	10440	942680.576471845701	0
1	10448	942813.453910790582	0
1	10468	948311.754671868118	0
1	10479	949040.409268902478	432.27144545174
1	10488	949525.949994918569	668.60874844775
2	784	81269.225511404439	1
2	786	81269.225511404439	0
2	789	81394.385780329923	1
2	794	81457.15787183124	0
2	801	82600.411576259339	1
2	803	82600.411576259339	0
2	822	83641.124145794163	1
2	827	83867.10488104525	0
2	843	86389.563741225068	1
2	845	86389.563741225068	0
2	877	89502.486991066578	1
2	879	89502.486991066578	0
2	886	90252.779442855729	1
2	888	90252.779442855729	0
2	913	94921.405335173181	1
2	915	94921.405335173181	0
2	922	97009.023129123462	1
2	924	97009.023129123462	0
2	931	98367.134542138472	1
2	933	98367.134542138472	0
2	939	98926.652825444598	1
2	941	98926.652825444598	0
2	945	99577.480241911083	1
2	954	100696.843299369327	0
2	970	101691.976973008571	1
2	973	101728.851086171594	2
2	978	101868.716658147853	1
2	983	101963.156493990745	0
2	987	102038.99855737131	1
2	992	102602.679231666498	0
2	998	102697.810587241304	1
2	1000	102697.810587241304	0
2	1053	105853.237177274472	1
2	1058	105887.967167293976	0
2	1075	109838.290670738305	1
2	1077	109838.290670738305	0
2	1083	110940.398912120609	1
2	1085	110940.398912120609	0
2	1100	112084.967511280703	1
2	1102	112084.967511280703	0
2	1109	112623.58567303456	1
2	1111	112623.58567303456	0
2	1117	113157.01379884162	1
2	1119	113157.01379884162	0
2	1159	116249.045539716361	1
2	1161	116249.045539716361	0
2	1167	116529.959468795966	1
2	1169	116529.959468795966	0
2	1202	121214.028059744744	1
2	1204	121214.028059744744	0
2	1207	121270.95451720696	1
2	1213	121506.059018630364	0
2	1225	123238.41288431686	1
2	1230	123305.554916749879	0
2	1255	127629.726001904487	1
2	1257	127629.726001904487	0
2	1273	131731.813529387098	1
2	1275	131731.813529387098	0
2	1278	131952.381815754667	1
2	1282	132000.317042830928	2
2	1287	132802.112790915111	1
2	1292	132853.387065450571	0
2	1299	133642.830618611745	1
2	1301	133642.830618611745	0
2	1307	134197.528138520678	1
2	1309	134197.528138520678	0
2	1315	134716.892597439452	1
2	1317	134716.892597439452	0
2	1332	136432.573835269418	1
2	1334	136432.573835269418	0
2	1349	137986.164276571426	1
2	1351	137986.164276571426	0
2	1392	141309.565306961352	1
2	1394	141309.565306961352	0
2	1400	142116.160604993515	1
2	1402	142116.160604993515	0
2	1425	143513.347165238557	1
2	1427	143513.347165238557	0
2	1433	143696.059459563348	1
2	1435	143696.059459563348	0
2	1467	146444.759245330012	1
2	1469	146444.759245330012	0
2	1484	148023.227627994053	1
2	1486	148023.227627994053	0
2	1509	149673.136050172614	1
2	1511	149673.136050172614	0
2	1515	150065.307956720709	1
2	1520	150329.390422746799	0
2	1526	151100.085557875239	1
2	1528	151100.085557875239	0
2	1552	153276.879168915856	1
2	1554	153276.879168915856	0
2	1578	156459.754362557583	1
2	1580	156459.754362557583	0
2	1583	156783.886178664351	1
2	1589	158281.04664530446	0
2	1595	158983.183333284615	1
2	1597	158983.183333284615	0
2	1621	161004.686433119131	1
2	1623	161004.686433119131	0
2	1637	161956.039693072729	1
2	1639	161956.039693072729	0
2	1646	162629.048197087007	1
2	1648	162629.048197087007	0
2	1672	165619.906355113533	1
2	1674	165619.906355113533	0
2	1689	166563.104869868978	1
2	1691	166563.104869868978	0
2	1694	166914.398521034217	1
2	1699	167131.939719431299	0
2	1714	168296.15126145822	1
2	1716	168296.15126145822	0
2	1747	169853.892989503011	1
2	1749	169853.892989503011	0
2	1756	171993.179932681544	1
2	1758	171993.179932681544	0
2	1765	173239.221899923276	1
2	1767	173239.221899923276	0
2	1773	173626.082401967134	1
2	1775	173626.082401967134	0
2	1795	175422.222988833827	1
2	1800	175442.694533371571	0
2	1803	175463.507442554381	1
2	1812	176298.301565751503	0
2	1850	180159.993710760879	1
2	1852	180159.993710760879	0
2	1858	180853.06296748535	1
2	1860	180853.06296748535	0
2	1863	180896.162559976119	1
2	1866	181069.664403670868	2
2	1872	181591.489724699529	1
2	1877	181688.890924911325	0
2	1906	185589.094672128944	1
2	1914	185612.396326321208	0
2	1917	185743.757928176172	1
2	1921	186213.920004315978	2
2	1926	186293.794023897102	1
2	1931	186434.111966334379	0
2	1934	186596.664610605532	1
2	1940	187104.384876044614	2
2	1945	187139.400804512782	1
2	1954	187586.815439542717	0
2	1962	188077.816383658581	1
2	1967	188142.798138174354	0
2	1982	189478.94441128517	1
2	1987	189798.393016174003	0
2	2036	195258.428486961876	1
2	2038	195258.428486961876	0
2	2044	195625.892965601284	1
2	2046	195625.892965601284	0
2	2052	196378.918005026898	1
2	2054	196378.918005026898	0
2	2057	196381.581718001655	1
2	2062	196430.031702950271	0
2	2066	196567.172686693788	1
2	2071	196628.00754571049	0
2	2099	198909.018182684882	1
2	2104	198940.154499224644	0
2	2107	199335.546548753433	1
2	2112	199420.65014913852	0
2	2124	200043.696713410131	1
2	2129	200093.91659351831	0
2	2158	202699.105419338944	1
2	2163	203243.544444683128	0
2	2169	203653.996151810928	1
2	2171	203653.996151810928	0
2	2178	205083.321785417314	1
2	2180	205083.321785417314	0
2	2183	205202.611442739786	1
2	2186	205451.373756402667	2
2	2192	205644.64686356183	1
2	2197	206105.444000261988	0
2	2211	206723.982827034156	1
2	2213	206723.982827034156	0
2	2229	209035.442503014402	1
2	2231	209035.442503014402	0
2	2237	209318.391812699006	1
2	2239	209318.391812699006	0
2	2275	210218.102781802896	1
2	2278	210399.770689925282	2
2	2283	210501.601403987537	1
2	2291	210664.398204505064	0
2	2311	211725.310689979876	1
2	2313	211725.310689979876	0
2	2316	211739.189116322611	1
2	2324	212763.120544746756	0
2	2336	213517.136501969522	1
2	2338	213517.136501969522	0
2	2384	217623.457124316652	1
2	2387	218159.081693327461	2
2	2390	218477.959890565096	3
2	2395	218585.292558881635	2
2	2400	218808.453598117689	1
2	2404	219282.46559130774	2
2	2409	219357.183090195904	1
2	2414	219618.872630981433	0
2	2455	223686.70336990422	1
2	2457	223686.70336990422	0
2	2463	224540.490240853122	1
2	2465	224540.490240853122	0
2	2489	226644.9146741289	1
2	2491	226644.9146741289	0
2	2497	226781.440387603455	1
2	2499	226781.440387603455	0
2	2505	227231.452618084289	1
2	2507	227231.452618084289	0
2	2510	227251.729524650055	1
2	2515	227760.170019195989	0
2	2538	229118.641447989943	1
2	2540	229118.641447989943	0
2	2564	231536.45902757506	1
2	2566	231536.45902757506	0
2	2572	232015.112351106398	1
2	2574	232015.112351106398	0
2	2581	232970.234197522558	1
2	2583	232970.234197522558	0
2	2616	237948.754270298834	1
2	2618	237948.754270298834	0
2	2624	238124.893713464594	1
2	2626	238124.893713464594	0
2	2655	241001.476194834363	1
2	2661	241608.590621480816	0
2	2667	242840.204868766217	1
2	2669	242840.204868766217	0
2	2676	243274.68495590323	1
2	2678	243274.68495590323	0
2	2685	244626.248230943198	1
2	2687	244626.248230943198	0
2	2720	249624.854965617962	1
2	2722	249624.854965617962	0
2	2728	249710.476578462396	1
2	2730	249710.476578462396	0
2	2736	249941.606956985153	1
2	2738	249941.606956985153	0
2	2745	251262.765125954996	1
2	2747	251262.765125954996	0
2	2750	251364.623342050794	1
2	2759	252172.40856071709	0
2	2796	255336.443601303509	1
2	2798	255336.443601303509	0
2	2804	255613.17068991324	1
2	2806	255613.17068991324	0
2	2809	255674.621485165136	1
2	2814	255691.770025719436	0
2	2817	255785.818923014458	1
2	2822	256024.278166473225	0
2	2834	256630.23652476766	1
2	2839	256674.05942239945	0
2	2845	256718.177818274082	1
2	2847	256718.177818274082	0
2	2887	259626.025759443465	1
2	2889	259626.025759443465	0
2	2895	260579.292393308413	1
2	2897	260579.292393308413	0
2	2921	263337.103650132257	1
2	2923	263337.103650132257	0
2	2934	263497.241405407197	1
2	2939	263513.74212218898	0
2	2950	263843.058949738759	1
2	2955	263896.417817733416	0
2	2987	266474.477869304504	1
2	2989	266474.477869304504	0
2	2996	267055.444229954047	1
2	2998	267055.444229954047	0
2	3004	267066.966533487864	1
2	3006	267066.966533487864	0
2	3037	269386.728506158736	1
2	3039	269386.728506158736	0
2	3045	269900.875028957718	1
2	3047	269900.875028957718	0
2	3054	270027.687145799571	1
2	3059	270116.319080972497	0
2	3088	273290.084770313496	1
2	3090	273290.084770313496	0
2	3096	273594.212426616806	1
2	3098	273594.212426616806	0
2	3113	275926.292054111919	1
2	3115	275926.292054111919	0
2	3122	276840.677109063371	1
2	3124	276840.677109063371	0
2	3148	279074.390149398114	1
2	3150	279074.390149398114	0
2	3157	280756.157866202595	1
2	3159	280756.157866202595	0
2	3174	282690.094517022409	1
2	3176	282690.094517022409	0
2	3199	284913.957769551175	1
2	3201	284913.957769551175	0
2	3216	286242.153131255451	1
2	3218	286242.153131255451	0
2	3225	286624.067505950835	1
2	3227	286624.067505950835	0
2	3241	287889.813910252869	1
2	3243	287889.813910252869	0
2	3258	288729.722713345439	1
2	3260	288729.722713345439	0
2	3274	288935.516140429321	1
2	3276	288935.516140429321	0
2	3317	292890.503606154555	1
2	3319	292890.503606154555	0
2	3322	293238.689730921959	1
2	3327	293463.583192415798	0
2	3342	294491.966465436407	1
2	3344	294491.966465436407	0
2	3350	294880.063419175276	1
2	3352	294880.063419175276	0
2	3367	296755.390606496125	1
2	3369	296755.390606496125	0
2	3372	296830.863934180096	1
2	3377	296895.955834012265	0
2	3381	297118.485385774485	1
2	3386	297151.884113139589	0
2	3406	298902.541499903347	1
2	3411	298955.586044237381	0
2	3426	300131.719982383995	1
2	3428	300131.719982383995	0
2	3434	300407.137849351763	1
2	3436	300407.137849351763	0
2	3442	300950.626781763368	1
2	3444	300950.626781763368	0
2	3450	301206.705599397739	1
2	3456	301637.129108459346	0
2	3472	302404.006222446212	1
2	3477	302624.885817696885	0
2	3483	302908.984280766311	1
2	3488	302965.248281071456	0
2	3503	303129.038476936579	1
2	3508	303194.151064556976	0
2	3541	305032.447071244108	1
2	3546	305213.906506385174	0
2	3558	306639.126771161999	1
2	3560	306639.126771161999	0
2	3594	313185.708801678809	1
2	3596	313185.708801678809	0
2	3603	313554.844308644602	1
2	3608	313564.582457570775	0
2	3619	314223.047875132649	1
2	3621	314223.047875132649	0
2	3628	315235.330854887506	1
2	3630	315235.330854887506	0
2	3636	315754.534552100093	1
2	3638	315754.534552100093	0
2	3653	316656.732521379556	1
2	3655	316656.732521379556	0
2	3678	318727.164319108317	1
2	3680	318727.164319108317	0
2	3703	320889.846619312604	1
2	3705	320889.846619312604	0
2	3709	321304.644392610552	1
2	3714	321671.31239220464	0
2	3737	323220.058765619886	1
2	3739	323220.058765619886	0
2	3745	323533.98384192129	1
2	3747	323533.98384192129	0
2	3759	324571.26483575996	1
2	3764	324599.037223319671	0
2	3773	324795.917200041569	1
2	3778	325077.102334883006	0
2	3781	325128.604638689583	1
2	3786	325269.92256411598	0
2	3829	329289.357570854795	1
2	3831	329289.357570854795	0
2	3846	330668.802988880005	1
2	3848	330668.802988880005	0
2	3855	331644.530925706044	1
2	3857	331644.530925706044	0
2	3863	332276.199130662222	1
2	3868	332293.793573206838	0
2	3901	334292.480226991292	1
2	3904	334322.391708862365	2
2	3909	334414.730131692416	1
2	3915	334600.021636808849	0
2	3938	336807.77301457998	1
2	3940	336807.77301457998	0
2	3946	337232.619977658466	1
2	3948	337232.619977658466	0
2	3955	337682.3467295388	1
2	3957	337682.3467295388	0
2	3963	338371.10772298626	1
2	3965	338371.10772298626	0
2	3968	338522.565589578812	1
2	3974	339130.821381876978	0
2	3989	340628.615731614993	1
2	3991	340628.615731614993	0
2	3994	340897.777267178261	1
2	3997	341056.478745471637	2
2	4002	341254.782254500023	1
2	4007	341364.260026884122	0
2	4018	341573.549194274455	1
2	4023	341624.537306669708	0
2	4054	342447.83446187381	1
2	4062	342781.688474629947	0
2	4092	344917.537342911256	1
2	4098	345744.152418180858	0
2	4104	346303.801018911531	1
2	4106	346303.801018911531	0
2	4110	346571.024421255481	1
2	4115	346593.484927408195	0
2	4129	347978.38009644677	1
2	4131	347978.38009644677	0
2	4143	348611.506583329187	1
2	4148	348684.767311538798	0
2	4181	353572.582435898287	1
2	4183	353572.582435898287	0
2	4190	354531.636621444126	1
2	4192	354531.636621444126	0
2	4198	355128.331713766618	1
2	4200	355128.331713766618	0
2	4232	357629.763558794607	1
2	4234	357629.763558794607	0
2	4249	359846.670923054208	1
2	4251	359846.670923054208	0
2	4263	360212.524475030614	1
2	4268	360573.20911024131	0
2	4274	360836.998901639454	1
2	4276	360836.998901639454	0
2	4283	362349.278497910926	1
2	4285	362349.278497910926	0
2	4291	362832.984635197951	1
2	4297	363615.821231953816	0
2	4317	364517.138525821185	1
2	4319	364517.138525821185	0
2	4338	365669.616957722128	1
2	4343	365701.151244091588	0
2	4369	371046.066784346642	1
2	4371	371046.066784346642	0
2	4374	371498.007049145803	1
2	4379	371911.689391265343	0
2	4389	372809.188916299194	1
2	4394	373129.782810580324	0
2	4410	373354.401287165538	1
2	4415	373445.672885485601	0
2	4436	375915.009519875155	1
2	4438	375915.009519875155	0
2	4464	381424.830546755859	1
2	4466	381424.830546755859	0
2	4472	381495.867055186036	1
2	4474	381495.867055186036	0
2	4481	382644.299731738851	1
2	4483	382644.299731738851	0
2	4490	385219.463050892984	1
2	4492	385219.463050892984	0
2	4507	386704.107814310564	1
2	4509	386704.107814310564	0
2	4533	388546.500446761773	1
2	4535	388546.500446761773	0
2	4555	390033.360667208612	1
2	4560	390038.513624812787	0
2	4566	391019.496013032934	1
2	4568	391019.496013032934	0
2	4583	392528.013497192293	1
2	4585	392528.013497192293	0
2	4588	392666.992848644856	1
2	4593	392679.119840490337	0
2	4600	393021.694277275529	1
2	4602	393021.694277275529	0
2	4653	400833.077435488545	1
2	4655	400833.077435488545	0
2	4669	401715.168079018268	1
2	4671	401715.168079018268	0
2	4678	402058.958575120091	1
2	4680	402058.958575120091	0
2	4705	406903.474239090543	1
2	4707	406903.474239090543	0
2	4713	407638.43222860655	1
2	4715	407638.43222860655	0
2	4722	408514.572101870948	1
2	4724	408514.572101870948	0
2	4749	412639.865506914279	1
2	4751	412639.865506914279	0
2	4774	415165.327113362693	1
2	4776	415165.327113362693	0
2	4788	416627.929945479235	1
2	4794	417791.395618292531	0
2	4809	418948.219945455347	1
2	4811	418948.219945455347	0
2	4814	419711.218163950665	1
2	4818	420442.728378624569	2
2	4823	420453.130384211422	1
2	4828	420784.765846556746	0
2	4831	420886.553048996129	1
2	4836	421080.377372544965	0
2	4843	421553.19800936844	1
2	4845	421553.19800936844	0
2	4848	421699.913292853899	1
2	4856	421816.765475866183	0
2	4901	425844.875183056544	1
2	4903	425844.875183056544	0
2	4910	426120.692512609904	1
2	4912	426120.692512609904	0
2	4915	426679.223248869168	1
2	4918	426754.630296782927	2
2	4923	427330.87548459544	1
2	4932	427521.25725572828	0
2	4943	428845.318792567881	1
2	4945	428845.318792567881	0
2	4985	431659.030052589974	1
2	4987	431659.030052589974	0
2	4990	431920.257922818556	1
2	4999	432307.107977723975	0
2	5027	434216.140925456803	1
2	5029	434216.140925456803	0
2	5044	436054.511405781223	1
2	5046	436054.511405781223	0
2	5049	436371.333650342729	1
2	5055	437141.695755117867	0
2	5077	437952.028115555782	1
2	5079	437952.028115555782	0
2	5086	438349.197683454625	1
2	5088	438349.197683454625	0
2	5094	439387.059723550556	1
2	5096	439387.059723550556	0
2	5129	442808.312620750507	1
2	5131	442808.312620750507	0
2	5137	443650.361425039447	1
2	5139	443650.361425039447	0
2	5146	444821.889318671649	1
2	5148	444821.889318671649	0
2	5154	445485.713363184408	1
2	5156	445485.713363184408	0
2	5171	445976.036287253551	1
2	5176	446247.619566572211	0
2	5187	446569.578537065494	1
2	5191	447127.96808809907	2
2	5196	447415.529889706818	1
2	5201	447499.911733709155	0
2	5226	449088.999421070949	1
2	5231	449256.996138590817	0
2	5254	450162.518549977057	1
2	5256	450162.518549977057	0
2	5259	450190.175269959835	1
2	5262	450194.858281034163	2
2	5267	450391.123712247407	1
2	5272	450715.673886324814	0
2	5306	456550.333942490519	1
2	5308	456550.333942490519	0
2	5316	459397.297744027664	1
2	5318	459397.297744027664	0
2	5352	465515.551196281106	1
2	5354	465515.551196281106	0
2	5360	466464.747386696562	1
2	5362	466464.747386696562	0
2	5378	469051.339473681401	1
2	5380	469051.339473681401	0
2	5392	469645.848711575611	1
2	5397	469728.713997286903	0
2	5403	469782.661341144757	1
2	5405	469782.661341144757	0
2	5421	472579.16676621306	1
2	5423	472579.16676621306	0
2	5426	472783.48142416731	1
2	5435	474106.441410622994	0
2	5446	474979.177899317355	1
2	5448	474979.177899317355	0
2	5482	480705.665945792551	1
2	5484	480705.665945792551	0
2	5500	483755.777205363856	1
2	5502	483755.777205363856	0
2	5509	485800.429631720764	1
2	5511	485800.429631720764	0
2	5518	487108.461731835714	1
2	5520	487108.461731835714	0
2	5543	487940.592918497803	1
2	5545	487940.592918497803	0
2	5551	488570.092509194689	1
2	5553	488570.092509194689	0
2	5559	488619.239912561723	1
2	5561	488619.239912561723	0
2	5564	488646.52144957499	1
2	5569	488722.912251400618	0
2	5610	492012.017825476486	1
2	5612	492012.017825476486	0
2	5648	501921.393602795526	1
2	5650	501921.393602795526	0
2	5656	502207.017119676551	1
2	5658	502207.017119676551	0
2	5682	504301.451636366197	1
2	5684	504301.451636366197	0
2	5690	504753.76960289202	1
2	5692	504753.76960289202	0
2	5695	505076.91602896277	1
2	5703	505379.413435733643	0
2	5707	505577.702728348178	1
2	5712	505689.534399668472	0
2	5748	508442.144282225601	1
2	5750	508442.144282225601	0
2	5757	509553.336517793418	1
2	5759	509553.336517793418	0
2	5766	510657.446319521985	1
2	5771	510880.797390159356	0
2	5782	511316.020394294718	1
2	5784	511316.020394294718	0
2	5791	512272.903275318541	1
2	5793	512272.903275318541	0
2	5805	513028.990862369511	1
2	5810	513147.165421987501	0
2	5813	513449.973321698779	1
2	5818	513993.560132611577	0
2	5830	515552.401617310767	1
2	5835	515638.672982103053	0
2	5850	516334.263195481504	1
2	5852	516334.263195481504	0
2	5858	517065.744551230917	1
2	5860	517065.744551230917	0
2	5866	517313.78187920651	1
2	5868	517313.78187920651	0
2	5935	524270.069644884598	1
2	5937	524270.069644884598	0
2	5944	526384.437245372841	1
2	5946	526384.437245372841	0
2	5962	528157.754462458953	1
2	5964	528157.754462458953	0
2	5970	528487.505846072614	1
2	5972	528487.505846072614	0
2	5987	530038.298005787696	1
2	5989	530038.298005787696	0
2	5995	530876.773886990687	1
2	5997	530876.773886990687	0
2	6001	531300.362454646653	1
2	6006	531640.478458942485	0
2	6029	533612.143621748776	1
2	6031	533612.143621748776	0
2	6054	535288.133893411521	1
2	6056	535288.133893411521	0
2	6062	535318.600944959438	1
2	6064	535318.600944959438	0
2	6067	535334.316392563759	1
2	6079	536181.567072852424	0
2	6082	536651.141840812983	1
2	6085	536670.870077971032	2
2	6090	536788.862354786109	1
2	6094	537004.324881676478	2
2	6102	537916.402722740269	1
2	6107	537918.448313997167	0
2	6129	538532.649780402684	1
2	6137	539003.945601207022	0
2	6170	540853.881601888688	1
2	6172	540853.881601888688	0
2	6184	541564.037105869977	1
2	6189	541701.820209114416	0
2	6221	545455.987788681886	1
2	6223	545455.987788681886	0
2	6226	545580.932932131875	1
2	6232	546340.810283040175	0
2	6243	547048.63327987537	1
2	6248	547451.038796214639	0
2	6255	548112.607325257549	1
2	6257	548112.607325257549	0
2	6268	548406.38948360454	1
2	6271	548596.862407036196	2
2	6277	549180.396307870277	1
2	6282	549327.944310567411	0
2	6297	550508.225990517077	1
2	6299	550508.225990517077	0
2	6322	552462.007442962022	1
2	6324	552462.007442962022	0
2	6327	552551.497109826342	1
2	6338	553181.706436909506	0
2	6374	558491.806839798064	1
2	6376	558491.806839798064	0
2	6384	561724.132883128564	1
2	6386	561724.132883128564	0
2	6389	561859.368809313321	1
2	6394	562291.307456922781	0
2	6401	563095.683897715804	1
2	6403	563095.683897715804	0
2	6428	568281.11995803226	1
2	6430	568281.11995803226	0
2	6446	570844.02748719226	1
2	6448	570844.02748719226	0
2	6454	571374.589506079936	1
2	6456	571374.589506079936	0
2	6479	572735.264155591826	1
2	6484	572789.478292460902	0
2	6487	572897.31723890684	1
2	6492	572916.404955723513	0
2	6509	574254.297365861952	1
2	6514	574416.348708009798	0
2	6539	578870.975180177162	1
2	6541	578870.975180177162	0
2	6548	579387.711621664474	1
2	6550	579387.711621664474	0
2	6556	579978.709344202423	1
2	6558	579978.709344202423	0
2	6564	580493.69664427452	1
2	6566	580493.69664427452	0
2	6578	581267.160817178008	1
2	6583	581359.241520933608	0
2	6590	582580.562379291121	1
2	6592	582580.562379291121	0
2	6648	585636.440203354682	1
2	6650	585636.440203354682	0
2	6665	587315.946453915192	1
2	6667	587315.946453915192	0
2	6675	589730.289033729862	1
2	6677	589730.289033729862	0
2	6680	589888.386340493527	1
2	6686	591271.425496417534	0
2	6689	591329.887116295111	1
2	6694	591507.403103454017	0
2	6700	592213.401715172984	1
2	6702	592213.401715172984	0
2	6739	594896.813694491282	1
2	6744	595169.596086890519	0
2	6751	595714.380093266146	1
2	6753	595714.380093266146	0
2	6776	597420.325640853815	1
2	6778	597420.325640853815	0
2	6793	598581.777437589507	1
2	6795	598581.777437589507	0
2	6801	599436.019641457215	1
2	6803	599436.019641457215	0
2	6809	599492.349947366343	1
2	6811	599492.349947366343	0
2	6834	600938.123486524458	1
2	6842	601083.782409800787	0
2	6845	601102.525698816936	1
2	6850	601341.610842817972	0
2	6875	602966.218982483506	1
2	6877	602966.218982483506	0
2	6881	603647.251866829682	1
2	6886	603967.481501185222	0
2	6919	607953.728603757781	1
2	6921	607953.728603757781	0
2	6924	608029.857792634022	1
2	6929	608196.756456888196	0
2	6932	608453.188361313127	1
2	6938	609084.58005104034	0
2	6944	609388.693247821709	1
2	6946	609388.693247821709	0
2	6971	614083.156302907643	1
2	6973	614083.156302907643	0
2	6980	615211.862256907061	1
2	6982	615211.862256907061	0
2	6985	615804.93365280513	1
2	6993	615992.727713716991	0
2	6996	616050.435215796303	1
2	6999	616168.378892401911	2
2	7004	616197.827191932102	1
2	7011	616677.426186552841	2
2	7019	616837.214991854225	1
2	7024	617062.258699973173	0
2	7035	617856.686313556941	1
2	7044	618154.772672967285	0
2	7089	623081.451442425529	1
2	7091	623081.451442425529	0
2	7098	625138.439759406724	1
2	7100	625138.439759406724	0
2	7106	625360.559546588611	1
2	7108	625360.559546588611	0
2	7115	625839.899161606997	1
2	7120	625935.293894647311	0
2	7148	627441.819956495556	1
2	7150	627441.819956495556	0
2	7164	628298.291034734333	1
2	7166	628298.291034734333	0
2	7208	634049.448177770435	1
2	7210	634049.448177770435	0
2	7213	634226.903441714918	1
2	7218	634339.438848674544	0
2	7225	635426.911090784354	1
2	7227	635426.911090784354	0
2	7242	636468.7925814011	1
2	7247	636476.415799220806	0
2	7258	637418.821804793908	1
2	7260	637418.821804793908	0
2	7267	637808.963750592057	1
2	7269	637808.963750592057	0
2	7280	638879.974273784568	1
2	7284	639222.348073457721	2
2	7289	639236.016395514289	1
2	7297	639885.25672497355	0
2	7344	645656.772159398487	1
2	7346	645656.772159398487	0
2	7354	648577.441336087528	1
2	7356	648577.441336087528	0
2	7371	650715.320295799307	1
2	7373	650715.320295799307	0
2	7376	650908.754372458812	1
2	7382	651010.968040729777	0
2	7407	656351.644956712972	1
2	7409	656351.644956712972	0
2	7412	656759.588552790749	1
2	7417	656805.882642817994	0
2	7449	659379.811161412205	1
2	7451	659379.811161412205	0
2	7458	660199.961146394782	1
2	7460	660199.961146394782	0
2	7466	660696.060097578558	1
2	7468	660696.060097578558	0
2	7471	660728.826247442164	1
2	7474	661348.322874468874	2
2	7483	661583.871059720758	1
2	7488	661666.815781372901	0
2	7516	663440.666595533014	1
2	7518	663440.666595533014	0
2	7521	663573.620448653282	1
2	7526	663727.798253711874	0
2	7559	668700.315931202606	1
2	7561	668700.315931202606	0
2	7568	669780.830485682452	1
2	7570	669780.830485682452	0
2	7585	671490.140380155683	1
2	7587	671490.140380155683	0
2	7602	672355.340948753232	1
2	7604	672355.340948753232	0
2	7610	672597.954840271221	1
2	7612	672597.954840271221	0
2	7634	673415.758763202177	1
2	7636	673415.758763202177	0
2	7665	675318.233744381378	1
2	7670	675394.546214901931	0
2	7689	683007.937368657542	1
2	7691	683007.937368657542	0
2	7697	683495.221207163202	1
2	7699	683495.221207163202	0
2	7714	685146.671534080545	1
2	7716	685146.671534080545	0
2	7719	685286.977557512548	1
2	7724	685354.447666276667	0
2	7736	686556.759101015006	1
2	7741	686607.207498960351	0
2	7756	687140.961770019013	1
2	7759	687141.250076519896	2
2	7764	687384.556689955831	1
2	7769	687555.57281837621	0
2	7807	691612.293060032189	1
2	7809	691612.293060032189	0
2	7821	693365.661246639497	1
2	7826	693606.311382776925	0
2	7832	693620.524987848406	1
2	7834	693620.524987848406	0
2	7837	693776.573279380837	1
2	7842	693925.086323017854	0
2	7865	695903.841635082159	1
2	7867	695903.841635082159	0
2	7870	695954.27509770599	1
2	7875	695980.460261711006	0
2	7909	700870.975787396714	1
2	7911	700870.975787396714	0
2	7928	706103.875333029196	1
2	7930	706103.875333029196	0
2	7947	710054.462534614103	1
2	7949	710054.462534614103	0
2	7967	716687.291708204505	1
2	7969	716687.291708204505	0
2	7984	718103.050384247439	1
2	7986	718103.050384247439	0
2	7989	718204.816392927607	1
2	7994	718254.646170914214	0
2	8006	719591.291159060463	1
2	8011	719662.777962170831	0
2	8018	720593.536681392383	1
2	8020	720593.536681392383	0
2	8054	726554.081617914819	1
2	8056	726554.081617914819	0
2	8059	726636.48139388765	1
2	8064	727220.674740590807	0
2	8071	728753.377100976299	1
2	8073	728753.377100976299	0
2	8088	730149.014597069151	1
2	8090	730149.014597069151	0
2	8103	732913.780508509856	1
2	8108	733023.34980662933	0
2	8115	734885.134594700062	1
2	8117	734885.134594700062	0
2	8124	735152.921276654383	1
2	8126	735152.921276654383	0
2	8140	736361.40686384136	1
2	8142	736361.40686384136	0
2	8166	738741.798529579303	1
2	8168	738741.798529579303	0
2	8180	739953.689056356399	1
2	8185	739962.143063207963	0
2	8192	741277.792545286966	1
2	8194	741277.792545286966	0
2	8222	743695.616976331658	1
2	8227	743899.950754326864	0
2	8233	743975.142673699211	1
2	8235	743975.142673699211	0
2	8267	746613.336498408434	1
2	8269	746613.336498408434	0
2	8287	751724.379162533506	1
2	8289	751724.379162533506	0
2	8295	752818.938212416804	1
2	8297	752818.938212416804	0
2	8304	753180.803896177422	1
2	8306	753180.803896177422	0
2	8309	753404.41126244082	1
2	8314	753497.128240972986	0
2	8354	756851.205623879666	1
2	8356	756851.205623879666	0
2	8371	758002.492502488984	1
2	8373	758002.492502488984	0
2	8379	758777.43738148311	1
2	8381	758777.43738148311	0
2	8396	760164.935707846404	1
2	8398	760164.935707846404	0
2	8422	763080.905828667302	1
2	8424	763080.905828667302	0
2	8430	763248.245045345177	1
2	8436	764521.011289878139	0
2	8448	765400.493795829822	1
2	8450	765400.493795829822	0
2	8456	765723.100269957243	1
2	8461	765941.73551493563	0
2	8473	767385.555942449552	1
2	8475	767385.555942449552	0
2	8516	772038.975305715664	1
2	8518	772038.975305715664	0
2	8525	772804.631409119768	1
2	8527	772804.631409119768	0
2	8535	776286.577079750884	1
2	8537	776286.577079750884	0
2	8544	777693.733423753742	1
2	8546	777693.733423753742	0
2	8558	779423.133492920541	1
2	8567	780331.376790920941	0
2	8578	781242.172628525476	1
2	8580	781242.172628525476	0
2	8613	784585.324989772458	1
2	8615	784585.324989772458	0
2	8618	785223.777233798844	1
2	8623	785790.355729297594	0
2	8635	786405.511904812711	1
2	8644	788183.461862911278	0
2	8661	789032.532263481544	1
2	8669	789441.741607441235	0
2	8672	790120.871145756519	1
2	8677	790175.078610753782	0
2	8698	792685.456003211766	1
2	8700	792685.456003211766	0
2	8711	792896.509008035765	1
2	8716	793402.875439770134	0
2	8740	795611.982458422684	1
2	8742	795611.982458422684	0
2	8757	796906.531730110318	1
2	8759	796906.531730110318	0
2	8766	798420.711105254309	1
2	8768	798420.711105254309	0
2	8790	803071.019347031155	1
2	8795	803608.445210634867	0
2	8803	806294.155003585985	1
2	8805	806294.155003585985	0
2	8811	806945.191806495844	1
2	8813	806945.191806495844	0
2	8838	810888.247815632061	1
2	8840	810888.247815632061	0
2	8847	812308.181817955032	1
2	8849	812308.181817955032	0
2	8856	813960.288470876883	1
2	8858	813960.288470876883	0
2	8874	816351.20986762065	1
2	8876	816351.20986762065	0
2	8882	817457.585352716462	1
2	8884	817457.585352716462	0
2	8904	818306.635513657544	1
2	8912	818912.04803240749	0
2	8938	821237.279487239694	1
2	8943	821520.3869922923	0
2	8949	821534.722359406497	1
2	8951	821534.722359406497	0
2	8957	821748.688724627363	1
2	8959	821748.688724627363	0
2	8983	823503.276157429407	1
2	8985	823503.276157429407	0
2	8988	823646.120204952899	1
2	8993	823843.575819701396	0
2	9004	824240.070856212843	1
2	9016	825350.207304797528	0
2	9024	825847.865577217084	1
2	9027	826064.136091342232	2
2	9032	826124.890913478375	1
2	9037	826416.588733409809	0
2	9057	827965.091786314374	1
2	9059	827965.091786314374	0
2	9075	830260.435471526282	1
2	9077	830260.435471526282	0
2	9091	830997.222683039738	1
2	9093	830997.222683039738	0
2	9108	831824.918352535298	1
2	9113	832261.785613796477	0
2	9117	832597.881363652954	1
2	9120	832661.281636144545	2
2	9125	833159.279413383215	1
2	9133	833536.507512667289	0
2	9141	833943.365792365636	1
2	9147	834010.845803403758	0
2	9163	834803.930671685849	1
2	9168	835032.518696625259	0
2	9205	837824.553378077827	1
2	9210	837978.545135746996	0
2	9213	838093.53118172777	1
2	9218	838248.691143808965	0
2	9225	838666.141168277082	1
2	9227	838666.141168277082	0
2	9241	839447.075304254455	1
2	9243	839447.075304254455	0
2	9275	842158.853063716471	1
2	9277	842158.853063716471	0
2	9293	844673.83601520678	1
2	9295	844673.83601520678	0
2	9301	845099.276125541193	1
2	9303	845099.276125541193	0
2	9310	846551.262816638549	1
2	9312	846551.262816638549	0
2	9332	847754.631251603116	1
2	9337	848356.665194963406	0
2	9358	850571.633411464588	1
2	9363	850819.572654781223	0
2	9366	850898.250842737424	1
2	9371	851056.603241849499	0
2	9378	852609.591504735754	1
2	9380	852609.591504735754	0
2	9414	859069.547229257134	1
2	9416	859069.547229257134	0
2	9424	861951.599165316436	1
2	9426	861951.599165316436	0
2	9450	864684.047978115876	1
2	9452	864684.047978115876	0
2	9467	865866.227175738725	1
2	9469	865866.227175738725	0
2	9480	866338.680724299395	1
2	9485	866373.228699546317	0
2	9491	866569.04736677988	1
2	9493	866569.04736677988	0
2	9500	867205.662504399982	1
2	9505	867236.188562611728	0
2	9525	869484.941229034	1
2	9527	869484.941229034	0
2	9542	870236.167528154414	1
2	9544	870236.167528154414	0
2	9550	870791.757460933048	1
2	9552	870791.757460933048	0
2	9591	872499.989461830789	1
2	9593	872499.989461830789	0
2	9600	873738.441256767388	1
2	9602	873738.441256767388	0
2	9605	873780.068875133153	1
2	9610	874354.446186516507	0
2	9617	875621.910802866617	1
2	9619	875621.910802866617	0
2	9651	878608.440162663122	1
2	9653	878608.440162663122	0
2	9678	882276.777057703174	1
2	9680	882276.777057703174	0
2	9683	882473.707357473539	1
2	9688	883003.540522968085	0
2	9703	884670.213645301701	1
2	9705	884670.213645301701	0
2	9728	886233.805822689933	1
2	9730	886233.805822689933	0
2	9736	886312.201462983163	1
2	9738	886312.201462983163	0
2	9745	886657.015246765854	1
2	9747	886657.015246765854	0
2	9750	886670.677115015574	1
2	9755	887286.203954591925	0
2	9758	887703.964375197391	1
2	9766	887997.964145285768	0
2	9797	893455.403727218729	1
2	9799	893455.403727218729	0
2	9819	894958.307374744323	1
2	9822	894984.247629840552	2
2	9830	895334.025144963741	1
2	9836	895540.694840876133	0
2	9852	896228.99592369579	1
2	9857	896395.375635955496	0
2	9869	897952.500872222118	1
2	9874	898440.315367723411	0
2	9882	900220.182466780506	1
2	9884	900220.182466780506	0
2	9907	902421.398915559626	1
2	9909	902421.398915559626	0
2	9912	902503.613131715404	1
2	9920	902874.488321279013	0
2	9940	904101.890802447587	1
2	9942	904101.890802447587	0
2	9949	905784.151505735777	1
2	9951	905784.151505735777	0
2	9966	906182.458807831895	1
2	9971	906282.883806560059	0
2	9988	908273.65052202285	1
2	9993	908306.027857589292	0
2	9996	908314.393137155377	1
2	10001	908616.82233433479	0
2	10021	910470.946694288375	1
2	10027	910570.951314719682	0
2	10034	912398.260609338674	1
2	10036	912398.260609338674	0
2	10069	916988.28044167673	1
2	10071	916988.28044167673	0
2	10077	917357.996907561724	1
2	10079	917357.996907561724	0
2	10085	917660.921800893091	1
2	10087	917660.921800893091	0
2	10091	918373.844475277358	1
2	10096	918565.3741955504	0
2	10099	918937.342640554661	1
2	10104	918999.731688039241	0
2	10107	919035.799211378721	1
2	10112	919195.698079681106	0
2	10118	919247.695743731275	1
2	10123	919347.324065043278	0
2	10152	922143.00947034271	1
2	10154	922143.00947034271	0
2	10185	923931.222485776987	1
2	10187	923931.222485776987	0
2	10194	925028.164814838732	1
2	10196	925028.164814838732	0
2	10203	926235.7145972596	1
2	10205	926235.7145972596	0
2	10230	930061.885973657383	1
2	10232	930061.885973657383	0
2	10238	930155.987554704152	1
2	10243	930262.042878229348	0
2	10263	932770.069020468988	1
2	10265	932770.069020468988	0
2	10285	933378.665993938719	1
2	10290	933642.818657519819	0
2	10293	934315.121610391035	1
2	10297	934857.315903744761	2
2	10302	934909.165415182904	1
2	10305	935122.674910385146	2
2	10310	935136.633610373754	1
2	10315	935156.697769366646	0
2	10321	935420.663311347306	1
2	10326	935522.491051509047	0
2	10329	935758.663513068192	1
2	10334	935807.903128332794	0
2	10337	935925.208445289561	1
2	10343	936199.553227440665	0
2	10382	937661.566049682833	1
2	10387	937721.432242140161	0
2	10438	942680.576471845701	1
2	10440	942680.576471845701	0
2	10446	942813.453910790582	1
2	10448	942813.453910790582	0
2	10466	948311.754671868118	1
2	10468	948311.754671868118	0
2	10471	948608.137823450742	1
2	10474	948857.341246470817	2
2	10479	949040.409268902478	1
2	10488	949525.949994918569	0
3	811	83427.235337634839	547.42725389702
3	819	83633.92503907387	178.72636065777
3	835	83919.840852066895	0
3	853	86821.006478581532	90.125723760607
3	862	87173.38778227944	315.55826306033
3	870	87206.777904791448	0
3	896	90848.564120164639	530.39060264337
3	906	93621.51622436364	0
3	959	100759.139582279368	121.05730773656
3	967	101398.053797419508	0
3	1008	102966.924604531124	0
3	1016	103097.24903912455	0
3	1025	103731.579477037642	400.49949935618
3	1033	104228.675720678776	216.82927354319
3	1041	104958.188187052786	0
3	1050	105364.978607777362	300.21913231951
3	1066	106079.843483728467	0
3	1094	111663.066511686091	0
3	1127	113507.484781412812	147.52280622251
3	1136	114179.002145709638	0
3	1144	115189.884136635818	0
3	1153	115744.061245760996	0
3	1178	117049.811670147085	0
3	1188	120031.065377308019	0
3	1196	120343.768483496568	0
3	1222	123219.441631763808	0
3	1238	123560.874950075431	0
3	1248	127001.376522005441	0
3	1265	127988.637384807401	0
3	1326	135875.498803577451	0
3	1343	137443.519506020688	0
3	1360	138701.058236162574	0
3	1368	139013.654909262053	0
3	1376	139159.498913533189	6.041243855768
3	1385	139531.861024800459	0
3	1413	142464.369966720933	288.36712444247
3	1419	142528.243757301608	193.67570547751
3	1443	143742.155987195627	0
3	1452	144275.553632848935	0
3	1460	145355.398686856699	740.09194520416
3	1477	146632.514063207124	0
3	1494	148269.785312440556	0
3	1503	148614.796698308025	0
3	1536	151296.62001547762	0
3	1545	151691.872883082426	198.99701469877
3	1562	154152.120579861709	0
3	1571	155600.779800625174	0
3	1606	160382.4201544577	0
[...]
7	4608	393817.461455283164	4
7	4616	395090.191285054208	3
7	4621	395266.289734019811	2
7	4624	395792.173757481305	1
7	4627	395992.571897025074	0
7	4658	400852.015036029976	1
7	4660	401568.495987961442	0
7	4674	401879.255858357411	1
7	4683	402858.577982143597	2
7	4687	405212.629076796512	1
7	4692	405243.566834642425	0
7	4710	407412.226069694075	1
7	4718	407810.967316674036	2
7	4727	408790.444085923697	3
7	4730	409740.443169924184	2
7	4738	410259.296566030369	1
7	4754	412679.16407201881	2
7	4756	413314.77571818284	1
7	4764	413792.768922562985	0
7	4779	415202.463004365194	1
7	4782	416539.580456581429	0
7	4797	417946.984238404579	1
7	4799	418237.601774750855	0
7	4821	420453.130384211422	1
7	4826	420784.765846556746	2
7	4834	421080.377372544965	3
7	4839	421130.173663674566	4
7	4850	421746.224156056836	3
7	4854	421816.765475866183	4
7	4859	421829.259717082868	5
7	4863	422071.732143949679	4
7	4875	423439.000490732225	3
7	4880	423505.096903881778	2
7	4892	424763.602293619673	1
7	4906	425919.44202008753	2
7	4921	427330.87548459544	3
7	4925	427362.01775862617	2
7	4930	427521.25725572828	3
7	4935	427930.775669649219	4
7	4947	428899.881387126096	3
7	4951	429050.153638050624	2
7	4955	429076.49925406403	3
7	4959	429131.197816160413	2
7	4962	429446.658290386762	1
7	4993	432258.215496908296	0
7	4997	432307.107977723975	1
7	5001	432465.010290184621	0
7	5005	432658.769595171625	1
7	5015	433586.17264003056	0
7	5032	434398.940706863427	1
7	5035	435186.159591287105	0
7	5053	437141.695755117867	1
7	5058	437227.262351160255	2
7	5060	437327.910391980893	1
7	5068	437705.572717285762	0
7	5083	438073.559476680125	1
7	5091	438520.970296426952	2
7	5100	439531.737201889105	3
7	5102	439713.935186056192	2
7	5110	440796.112323752958	1
7	5119	441403.779601525497	0
7	5134	442814.744945637101	1
7	5142	443702.340671157794	2
7	5151	444875.749516703576	3
7	5160	445668.701074565012	4
7	5162	445676.74894975559	3
7	5167	445939.987594762129	2
7	5178	446389.079348261053	1
7	5182	446457.442494900305	2
7	5199	447499.911733709155	3
7	5204	448152.96694617968	4
7	5211	448389.123241623476	3
7	5220	448733.299527738467	2
7	5234	449477.526826921515	3
7	5236	449751.161875865434	2
7	5244	449964.695145132087	1
7	5265	450391.123712247407	2
7	5270	450715.673886324814	3
7	5275	450722.664221222124	4
7	5277	450892.448773880985	3
7	5285	451005.217436238711	2
7	5294	451562.620700301113	1
7	5311	456573.257747002394	2
7	5320	459527.922293962561	1
7	5324	459912.005755206509	2
7	5331	460422.384063644211	1
7	5341	463017.720390605081	0
7	5357	465596.87154388212	1
7	5366	466654.783510061123	2
7	5368	467774.519466029047	1
7	5383	469176.016434292584	2
7	5386	469553.985201523057	1
7	5400	469750.275243176755	2
7	5408	470194.043659986804	3
7	5411	471851.589507320152	2
7	5428	473281.261821024116	1
7	5433	474106.441410622994	2
7	5438	474311.106378850594	3
7	5451	475119.524861871541	4
7	5453	475299.461902551651	3
7	5458	475386.314741183713	2
7	5470	476590.382118139109	1
7	5487	481098.664011233115	2
7	5490	481794.857203703962	1
7	5505	484310.871009510941	2
7	5514	485828.831994887928	3
7	5523	487176.99808124203	4
7	5525	487179.356968609107	3
7	5531	487713.174341737158	2
7	5548	488399.528230141868	3
7	5556	488618.283497749686	4
7	5567	488722.912251400618	5
7	5572	488776.351461044082	6
7	5575	489606.16213069772	5
7	5583	489992.73933661045	4
7	5588	490071.065141896232	3
7	5591	490474.706618701333	2
7	5615	492185.030697898574	3
7	5617	492290.90493416839	2
7	5625	493012.435488080675	1
7	5634	494301.190532704703	0
7	5653	502091.198249081678	1
7	5662	502962.167525627562	2
7	5664	503185.16121347636	1
7	5673	504044.29924735845	0
7	5687	504316.833218197582	1
7	5697	505278.710962327079	0
7	5701	505379.413435733643	1
7	5710	505689.534399668472	2
7	5715	505736.135601342807	3
7	5722	506735.096151619718	2
7	5727	506854.43536869283	1
7	5739	507848.313507709498	0
7	5754	508688.478996335189	1
7	5761	509630.347634847332	0
7	5769	510880.797390159356	1
7	5774	510881.964111220651	2
7	5788	512075.316272576801	3
7	5796	512793.452292983622	4
7	5798	512877.926817679778	3
7	5816	513993.560132611577	4
7	5821	514073.462400155837	5
7	5824	515387.292356236148	4
7	5838	515648.53431986407	5
7	5840	515798.037327997784	4
7	5855	516893.088204848708	5
7	5863	517101.821056639169	6
7	5870	517377.01341701785	5
7	5874	517585.590026428477	4
7	5878	517879.423492950353	5
7	5882	517938.57098509487	4
7	5885	517947.776874039018	3
7	5888	517982.337384986981	2
7	5891	518633.418869911185	1
7	5916	520792.761135323423	0
7	5941	525326.634121915623	1
7	5949	526419.058023952406	2
7	5952	527713.176257419588	1
7	5967	528414.132248939254	2
7	5974	528566.503796750006	1
7	5978	528628.374048643532	2
7	5992	530339.080967132845	3
7	6004	531640.478458942485	4
7	6008	531885.517704535303	3
7	6012	532391.711937328716	4
7	6016	532408.068056584821	3
7	6033	533686.441419709443	2
7	6036	533791.061798319703	1
7	6040	533994.120840304223	2
7	6059	535288.398357919681	3
7	6069	535408.590185461468	2
7	6073	535993.799873465284	1
7	6077	536181.567072852424	2
7	6088	536788.862354786109	3
7	6096	537792.03102960018	2
7	6100	537916.402722740269	3
7	6105	537918.448313997167	4
7	6110	537994.966912043533	5
7	6124	538483.768777075121	4
7	6131	538677.774204321911	3
7	6139	539024.699198240985	2
7	6143	539382.264294275937	3
7	6160	539616.76541107757	2
7	6175	541314.930852085336	3
7	6177	541347.576068281763	2
7	6191	541913.559326764	1
7	6195	542150.28455023171	2
7	6203	543338.394134095935	1
7	6211	544056.729990266867	0
7	6230	546340.810283040175	1
7	6235	546516.014231443316	2
7	6237	546677.845445228942	1
7	6252	548036.408771321301	2
7	6260	548282.446686228198	3
7	6262	548404.079509449368	2
7	6280	549327.944310567411	3
7	6285	549806.812557411534	4
7	6287	549935.973302272327	3
7	6302	550572.603946657041	4
7	6304	550935.433474627212	3
7	6312	551875.257729123903	2
7	6329	552652.610170242634	1
7	6332	552833.138379079749	0
7	6336	553181.706436909506	1
7	6342	553522.096805243997	2
7	6351	554038.379940624774	1
7	6363	555485.182123618434	0
7	6379	559361.66001270645	1
7	6392	562291.307456922781	2
7	6398	562730.566985699071	3
7	6406	563108.557666445911	4
7	6409	564468.601423982924	3
7	6418	566754.663065380407	2
7	6433	568327.595964383257	3
7	6437	570538.522843286889	2
7	6451	571025.441264293025	3
7	6459	571439.38799739853	4
7	6462	571647.424414173211	3
7	6470	572687.952884635552	2
7	6475	572698.774028885114	1
7	6490	572916.404955723513	2
7	6496	573321.606910735349	3
7	6503	573862.665672130529	2
7	6518	574694.986227131028	3
7	6520	574971.084465091037	2
7	6529	576472.694818354269	1
7	6544	578921.150697137651	2
7	6553	579861.617425826898	3
7	6561	580015.836493912472	4
7	6570	580600.876861494234	5
7	6572	580628.039791017963	4
7	6586	581421.061223611394	5
7	6595	582640.884112635317	6
7	6597	583230.152140613748	5
7	6605	583389.371988783119	4
7	6614	583851.119513416893	3
7	6622	583905.237730518748	2
7	6627	583986.254618217317	1
7	6638	584747.90691095771	0
7	6653	585959.815748369502	1
7	6655	586123.805480461255	0
7	6670	587396.59539449559	1
7	6684	591271.425496417534	2
7	6692	591507.403103454017	3
7	6697	591656.226643309404	4
7	6705	592752.602104061366	3
7	6708	592779.737224180459	2
7	6711	592887.002212593336	1
7	6715	592920.142115146968	2
7	6719	593164.836580283849	1
7	6748	595644.300880935969	2
7	6756	595913.59339119148	3
7	6758	596338.052888066693	2
7	6766	596819.116151276939	1
7	6780	598085.503519786138	0
7	6784	598221.864466282409	1
7	6798	598763.63072723745	2
7	6806	599476.907559519351	3
7	6814	599779.568416743376	4
7	6816	599838.735557713118	3
7	6825	600284.510583209606	2
7	6830	600759.078441849775	1
7	6836	601037.540085955124	0
7	6848	601341.610842817972	1
7	6854	601504.951929617085	2
7	6866	602567.780877789875	1
7	6884	603967.481501185222	2
7	6889	604102.994145703989	3
7	6892	604811.766813640874	2
7	6900	605181.343549921677	1
7	6909	606666.268177270323	0
7	6927	608196.756456888196	1
7	6936	609084.58005104034	2
7	6941	609194.345373224579	3
7	6949	609449.788975762246	4
7	6951	609924.675076131403	3
7	6956	609948.204727346575	2
7	6976	614429.355488074829	3
7	6987	615907.180946779706	2
7	6991	615992.727713716991	3
7	7002	616197.827191932102	4
7	7006	616274.183181439962	3
7	7013	616810.946887822536	2
7	7017	616837.214991854225	3
7	7022	617062.258699973173	4
7	7026	617454.483578368933	3
7	7030	617586.365239159217	4
7	7037	617939.918494360567	3
7	7047	618187.861642924213	4
7	7051	618433.939995856077	3
7	7079	621651.214001335991	2
7	7094	623972.723191931685	3
7	7103	625336.313050657452	4
7	7111	625839.549024176227	3
7	7118	625935.293894647311	4
7	7123	626084.964302952538	5
7	7127	626094.979490775313	4
7	7130	626411.789921820891	3
7	7152	627484.202638683011	2
7	7156	627501.357616804039	3
7	7170	628672.802267444921	4
7	7172	629270.598448986344	3
7	7181	631432.57056746967	2
7	7190	632541.592866427715	1
7	7199	633563.455341860345	0
7	7216	634339.438848674544	1
7	7222	634502.90365705189	2
7	7230	635809.639536041994	3
7	7233	636323.308972336106	2
7	7238	636408.630826492184	1
7	7250	636477.761703942372	2
7	7264	637572.075430747149	3
7	7272	638055.916083861716	4
7	7274	638855.75828466403	3
7	7291	639293.323873281244	2
7	7295	639885.25672497355	3
7	7300	639937.702468182536	4
7	7307	640262.00012534327	3
7	7312	640285.113132115812	2
7	7324	640917.871578115899	1
7	7334	643647.838836428608	0
7	7349	645725.087733411534	1
7	7359	648674.761876734873	2
7	7362	649972.624729390976	1
7	7380	651010.968040729777	2
7	7384	651079.655181426617	1
7	7388	651458.497333003666	2
7	7395	652115.640575780358	1
7	7415	656805.882642817994	2
7	7420	657083.196660007352	1
7	7424	657370.207960256822	2
7	7428	657536.185605966155	1
7	7436	657701.443755481255	0
7	7454	659400.903417557246	1
7	7463	660417.460428370331	2
7	7476	661391.764329031818	1
7	7481	661583.871059720758	2
7	7486	661666.815781372901	3
7	7490	661682.842042277786	2
7	7494	661714.70214957368	3
7	7506	662480.159408849018	2
7	7524	663727.798253711874	3
7	7529	664182.327936904113	4
7	7531	664390.147373297111	3
7	7541	666135.281445708957	2
7	7550	667596.837394821514	1
7	7564	668707.423604611136	2
7	7573	669945.759651361428	3
7	7575	670460.85207266365	2
7	7589	671514.43055959326	1
7	7593	671574.558329741628	2
7	7607	672404.203732813267	3
7	7615	672604.012527093441	4
7	7617	672943.793558043437	3
7	7625	673209.142363462023	2
7	7639	673705.406257495837	1
7	7643	673813.08076154746	2
7	7650	674880.535703049142	1
7	7659	675209.257467384965	0
7	7673	675508.503014125917	1
7	7675	675526.75051047307	0
7	7694	683421.213765509158	1
7	7701	683627.557808043187	0
7	7706	684055.961808035119	1
7	7722	685354.447666276667	2
7	7727	685440.515712785604	3
7	7730	686185.918065154756	2
7	7744	686804.069645478153	3
7	7746	686859.753710694405	2
7	7751	686982.178780956685	1
7	7767	687555.57281837621	2
7	7771	687739.377156036958	1
7	7774	687838.769606664819	0
7	7778	687871.224419232149	1
7	7792	688238.553468626657	0
7	7812	691639.431494466702	1
7	7815	693335.835809125074	0
7	7829	693617.208641768943	1
7	7840	693925.086323017854	2
7	7845	694369.602819261318	3
7	7848	694708.951615194514	2
7	7856	695484.849842513031	1
7	7873	695980.460261711006	2
7	7879	696154.931783842053	3
7	7881	697203.311876351571	2
7	7886	697313.377877886516	1
7	7897	697410.163909068662	0
7	7914	701205.323094502155	1
7	7917	702514.61960390424	0
7	7934	706672.429478151004	1
7	7936	707502.815177190891	0
7	7952	710071.433132173894	1
7	7956	712917.809722545487	0
7	7972	716693.892499290904	1
7	7975	717144.315328137361	0
7	7992	718254.646170914214	1
7	7997	718360.825710877533	2
7	8000	719204.415787684861	1
7	8014	719700.071689504067	2
7	8023	720663.822670673108	3
7	8026	721788.606008277862	2
7	8031	721855.007701109143	1
7	8043	723097.468363565248	0
7	8062	727220.674740590807	1
7	8068	727643.826658141119	2
7	8075	728897.13564489032	1
7	8080	729626.013039378122	2
7	8094	730570.067327081871	3
7	8097	732803.193150785755	2
7	8111	733356.743723659847	3
7	8120	734889.234218472686	4
7	8129	735344.937628204896	5
7	8131	735715.190451006247	4
7	8145	736488.672733289642	5
7	8148	736534.330893604442	4
7	8156	736928.693292171814	3
7	8172	739511.651180849295	4
7	8174	739771.405301360423	3
7	8188	740687.768446601525	4
7	8197	741590.048177814249	5
7	8199	741602.633843290546	4
7	8208	743214.761490746096	3
7	8216	743476.022731965156	2
7	8230	743941.956750388972	3
7	8238	743993.254489662018	4
7	8241	744793.49945500435	3
7	8249	745184.154595855449	2
7	8254	745323.309417391156	1
7	8272	746690.178296990313	2
7	8275	747133.492073277391	1
7	8292	752602.945156065103	2
7	8300	752898.944821822388	3
7	8312	753497.128240972986	4
7	8317	753650.924100962864	5
7	8319	754034.242358128289	4
7	8324	754036.209613400591	3
7	8333	755129.156014663795	2
7	8341	755530.426481330276	1
7	8358	757320.368727626723	0
7	8362	757338.416556152336	1
7	8376	758320.930321001612	2
7	8383	758998.295119861606	1
7	8388	759250.346915588777	2
7	8401	760310.991081328275	3
7	8404	761082.243809976734	2
7	8412	761340.961945938971	1
7	8426	763118.271888508523	0
7	8434	764521.011289878139	1
7	8439	764594.288367787935	2
7	8452	765680.711007790593	1
7	8459	765941.73551493563	2
7	8464	766119.778711082423	3
7	8478	768234.634617550522	2
7	8481	768256.99918211421	1
7	8485	768455.024131548287	2
7	8497	768885.371829325565	1
7	8507	771376.032144759337	0
7	8521	772401.470477254633	1
7	8530	773280.005803611208	2
7	8540	776443.47381867973	3
7	8549	779025.400067361864	2
7	8553	779201.279058225902	3
7	8561	780125.501705864083	2
7	8570	780862.682537959773	3
7	8583	781280.483173611719	4
7	8585	781375.488124145266	3
7	8591	781609.216510447897	2
7	8594	781773.81873950838	1
7	8621	785790.355729297594	2
7	8627	786017.92680928366	3
7	8629	786214.77694727604	2
7	8637	786448.286790317754	1
7	8646	788844.674063735534	0
7	8650	788865.415225060963	1
7	8663	789360.980706950038	0
7	8675	790175.078610753782	1
7	8680	790415.279629177857	2
7	8685	790552.646494910004	1
7	8703	792773.696568146119	2
7	8705	792803.150718213122	1
7	8718	793406.173417531454	0
7	8723	793624.999513391231	1
7	8730	794172.993148856174	0
7	8745	795770.717824882436	1
7	8747	796174.421900173361	0
7	8762	797124.448422501139	1
7	8771	798547.166168171617	2
7	8773	798700.380563141294	1
7	8783	802316.288113243991	0
7	8799	804213.757984599322	1
7	8808	806694.436457715925	2
7	8817	807280.637248977475	3
7	8819	807914.833932337898	2
7	8828	809994.107981930635	1
7	8843	811023.780518970173	2
7	8852	812772.88705924176	3
7	8861	814034.487996713847	4
7	8864	814586.582524626665	3
7	8879	817218.355111273503	4
7	8888	817584.044750237719	5
7	8890	817586.72815292083	4
7	8895	817616.285121589223	3
7	8906	818423.988105985269	2
7	8916	819176.887687771683	3
7	8924	820937.907648200395	2
7	8932	821206.774169159065	1
7	8946	821522.193032600358	2
7	8954	821658.981882794299	3
7	8962	821882.380327534361	4
7	8965	822343.76983236561	3
7	8973	822893.716312554602	2
7	8991	823843.575819701396	3
7	8996	823942.139016560988	4
7	8998	824157.150832130434	3
7	9006	824377.07189703483	2
7	9009	824505.55164816559	1
7	9019	825702.792848755334	2
7	9035	826416.588733409809	3
7	9041	826539.710873886915	4
7	9048	826963.531934184397	3
7	9062	827967.627371057915	4
7	9065	828185.406081293351	3
7	9080	830363.00427127244	4
7	9082	830507.377823664111	3
7	9097	831520.987703090307	4
7	9099	831739.513015704829	3
7	9104	831800.325170637751	2
7	9123	833159.279413383215	3
7	9127	833253.752636096729	2
7	9131	833536.507512667289	3
7	9136	833675.020073752353	4
7	9150	834115.454873158798	5
7	9157	834393.638557146903	4
7	9171	835220.674415335257	5
7	9174	835722.459024371231	4
7	9179	836236.855651724026	3
7	9190	836835.500679519499	2
7	9199	837491.515759295789	1
7	9216	838248.691143808965	2
7	9221	838282.943613391131	3
7	9229	838781.104583063493	2
7	9233	839043.577934848165	3
7	9245	839687.548036410456	2
7	9249	839743.366094389066	3
7	9256	839969.069978309435	2
7	9265	840987.208336205449	1
7	9280	842329.448568263822	2
7	9283	843207.41497450484	1
7	9298	844704.302814068088	2
7	9306	845429.216663448915	3
7	9315	846645.118058000299	4
7	9317	847066.793465359593	3
7	9326	847571.317925778822	2
7	9339	848643.750700269663	1
7	9343	848885.545368873171	2
7	9351	850288.931730384991	1
7	9369	851056.603241849499	2
7	9374	851588.441648198325	3
7	9383	852923.643705097069	4
7	9386	854433.020490039897	3
7	9395	855963.847668898624	2
7	9405	858160.240009904331	1
7	9419	859096.640774865811	2
7	9429	862058.74634637568	3
7	9432	863836.478183526313	2
7	9441	864374.661710817193	1
7	9455	864984.479045206944	2
7	9457	865032.429920149178	1
7	9471	866162.431800264917	0
7	9475	866172.674229804469	1
7	9488	866442.993120875922	2
7	9495	866579.934340503052	1
7	9503	867236.188562611728	2
7	9508	867321.771658105911	3
7	9516	868926.441656376071	2
7	9530	870055.89601117046	1
7	9534	870201.634609014967	2
7	9547	870432.158476962598	3
7	9554	870801.306268874348	2
7	9558	870852.157259717042	3
7	9566	871728.49472864717	2
7	9571	871745.505456051095	1
7	9574	871828.152498014625	0
7	9596	872637.751936113958	1
7	9608	874354.446186516507	2
7	9614	874980.835358249068	3
7	9621	875631.914043008012	2
7	9625	875640.33867816644	3
7	9633	877004.929047894518	2
7	9642	878182.86025519946	1
7	9656	878708.464305880012	2
7	9658	878944.951646162823	1
7	9668	880961.770630810058	0
7	9686	883003.540522968085	1
7	9691	883030.229980053797	2
7	9693	883457.713263243955	1
7	9708	884736.341720805344	2
7	9711	885036.477213589467	1
7	9719	886018.170585375647	0
7	9733	886285.669443089908	1
7	9742	886501.81335701524	2
7	9753	887286.203954591925	3
7	9760	887894.061196631646	2
7	9764	887997.964145285768	3
7	9770	888021.403964856454	4
7	9777	888325.365210914884	3
7	9786	890295.376838953101	2
7	9802	893522.381715732246	3
7	9804	893534.23857231554	2
7	9813	894585.934006410114	1
7	9824	895327.878418748056	0
7	9834	895540.694840876133	1
7	9838	895778.717324713638	0
7	9842	895832.789936427158	1
7	9861	897103.056481879623	2
7	9863	897853.715422089406	1
7	9878	899203.449530071817	2
7	9887	900240.162876632866	3
7	9889	900608.48597378896	2
7	9897	901159.792310159637	1
7	9914	902690.083137093254	0
7	9918	902874.488321279013	1
7	9923	902975.494680597812	2
7	9928	903014.294147115621	1
7	9945	904176.578010501474	2
7	9954	905903.556665238391	3
7	9957	906080.58586495114	2
7	9962	906169.848049810293	1
7	9974	906453.073634903574	2
7	9982	907593.020734066802	1
7	9999	908616.82233433479	2
7	10004	908891.426030586341	3
7	10007	909121.260146264542	2
7	10015	910380.954585276457	1
7	10030	911273.775568485552	2
7	10039	912752.182795964818	3
7	10041	913401.554646607821	2
7	10050	913976.164629891244	1
7	10058	914639.385798865515	0
7	10074	917055.044289236683	1
7	10082	917615.481000196013	2
7	10094	918565.3741955504	3
7	10102	918999.731688039241	4
7	10110	919195.698079681106	5
7	10114	919216.26947165701	4
7	10121	919347.324065043278	5
7	10126	919506.899307014301	4
7	10130	919584.679398738256	5
7	10143	921118.473805393998	4
7	10157	922340.588380238496	5
7	10160	922537.217523643708	4
7	10168	923006.451314436711	3
7	10176	923341.345090295541	2
7	10190	923968.123256871131	3
7	10199	925142.726998005705	4
7	10208	926271.882460563227	5
7	10212	928840.364233906841	4
7	10217	928895.805717444321	3
7	10234	930112.215509420435	2
7	10241	930262.042878229348	3
7	10246	930411.242834581971	4
7	10254	931864.070787669981	3
7	10268	932790.981696049856	4
7	10271	933030.564048155049	3
7	10279	933178.344781829881	2
7	10300	934909.165415182904	3
7	10308	935136.633610373754	4
7	10313	935156.697769366646	5
7	10317	935352.946757623835	4
7	10324	935522.491051509047	5
7	10332	935807.903128332794	6
7	10341	936199.553227440665	7
7	10345	936292.959678027771	6
7	10349	936435.393651365469	7
7	10358	936686.731677008531	6
7	10369	937060.309043190272	5
7	10374	937193.223124773117	4
7	10378	937581.020400304347	3
7	10389	937760.874320597644	2
7	10393	937832.478942327883	3
7	10410	938627.021966893837	2
7	10419	939120.055868747346	1
7	10427	940305.46636078278	0
7	10443	942782.185339100522	1
7	10450	943129.097099729075	0
7	10455	943515.921821121172	1
7	10477	949040.409268902478	2
7	10481	949224.26383980849	1
7	10486	949525.949994918569	2
7	10491	950147.34393046197	3
