version 2
run QueueMeasurement-62-20170109-14:24:01-6798
attr configname QueueMeasurement
attr datetime 20170109-14:24:01
attr experiment QueueMeasurement
attr inifile queueStudy.ini
attr iterationvars ""
attr iterationvars2 $repetition=62
attr measurement ""
attr network controltower.SimNetwork
attr processid 6798
attr repetition 62
attr replication #62
attr resultdir results
attr runnumber 62
attr seedset 62
param SimNetwork.a.parkingLot.parkingDelay exponential(45min)
param SimNetwork.a.runway.landingTime exponential(5min)
param SimNetwork.a.runway.takeoffTime exponential(5min)
param SimNetwork.a.runway.throughputCheckInterval 25min
param SimNetwork.wg.interArrivalTime exponential(25min)

statistic SimNetwork.wg 	responseTime:stats
field count 595
field mean 5333.6485504216
field stddev 3326.3789337155
field sum 3173520.8875008
field sqrsum 23498934386.887
field min 458.6745782351
field max 24837.91310343
attr source  responseTimeSignal
scalar SimNetwork.a.landingQueue 	queueLength:timeavg 	0.10901139104201
attr source  queueLengthSignal
statistic SimNetwork.a.landingQueue 	queueLength:stats
field count 1185
field mean 0.60590717299578
field stddev 0.61851954470872
field sum 718
field sqrsum 888
field min 0
field max 4
attr source  queueLengthSignal
statistic SimNetwork.a.landingQueue 	queueTime:stats
field count 593
field mean 161.52261803787
field stddev 327.22136538661
field sum 95782.912496459
field sqrsum 78858809.393283
field min 0
field max 2813.5013489572
attr source  queueTimeSignal
scalar SimNetwork.a.takeoffQueue 	queueLength:timeavg 	0.23346168394566
attr source  queueLengthSignal
statistic SimNetwork.a.takeoffQueue 	queueLength:stats
field count 1188
field mean 0.74747474747475
field stddev 0.86212176510177
field sum 888
field sqrsum 1546
field min 0
field max 6
attr source  queueLengthSignal
statistic SimNetwork.a.takeoffQueue 	queueTime:stats
field count 594
field mean 341.64238149192
field stddev 679.70115505908
field sum 202935.5746062
field sqrsum 343293633.48976
field min 0
field max 5300.3305812216
attr source  queueTimeSignal
scalar SimNetwork.a.parkingLot 	parkingOccupancy:timeavg 	1.8538320879464
attr source  parkingOccupancy
statistic SimNetwork.a.parkingLot 	parkingOccupancy:stats
field count 1187
field mean 2.4001684919966
field stddev 1.5634203775102
field sum 2849
field sqrsum 9737
field min 0
field max 8
attr source  parkingOccupancy
