file 198726 1483968249                                          
version 2
run QueueMeasurement-77-20170109-14:24:08-6813
attr configname QueueMeasurement
attr datetime 20170109-14:24:08
attr experiment QueueMeasurement
attr inifile queueStudy.ini
attr iterationvars ""
attr iterationvars2 $repetition=77
attr measurement ""
attr network controltower.SimNetwork
attr processid 6813
attr repetition 77
attr replication #77
attr resultdir results
attr runnumber 77
attr seedset 77
param SimNetwork.a.parkingLot.parkingDelay exponential(45min)
param SimNetwork.a.runway.landingTime exponential(5min)
param SimNetwork.a.runway.takeoffTime exponential(5min)
param SimNetwork.a.runway.throughputCheckInterval 25min
param SimNetwork.wg.interArrivalTime exponential(25min)

vector 5  SimNetwork.a.runway  landedThroughput:vector  ETV
attr source  landedThroughputSignal
vector 6  SimNetwork.a.runway  tookoffThroughput:vector  ETV
attr source  tookoffThroughputSignal
vector 0  SimNetwork.wg  responseTime:vector  ETV
attr source  responseTimeSignal
vector 4  SimNetwork.a.takeoffQueue  queueLength:vector  ETV
attr source  queueLengthSignal
vector 3  SimNetwork.a.takeoffQueue  queueTime:vector  ETV
attr source  queueTimeSignal
vector 2  SimNetwork.a.landingQueue  queueLength:vector  ETV
attr source  queueLengthSignal
vector 1  SimNetwork.a.landingQueue  queueTime:vector  ETV
attr source  queueTimeSignal
vector 7  SimNetwork.a.parkingLot  parkingOccupancy:vector  ETV
attr source  parkingOccupancy
0	1431 26711 879 11408 79558.383215839973 950058.3778335029 623 401.97405855194 27209.1922821 3306174.5529038 24507533997.302
1	28142 21875 889 11388 80367.227542602154 949143.193482421235 622 0 3996.3128798558 113771.66045046 113997471.66082
2	50017 36054 887 11388 80367.227542602154 949143.193482421235 1244 0 4 760 962
3	86071 21925 881 11405 79558.383215839973 949925.82294029504 622 0 6393.7455087288 295174.86305201 901186076.08622
4	107996 36006 881 11405 79558.383215839973 949925.82294029504 1243 0 11 1223 4017
5	144002 9353 877 11390 79500 949500 581 0 7 622 1306
6	153355 9353 877 11390 79500 949500 581 0 8 623 1429
7	162708 36018 892 11399 80463.058959023207 949657.59357394799 1243 0 11 3150 11330
