version 2
run QueueMeasurement-126-20170109-14:24:34-6862
attr configname QueueMeasurement
attr datetime 20170109-14:24:34
attr experiment QueueMeasurement
attr inifile queueStudy.ini
attr iterationvars ""
attr iterationvars2 $repetition=126
attr measurement ""
attr network controltower.SimNetwork
attr processid 6862
attr repetition 126
attr replication #126
attr resultdir results
attr runnumber 126
attr seedset 126
param SimNetwork.a.parkingLot.parkingDelay exponential(45min)
param SimNetwork.a.runway.landingTime exponential(5min)
param SimNetwork.a.runway.takeoffTime exponential(5min)
param SimNetwork.a.runway.throughputCheckInterval 25min
param SimNetwork.wg.interArrivalTime exponential(25min)

vector 7  SimNetwork.a.parkingLot  parkingOccupancy:vector  ETV
attr source  parkingOccupancy
vector 2  SimNetwork.a.landingQueue  queueLength:vector  ETV
attr source  queueLengthSignal
vector 1  SimNetwork.a.landingQueue  queueTime:vector  ETV
attr source  queueTimeSignal
vector 4  SimNetwork.a.takeoffQueue  queueLength:vector  ETV
attr source  queueLengthSignal
vector 5  SimNetwork.a.runway  landedThroughput:vector  ETV
attr source  landedThroughputSignal
vector 6  SimNetwork.a.runway  tookoffThroughput:vector  ETV
attr source  tookoffThroughputSignal
vector 3  SimNetwork.a.takeoffQueue  queueTime:vector  ETV
attr source  queueTimeSignal
vector 0  SimNetwork.wg  responseTime:vector  ETV
attr source  responseTimeSignal
0	1045	80134.984558856558	2380.6346140066
0	1053	80441.252723609621	3414.8138791872
0	1063	80843.326108768562	3380.0004340387
0	1068	80966.072471863431	2073.7347646072
0	1077	82206.95521934335	10977.275668098
0	1086	82634.455905064115	3532.2814008449
0	1097	87675.453068117306	8740.2772049502
0	1130	89350.469666095253	204.77393517378
0	1150	91366.529692175795	2423.2761156658
0	1167	91932.661389519172	2744.3739492206
0	1172	91976.812103139031	1558.5450178806
0	1189	93439.043945775243	13114.815691788
0	1206	94971.086791185248	3698.6639278999
0	1214	95866.815100536103	3036.7966352326
0	1232	98997.613496722529	4362.910046704
0	1252	104469.999714090972	6642.0132181675
0	1270	106760.894943024922	3642.9809510448
0	1296	109674.419265325299	5170.4802055216
0	1316	116105.68041501885	8407.583569798
0	1336	118499.683836281366	11079.383849698
0	1342	118519.308073576541	6463.2282483629
0	1367	121416.730502090827	1849.6820396137
0	1419	126062.338060538911	3839.9753093968
0	1435	126987.09900616497	5280.3481046121
0	1443	127373.166592584704	6705.3239447017
0	1452	127548.522587061683	4753.3126955032
0	1468	128689.041939821806	6861.240811447
0	1476	128912.406403796868	2749.3255039903
0	1488	129829.908724086149	12513.611036762
0	1493	129840.301703120638	5832.8519113338
0	1518	131360.384137371142	1277.5326076767
0	1527	133133.680772862824	5532.4747063698
0	1544	134619.674174334573	4057.202364849
0	1579	138680.588534872923	1961.6430052981
0	1588	139844.009874409074	6656.9589264128
0	1596	140954.297866829477	5521.5710708887
0	1631	144439.499569323179	790.90742333045
0	1640	145621.518902139876	8641.6861035917
0	1660	148436.20875901013	5289.050133846
0	1674	149063.508313784628	4813.6863049108
0	1721	151353.632598847919	4008.6696912227
0	1726	151358.547725443817	2278.8597511827
0	1732	151743.453761500087	3747.8924388592
0	1756	152923.256102018336	2957.2179836361
0	1774	155266.686697619585	5532.4913833744
0	1783	156458.400651328179	4278.9910232154
0	1798	158559.308345096304	6135.0818574105
0	1812	159125.762098004495	9149.2996030716
0	1817	159533.048282592725	5654.6366491921
0	1865	162847.443496988796	3108.7416436267
0	1875	163160.670724573225	3196.026860475
0	1892	164003.657924757359	3802.7259715127
0	1906	164815.94992810022	6333.5827767115
0	1917	165822.635038142414	3179.1491425432
0	1934	166544.10226573037	2782.6426031595
0	1945	167698.10467875647	5809.5956825244
0	1994	171619.845604060554	7029.6970194781
0	2012	172031.698721940156	4497.7379661215
0	2017	172333.902312123471	6395.5412362367
0	2034	172855.969837452579	2883.4125671148
0	2042	173052.51474162299	3644.8663093296
0	2051	174195.05219937274	2667.4719653911
0	2059	174571.453000026376	6494.4941820054
0	2077	177757.5456942637	6501.1522924811
0	2094	179831.232321852849	7325.3267042002
0	2120	182647.398378190294	3897.0785419468
0	2129	183459.923162607979	6821.2235201441
0	2162	184777.474533904038	3231.9671352628
0	2186	185955.191705865044	2120.7008635614
0	2198	186610.257553423983	5004.6390866517
0	2203	186661.87892024359	1764.1884894899
0	2228	188520.362130042993	4266.5542883535
0	2240	189676.362996274089	1421.3544426195
0	2254	191053.178050918647	6899.8057028964
0	2284	195583.059943065805	6053.1262457695
0	2289	195945.214464258013	4326.2105495774
0	2310	198869.662819302873	6181.4778923259
0	2318	199345.601071598209	11034.758305527
0	2323	199369.155335667884	14467.614010418
0	2341	201693.798167286377	5160.007378469
0	2375	204457.43235097685	2700.8583484653
0	2394	209304.134424968246	6826.0495387548
0	2407	211879.54038981237	11518.562932885
0	2412	211946.384540331308	9119.0977038326
0	2429	214073.410835985229	5457.2895297332
0	2447	216459.707952083891	3373.4294869146
0	2503	224971.740578513193	2923.2726677283
0	2509	225181.44591205812	2063.0990787217
0	2517	226172.122629157539	10802.725766245
0	2534	227232.866241181279	8839.3628264033
0	2551	229290.531759498226	2508.6538004726
0	2564	232002.256949330535	8163.3553684511
0	2577	232316.886373879958	11339.443486027
0	2612	236506.690367071895	8567.0119684936
0	2621	237595.392222626361	4273.1325401214
0	2629	237716.517637856181	5764.9287360065
0	2654	239391.686897420885	4901.9240960828
0	2671	240734.573460587912	7113.1772268005
0	2680	241653.68308913398	3525.6433858713
0	2689	243748.166283470586	4708.1386234046
0	2706	245402.998230103359	5939.5849963923
0	2723	247389.352731965397	3548.7176842088
0	2751	248610.941246949128	881.98891242482
0	2765	249809.421649913144	2655.3304309739
0	2793	255857.468229992538	8070.9122372279
0	2843	259203.567502794089	7236.0604395999
0	2864	261486.070562832343	13107.688791899
0	2869	261591.083923435952	3142.2226239998
0	2886	262890.223449288864	3031.966397165
0	2895	264313.021294758156	7490.5234774263
0	2904	266127.751089385558	8744.7591237129
0	2929	267062.194807855972	8930.8442390237
0	2937	267869.931410133086	11440.278911646
0	2966	270026.268779863694	1484.658318649
0	2974	270224.19918766015	3978.7361689873
0	2987	270747.278420760382	8778.2021839234
0	3004	271622.220823684191	5255.0442766952
0	3020	272583.520431207797	1781.9207851965
0	3028	272732.078220641364	2527.8696273263
0	3040	273290.107248417947	4031.3295790791
0	3054	274591.640515962827	21996.649365399
0	3062	274747.959082822587	2918.2936742358
0	3104	278281.632832440627	5327.4055217714
0	3121	279587.884654124289	1756.1777089871
0	3130	281049.308638687392	3178.3502896043
0	3139	283028.45059381543	4899.9016821262
0	3215	287954.175305418816	3784.1054932922
0	3224	288445.54553996773	9208.5687715571
0	3243	289244.69432740507	14038.690535101
0	3248	289416.371577673031	3875.5183287944
0	3254	289672.185092624062	3238.1367820984
0	3265	289927.247749864322	4852.5766020709
0	3278	290182.264640873233	5768.7199188383
0	3283	290200.771919279659	3871.8455417713
0	3288	290246.325989976361	4053.0473583117
0	3297	291217.811352460099	3262.3804912971
0	3342	298751.688115138418	5754.4643002426
0	3369	299893.424655149683	10205.821898058
0	3375	301403.203820357917	4000.8010856213
0	3390	302483.134006978605	3102.0406901842
0	3400	302821.917288095365	11191.242988353
0	3428	307977.678848499755	8517.4754468904
0	3448	309782.010900434979	12207.69762372
0	3456	310200.587813097366	8455.2995741774
0	3470	311724.872515098473	3017.4935661643
0	3485	312759.067979636013	7607.7804398616
0	3515	314066.949584015346	1804.9898572229
0	3520	314400.299703350146	1918.1664036054
0	3528	314662.234255277628	4565.3564281731
0	3571	318906.260673190871	13890.094699051
0	3579	319272.351564426421	1143.8416008059
0	3588	320908.045190793213	2826.1077617498
0	3606	322835.875633991925	9546.1233397068
0	3623	324739.319691539428	6257.4871465684
0	3645	328754.429122254389	4901.4118492359
0	3658	329015.523745080497	7861.5358567827
0	3675	330948.896586554716	14428.466996116
0	3700	332613.692175547669	1051.6394379629
0	3726	334591.218491813736	4829.5154348398
0	3734	335185.526126889198	2953.1144397427
0	3743	336902.94689145379	8576.593563235
0	3779	338690.476922023457	5517.398909355
0	3784	338818.327618043786	1777.448161829
0	3793	339831.845251978666	13195.67911468
0	3802	340987.146455080101	3932.3511074124
0	3829	345141.686486219818	7893.3259521392
0	3837	345649.831274973226	12018.167411644
0	3865	347493.017470811881	5758.7437940075
0	3887	348884.066878307404	2444.1893615225
0	3899	350926.731681159185	6992.6445592016
0	3908	351146.427746332212	4599.0674623295
0	3921	351713.25589344449	3290.6973084368
0	3947	354912.490664811912	3977.0321766347
0	3967	355695.593969443682	2925.14909903
0	3972	355762.832427850923	8358.0049757149
0	3989	357785.787496581946	2531.2617569414
0	3998	359329.066573142038	5641.5343114276
0	4024	361566.305174551405	1143.1994671574
0	4032	362809.010980066438	5550.2825096268
0	4058	365733.900103767721	5084.7970362634
0	4075	366747.50932160614	3900.3905981715
0	4084	367542.7214561411	3834.0724687139
0	4102	371397.554471433012	5635.9888981059
0	4122	377804.758181057247	8448.502111926
0	4164	380488.619411793345	2569.3532989559
0	4173	381677.0398516886	8896.2725436642
0	4214	383321.917184652942	4040.8536751393
0	4222	383746.847556997853	1835.0823963258
0	4231	384640.821632114697	2249.0877968493
0	4240	386821.324397050868	7127.6628453309
0	4253	389701.204810089696	9584.2874357274
0	4258	389848.766205900364	7681.4987288483
0	4293	393854.897407096143	10857.234764208
0	4310	395829.607616305974	3528.2928618336
0	4328	397558.466479840449	3657.1779275066
0	4345	399474.907935551391	7108.0879479443
0	4364	400128.113187113701	1930.7133997881
0	4385	402716.101050204588	6703.4029367333
0	4390	402920.895891942115	10583.359910696
0	4395	403192.35194330961	3656.8848813396
0	4443	406398.580053198932	2227.088515835
0	4468	407752.924447464126	7845.0762597001
0	4473	407784.967132614227	3373.3687163985
0	4482	408264.834339336958	3596.8202717216
0	4487	408497.872885218567	2294.6783065543
0	4496	410070.086279500329	5587.1983612573
0	4522	412803.200650671818	1358.4423043796
0	4534	418571.541002043014	12026.537880579
0	4573	420582.710793157995	2003.3823025285
0	4583	421438.494267816138	9161.4024862677
0	4592	422599.109734767775	3223.7307599788
0	4620	423646.374352417542	4324.7115390096
0	4625	423675.757884385795	793.12922798872
0	4654	427413.200915416885	4301.6748763362
0	4660	427951.894656477079	7587.8747507789
0	4682	432564.69163401858	5984.1174947056
0	4687	432618.64119822889	7361.0112445365
0	4721	443651.878934849361	12511.660381402
0	4735	444380.026855275261	4720.5571274783
0	4744	445749.86660941814	8009.9431478116
0	4762	449117.172573420209	6415.6406332677
0	4783	451528.776174096412	5749.715130124
0	4805	454113.848550092333	4609.1086302677
0	4825	455354.86488227304	4463.9126263263
0	4838	455883.45061953603	1662.5230914479
0	4849	459610.349732871638	6451.7843060608
0	4882	464777.16362169607	9820.2831757574
0	4901	465302.626613487563	848.30940780973
0	4909	465392.304465863803	1150.2462548415
0	4928	470259.454006392089	7123.6552235958
0	4937	471713.743634579263	7128.2474689423
0	4967	481003.661976935742	1242.3886496696
0	5021	484974.942986689283	3163.6477282339
0	5029	485092.555214580206	2344.6270000336
0	5047	486804.988788086477	4100.8663212088
0	5071	487762.669677542376	5454.0203706584
0	5076	487990.002797158487	1834.8638104864
0	5084	488853.465304720846	8340.3143512834
0	5103	491171.950519973981	5251.9776865977
0	5119	492513.331519439115	22899.613683168
0	5144	494292.2567015544	1703.6072001128
0	5161	495044.02257560802	4613.8615976813
0	5177	496003.20541403186	9778.0599995668
0	5199	498055.530843148594	4678.948107837
0	5230	498874.988816906463	7872.3948892374
0	5235	498957.048898566058	3188.3592522728
0	5252	500395.16254181669	5633.0653415314
0	5272	501623.843855158293	3644.935053335
0	5277	501797.87945157984	17545.010140899
0	5286	502560.675478977776	3257.0328302242
0	5302	503253.238873930243	5082.0434852397
0	5318	503973.058206090967	6328.9248061532
0	5327	504322.237234908959	3490.8870376814
0	5346	505258.994715287001	2655.1958632996
0	5352	505713.596232243329	8959.8245182267
0	5360	506053.285671586936	2435.9986457046
0	5386	509371.825129736461	3036.7091992934
0	5411	510903.788389345005	6466.1940129837
0	5428	511541.673981006242	1625.8430387875
0	5436	512834.444930028452	4601.500455072
0	5462	515528.592490416685	5000.7144108461
0	5470	515772.492676945475	4838.0347877032
0	5487	517252.638386593137	2155.9164253355
0	5504	517928.90688002457	4921.3039666353
0	5513	519795.103557283406	3657.9497693103
0	5540	524375.892376186092	3433.7317213765
0	5561	526750.335331944053	2828.216137225
0	5584	529630.387815260393	4512.2601988021
0	5609	531391.283776632097	4685.4785406132
0	5636	534121.925710021316	3422.5861554367
0	5661	536079.665118889265	7423.7897887586
0	5672	537119.579978845828	19708.144152365
0	5677	537153.480358580075	6086.6184939911
0	5688	537947.666052387966	6394.831490369
0	5693	537996.898682145722	3716.0824159329
0	5746	540289.354536306016	4515.9543804631
0	5751	540291.103145929221	2243.8087275092
0	5759	540640.373230086889	1492.2829675181
0	5808	544457.2922360239	5194.7235325443
0	5861	546456.018959962083	5478.8040386096
0	5866	546595.030896781069	7128.1619988207
0	5871	546677.090673493792	6705.6913472358
0	5879	546907.811095104982	4792.316038819
0	5884	547247.600977809879	4747.9142406953
0	5889	547370.949445577993	14210.061231839
0	5895	547743.71131484703	4102.5797988066
0	5903	548406.929472434696	2975.5389336407
0	5920	549224.908684755324	3763.6939085115
0	5934	551290.949268110364	6687.0430828408
0	5943	553173.4514838744	8954.8535775493
0	5960	553820.922858715801	4665.4407955062
0	5994	556878.802287388182	2129.4373541307
0	6002	557811.795884603936	4621.1696644004
0	6011	558701.099717655465	3731.1487418024
0	6028	559661.406974030034	3452.7205297555
0	6053	562476.005601921332	3723.3584206954
0	6076	563690.850334086826	15638.447131195
0	6086	563954.982598933746	2187.9043485925
0	6119	567517.038418857674	4606.7031349881
0	6132	568239.319797806431	3632.3578463586
0	6137	568279.596866622055	2216.3784236284
0	6149	569673.353057082097	6128.0738257203
0	6174	571394.918039552851	10411.240329272
0	6180	571716.879908235159	2164.101411593
0	6197	573736.047222184749	3607.3414472615
0	6214	575767.585109044304	2828.1037751396
0	6232	578139.835053675883	10651.784816859
0	6259	582860.047284771904	2968.5899474519
0	6268	584366.360465179096	10482.038058811
0	6293	585928.563170748773	9696.4107050103
0	6302	587944.568221373723	2504.3215685516
0	6322	588708.875719354036	2963.5195522175
0	6344	589632.956210639622	7793.4983294481
0	6362	593141.839308082646	4451.6104971864
0	6373	593447.980409877435	5359.9010156721
0	6398	595349.406193215987	3123.1474733213
0	6412	596250.24983820718	2861.4368822862
0	6422	599463.300684237008	5395.5052722642
0	6441	599975.885085777259	10681.435753896
0	6467	601750.711874782471	1881.0765861676
0	6480	602610.115866217694	7421.0835004996
0	6489	603276.289474805836	3696.2096518521
0	6507	606688.782958736709	6044.2889240186
0	6546	612474.796257474346	10724.635636255
0	6551	612576.446850605774	2375.3499339868
0	6571	614940.417098251896	9479.8224586438
0	6577	615853.717341558531	4069.4106210674
0	6606	618420.518320916246	4755.3791053281
0	6623	619695.143374117554	2727.7301938798
0	6628	619788.302105836732	2374.5320084327
0	6638	622510.263760079689	11619.579033348
0	6687	624739.176815492316	1027.2076687069
0	6695	624999.47492907111	889.5986431225
0	6706	629629.85614403231	6787.6944905419
0	6714	629703.109913116868	7123.5576352449
0	6723	630691.422837449043	12401.702713971
0	6752	638794.808566861944	14566.444196408
0	6772	639919.193652170489	2003.9566182625
0	6817	642209.020575928461	3248.4008836315
0	6822	642376.848273851517	6446.3281297066
0	6830	642841.404289066062	2045.4789311575
0	6835	642941.773346540984	3109.4617665044
0	6877	645744.798505182297	1250.6205781193
0	6889	647626.361066593371	3831.2572168129
0	6911	648967.254793575395	3569.3022649526
0	6934	650290.114589155196	2680.783228717
0	6947	650813.364523536371	3116.6026550979
0	6953	651065.922771909934	7893.443722571
0	6961	652476.187205941267	3232.2741464315
0	6987	654671.713312552003	13470.348068572
0	6995	654833.069174519548	5145.3682695663
0	7009	655370.654684032587	2505.537927286
0	7031	656482.73905398048	3442.9275658677
0	7053	657965.545247606913	1499.1677850064
0	7063	660072.038179551541	19032.941540286
0	7082	661253.179675802347	5892.5777558395
0	7102	662874.435742996256	5160.392578357
0	7132	664497.254384747701	2516.1227520236
0	7138	664501.043306254469	3377.6949274608
0	7146	665202.122199738969	4556.8451588846
0	7156	667647.721437108736	12447.810225375
0	7172	668769.186277168711	6621.5244954892
0	7189	669709.88875780841	1682.1388300645
0	7229	672131.781341129962	3161.2119898727
0	7239	672902.366658711333	2165.608740168
0	7256	673735.790459115708	3143.0460284074
0	7264	673792.736047948465	2854.3837653083
0	7300	675741.15117822481	2768.3225525996
0	7308	675885.360950269061	4074.6532004822
0	7322	676975.316304208838	2620.1994891071
0	7330	676993.875316358301	2328.1242747642
0	7355	678847.695362840465	3850.0305979904
0	7381	681038.13092087572	5157.9364493226
0	7397	681436.306623818467	3281.2358772594
0	7405	682018.39502721676	1938.7053402725
0	7414	683801.354112875648	3543.8375208599
0	7426	688652.889994080278	10023.080378468
0	7457	690692.675381141464	9649.4108841639
0	7467	691425.14161291572	27673.402223785
0	7504	693539.820980656891	3155.604364864
0	7509	694185.240090314059	2454.3676467638
0	7524	695222.016452662206	6446.5859317809
0	7534	695492.552686469668	6259.9020044473
0	7551	696153.726108195269	1151.2541227128
0	7576	698614.386605987404	3071.8012184735
0	7591	700291.159720648601	7189.7154664518
0	7596	700384.482476853821	2890.2190045894
0	7602	701081.494696023616	8888.7903541831
0	7624	706336.002643929005	8572.5434385455
0	7639	708138.152583037644	4084.7395888159
0	7683	710389.83403149716	1911.8686060397
0	7688	710599.011119475277	1867.7966906605
0	7706	712873.123323891105	4042.9650066095
0	7717	713682.210708245739	8026.1091725096
0	7759	716393.584799650555	6767.1358184317
0	7764	716446.538083303596	4271.0151559678
0	7772	716736.9207542643	1497.5062446148
0	7781	717018.98866125431	3370.434976682
0	7819	721771.036201890178	6826.5478331512
0	7824	721900.235472656518	5876.4711109408
0	7833	723338.100012027257	3819.7232881213
0	7865	724354.07287333912	4030.5776148872
0	7877	725781.327977650582	4867.2787194262
0	7883	727125.126405648808	3409.0145278797
0	7891	727194.246534557512	3435.2381006094
0	7909	730454.885081747634	6160.4897379915
0	7935	733399.082236584786	4819.6434465162
0	7946	737657.580243916899	6216.9434740899
0	7974	742764.689954987145	10651.403459835
0	8019	746435.974243153952	3536.6029681171
0	8033	748141.615058890333	5228.8756284234
0	8041	748314.378637706404	2884.0289812301
0	8053	748749.935961963422	6714.7104826707
0	8066	749880.639665935276	3909.0276972914
0	8084	752335.033833972777	3905.728301332
0	8092	752900.091388006269	7969.6476349502
0	8109	753244.794619682516	12239.751410166
0	8145	759815.462691255945	6908.0854648246
0	8161	762260.142689718645	3995.2067526228
0	8193	763072.946933950633	4917.2987009883
0	8198	763132.916515140579	11390.148822702
0	8206	763432.194809890107	4676.3608382028
0	8242	764482.93978674169	2229.1398261582
0	8251	765199.057864869148	2782.6175338993
0	8261	766217.071678110483	2564.9405093327
0	8270	766827.782950573675	4894.9784535542
0	8286	767232.487524119449	4002.773636795
0	8294	767784.692929247206	4035.8355235236
0	8303	768073.32760126469	2879.6595980502
0	8329	772015.683917015563	4843.5086105171
0	8348	775419.486103958932	6685.0682151408
0	8405	777227.359785076457	2399.3005772317
0	8416	778325.959180461416	1656.3538518516
0	8421	778408.448099029238	2083.10168858
0	8430	778814.084241396639	7874.487340303
0	8438	779249.216381988787	4099.5339609271
0	8446	779920.591976009562	4846.8174266251
0	8463	781316.234458542643	4417.3613567902
0	8472	782738.012971317919	7112.9354210003
0	8506	784685.682448927594	1331.1116685462
0	8514	785505.48313870276	5366.7835329605
0	8545	787231.386305684915	1607.1913111338
0	8559	788390.052102004753	4976.8221298737
0	8577	790623.458550220706	6973.2412069917
0	8582	790685.681453365703	4701.9436332335
0	8603	793958.659745663267	6872.3697236515
0	8617	795902.309563866016	4237.6093625848
0	8634	796856.781836162145	8720.42404701
0	8646	798000.043156187541	4181.709897485
0	8668	800542.628317071131	2961.9721531957
0	8680	801552.405974763737	5249.7167872547
0	8702	803143.466797472421	1693.9758610548
0	8775	807943.764154982775	3449.8732887673
0	8783	807957.619483255162	5803.314906648
0	8791	808322.201338996197	3344.3929612461
0	8803	808780.874754037619	2349.5521524568
0	8808	809102.568556426403	5649.6860694381
0	8816	809404.718351700166	6229.5517227643
0	8824	809857.386611161284	4446.3461236348
0	8860	811919.944123282751	13863.907797589
0	8868	812203.089178422508	1593.6674125261
0	8880	813759.154195115806	6510.3241023754
0	8885	813890.762457469163	4230.9108029081
0	8940	819607.583241416184	8554.5476531428
0	8948	820357.419087402079	9775.3105101082
0	8954	820678.720630185773	3781.4594686561
0	8965	821355.705945977183	5215.218358635
0	8984	821759.95776568473	4704.5602710568
0	9011	822057.064650836149	6310.9502236643
0	9019	822857.927551888565	1344.501499524
0	9031	824482.690996941228	2960.1156820838
0	9036	824534.930066664098	3227.9509896162
0	9090	829161.834731501738	4253.4238841744
0	9095	829211.55318742811	1466.5342513292
0	9107	829975.320996635748	2244.8343954186
0	9123	830366.106017428297	8584.469808973
0	9128	830712.16509136176	11704.243474087
0	9137	832116.930160638206	5818.2097156834
0	9168	837660.198798328214	4489.2098819992
0	9173	837758.576356575367	7971.4613536531
0	9190	839014.213566318521	2896.7554279776
0	9229	845711.914804869587	17458.40801503
0	9268	849442.693888575377	10728.562033853
0	9297	850293.867070875009	6956.6882673115
0	9302	850441.292117439419	6299.4174102573
0	9308	850561.602349184346	4924.6678798108
0	9313	850854.00257178667	10215.790855957
0	9318	851116.874633948152	4930.9339547668
0	9327	853050.654046489706	6140.5280727907
0	9336	854879.142236381897	7593.1649159413
0	9355	858060.327326736552	8343.4277065426
0	9408	866966.734211676709	2718.336189763
0	9417	867280.670713284128	2396.7018478723
0	9429	868826.392782897192	4411.1530563006
0	9437	869819.214900563577	12650.778225996
0	9459	871029.458268650801	6522.0726446301
0	9471	872075.602076048596	2756.0793063537
0	9476	872765.804818864345	6051.2786185231
0	9495	876135.802126849132	5693.721230667
0	9513	879792.903111136762	4876.2827016901
0	9530	881374.901478361427	3769.7456564646
0	9549	885629.207093024335	5168.944026688
0	9596	891015.484278727729	6512.8820673097
0	9623	892067.837847889108	3942.3325772925
0	9633	892352.058527883247	4548.5731404143
0	9642	892971.791290101742	4089.6899215598
0	9654	894413.760013740721	3420.3706174858
0	9668	895732.091767428614	3681.356660438
0	9685	897567.054590128628	3319.3884733107
0	9708	898936.123440442433	2350.4935642648
0	9728	901415.907523628447	9560.0469808654
0	9744	901855.302067815491	13863.166371437
0	9755	902322.708728278327	4720.8412732261
0	9862	907778.228657854238	9404.4039841175
0	9867	907795.257621804321	7238.4845214051
0	9872	907980.515311159521	5473.4847221609
0	9877	908174.623192918559	7583.0054899971
0	9882	908830.625664405928	5861.3860730823
0	9890	908988.374149936568	5757.3579368942
0	9907	909281.120503619465	5867.3162048232
0	9917	909671.960497399066	6700.0537262675
0	9928	909812.795478761448	973.13408882029
0	9933	909899.738193579076	6732.9419106677
0	9947	910343.40035545706	6779.2716632905
0	9957	910479.905737348727	5595.2938542345
0	9981	912034.651365387485	8836.1555618733
0	9991	912346.290615703754	3080.213588113
0	10008	914581.149890958072	2929.3798194874
0	10033	916105.857008372833	5625.1736516118
0	10042	916664.079898221762	1968.540060406
0	10053	917013.784654646572	6786.8281485111
0	10061	917237.883455790554	15085.300423992
0	10087	920574.594271212489	3442.1612345541
0	10092	920966.211714442402	8155.2038234744
0	10129	927199.027799592544	12468.896805129
0	10141	929045.783357933916	4877.6504020593
0	10149	929178.065899877398	9455.8296630104
0	10171	930082.150548744431	3717.09003046
0	10219	934106.500934683156	9121.7198155802
0	10224	934161.919295667446	4728.1566416576
0	10229	934226.303893734053	2826.2093580244
0	10247	936061.641183017539	4373.0437273389
0	10255	936258.446437829168	7183.0158816333
0	10263	936773.739720932472	3939.1088743222
0	10272	938174.637171770101	5433.8254289116
0	10299	943030.693101883773	7157.8870726273
0	10309	945696.281835844411	5763.1196427554
0	10335	948220.698203788515	1945.5893777416
0	10351	948918.670208533969	7205.8277254883
0	10369	950236.881665378612	2801.9547260911
1	1024	79239.197305677085	137.02280145786
1	1055	80441.252723609621	117.0244696221
1	1103	88943.253576510044	0
1	1111	89145.695730921474	0
1	1119	89242.090171063975	53.802730765412
1	1136	90418.267085258384	0
1	1152	91366.529692175795	94.106828890473
1	1177	92830.01846530349	0
1	1195	94634.703450018559	0
1	1221	97827.986495923427	0
1	1240	103117.913991980149	0
1	1257	104503.939059803687	0
1	1275	107420.299986583617	0
1	1283	107819.308035441463	121.21119022063
1	1302	112056.079825213619	0
1	1322	117316.297687324287	0
1	1347	119567.048462477083	0
1	1356	120667.842647883049	0
1	1373	121706.750901552901	0
1	1381	121827.801128374786	0
1	1389	122324.939264831001	102.57651368891
1	1397	122795.209891558533	0
1	1406	124007.449791786806	0
1	1424	126163.080899806556	0
1	1457	127601.206066493048	0
1	1498	130082.851529694487	0
1	1507	130880.501134272191	318.02932478665
1	1532	133187.050947996241	0
1	1550	135432.726795940774	0
1	1559	136718.945529574783	0
1	1567	137386.476525386894	406.64372683868
1	1603	143147.158625164106	0
1	1611	143648.592145992732	0
1	1620	144249.822008873789	0
1	1646	147344.962907625224	0
1	1662	148436.20875901013	440.64743636929
1	1679	149079.687974261133	0
1	1687	149734.195314245203	0
1	1702	150342.839577452179	376.80145906994
1	1710	150517.603845041726	541.14135010885
1	1737	152179.409628112797	0
1	1745	152424.226487685838	0
1	1762	153878.411633400659	0
1	1800	158559.308345096304	76.941193707565
1	1822	159738.701853362082	0
1	1833	160282.471619507194	317.82775540896
1	1838	160378.245711702259	177.31375845756
1	1847	161888.508996232022	0
1	1867	162847.443496988796	203.9576013896
1	1881	163761.45966257088	0
1	1908	164815.94992810022	225.80134351779
1	1922	165938.361075886799	0
1	1947	167698.10467875647	164.1439229378
1	1956	168076.958818020941	0
1	1964	169407.64843229339	0
1	1973	169972.55727033779	0
1	1996	171619.845604060554	363.452202278
1	2004	171718.498945153212	190.91871117159
1	2023	172505.905617652657	0
1	2065	176638.699642463908	0
1	2083	178750.319836243488	0
1	2101	181545.507398641226	0
1	2109	182119.800041223761	514.18157445146
1	2134	183834.490842303657	0
1	2145	184418.750133903423	265.37778588116
1	2154	184590.452871503938	336.64502981446
1	2167	184897.69043075365	0
1	2175	184919.900817003643	18.359491753467
1	2209	188255.008553654577	0
1	2217	188310.842766071014	0
1	2242	189676.362996274089	146.42929897782
1	2259	191619.00391468061	0
1	2268	192688.184926976996	0
1	2295	196533.790788817419	0
1	2329	200360.977456927746	0
1	2346	201756.574002511592	0
1	2354	202478.08488621342	0
1	2363	202827.286836498705	0
1	2383	208616.121306252035	0
1	2418	213086.278465169314	0
1	2435	215369.39686291301	0
1	2453	218393.503414777938	0
1	2463	220977.442887853439	0
1	2472	222048.467910784866	0
1	2480	223118.346833336436	0
1	2489	223838.901580879459	0
1	2523	226781.87795902567	0
1	2539	227939.67839857834	0
1	2566	232002.256949330535	50.668047480862
1	2583	233322.25968250495	0
1	2591	233811.838763948051	190.44253016068
1	2600	234489.76280133806	0
1	2634	238128.039703262633	0
1	2643	239040.027660065938	0
1	2659	239463.413233711026	0
1	2694	243840.635047756611	0
1	2712	247154.091218939271	0
1	2729	247728.952334524311	0
1	2737	247880.930695092538	94.374702327863
1	2753	248610.941246949128	232.55947601619
1	2771	251967.5070631942	0
1	2780	252594.991150564036	0
1	2798	256429.652498487396	0
1	2807	257278.415162253997	455.91734492219
1	2825	258561.580379369483	1178.5884136968
1	2830	259048.10342534669	916.75285651437
1	2835	259053.748659961847	604.88736052571
1	2849	259858.257052123876	0
1	2874	261969.076236836996	0
1	2909	266245.463018672868	0
1	2917	266442.908800091907	75.732253102923
1	2943	268541.610461214698	0
1	2951	269258.777669338878	0
1	2976	270224.19918766015	19.990594345096
1	2992	270801.599646011332	0
1	3009	271829.665408586816	0
1	3042	273290.107248417947	335.87993774867
1	3067	275206.003792303863	0
1	3077	277831.706945137185	0
1	3091	278152.81651661988	281.85816753677
1	3096	278186.365570211845	57.816658522585
1	3110	279236.976768410614	0
1	3145	284170.0698121266	0
1	3153	284822.455794466044	408.91107243115
1	3162	285074.671147793426	0
1	3173	285556.354152093479	15.5009032148
1	3194	286658.218697204354	464.94006553973
1	3199	286765.721205410222	436.79482790183
1	3204	286977.910695269343	543.86238474363
1	3226	288445.54553996773	490.11467880477
1	3267	289927.247749864322	239.64499277292
1	3302	291630.67429974239	0
1	3311	292997.223814895774	0
1	3322	297402.402734736618	0
1	3330	297901.500957174394	327.18768045961
1	3347	299381.09331679441	0
1	3355	299460.203401609366	0
1	3392	302483.134006978605	737.84576805866
1	3407	305016.165974140182	0
1	3415	305339.300093874738	188.0125541003
1	3433	308707.378948934137	0
1	3458	310200.587813097366	103.7099859928
1	3487	312759.067979636013	497.10825284359
1	3492	312773.549937145014	291.41663740028
1	3500	313289.75229428514	0
1	3535	316520.429590438984	0
1	3544	318081.937429043429	0
1	3552	318384.012959256095	255.50299563554
1	3563	318676.974317634964	195.14177266389
1	3594	321153.987888297824	0
1	3611	323853.017273018506	0
1	3629	326636.166137298591	0
1	3647	328754.429122254389	428.07579403561
1	3663	329761.703056973956	0
1	3681	331562.052737584751	0
1	3689	332232.411687146517	0
1	3706	333173.078012668431	0
1	3717	334074.146597512671	442.48273418393
1	3748	337040.87945621481	0
1	3763	337786.565651980823	731.77030431309
1	3768	338176.374221279521	928.01368719888
1	3807	341734.273676804355	0
1	3817	343934.087121957624	0
1	3842	346439.877516784882	0
1	3851	346547.360284002722	0
1	3867	347493.017470811881	88.19001867587
1	3876	348422.558585007734	0
1	3910	351146.427746332212	210.96925815499
1	3927	352770.444870413651	0
1	3935	353687.532261714408	0
1	3952	355254.525739640596	0
1	3978	357258.728470439659	0
1	4004	360423.105707394042	0
1	4012	361071.606453282131	422.50338577782
1	4037	362847.118723434683	0
1	4046	363708.648987427183	0
1	4063	365761.565573327109	0
1	4090	369356.256069131272	0
1	4108	372780.767308024352	0
1	4127	377919.266112837414	0
1	4136	379281.063509513614	0
1	4145	379693.661551719983	0
1	4156	380322.080773117283	205.16339875495
1	4178	381911.765160672017	0
1	4189	382426.214195834058	258.94671878203
1	4195	382599.723554944374	207.98971967893
1	4203	382997.662642888044	0
1	4265	392301.314754472404	0
1	4276	392461.534218819695	123.99823757375
1	4281	392557.364104451635	190.54411684455
1	4298	393901.288552333884	0
1	4316	396012.698113471305	0
1	4333	398197.399787325582	0
1	4350	399535.467061970008	0
1	4366	400128.113187113701	220.26499934972
1	4401	404171.491537363919	0
1	4412	404490.416214674195	78.817798458442
1	4421	405206.074666752289	723.1867485093
1	4432	405917.332209423228	1249.3181418078
1	4445	406398.580053198932	195.38547453466
1	4457	407233.770502065531	688.76738060154
1	4502	411444.758346292222	0
1	4510	412277.091781548407	0
1	4539	418579.328490629511	0
1	4547	419321.662813407922	0
1	4555	419385.542806701259	10.163831912309
1	4575	420582.710793157995	218.69088745978
1	4597	422882.628656397077	0
1	4606	423154.931918385598	43.405879304947
1	4631	425257.629953692384	0
1	4640	426580.574139312942	0
1	4667	431140.218553447364	0
1	4695	437739.923461606494	0
1	4705	439659.469727796952	0
1	4723	443651.878934849361	950.34699469685
1	4749	445779.061043972394	0
1	4767	449504.73991982459	0
1	4785	451528.776174096412	637.82391814971
1	4794	453158.565426810802	0
1	4810	454220.927528088174	0
1	4827	455354.86488227304	397.98443633435
1	4856	463135.798782796244	0
1	4865	464242.058211022349	0
1	4884	464777.16362169607	322.84641601824
1	4889	464783.642517556121	198.14635191913
1	4917	469613.717836270991	0
1	4947	479761.273327266111	0
1	4956	480536.877608728096	23.726655290633
1	4973	481811.295258455384	0
1	4981	482308.649306884016	0
1	4989	482704.122466877642	0
1	4998	483071.765703695098	323.83748914851
1	5006	484252.869310680709	0
1	5049	486804.988788086477	885.01595471017
1	5054	486854.441285932498	699.30229926039
1	5059	486914.902000557276	689.75658609223
1	5105	491171.950519973981	741.78954204726
1	5110	491711.288570607015	708.69464293795
1	5124	492588.649501441585	0
1	5132	493376.58273531156	0
1	5149	494762.09720028532	0
1	5166	495768.689646293249	0
1	5201	498055.530843148594	1301.759129132
1	5209	498309.147631674395	665.01423173665
1	5214	498446.595505983238	467.68670415998
1	5219	498575.736920751653	404.54153206114
1	5240	499303.642648753527	0
1	5257	500831.350197227559	0
1	5291	502603.798851987356	0
1	5307	503617.287025882301	0
1	5332	504437.594376361255	0
1	5365	506335.115930443022	0
1	5374	508232.94447495644	0
1	5391	509915.830942218758	0
1	5400	510527.878079570619	0
1	5416	510934.457889242275	0
1	5442	513007.602913389301	0
1	5451	515096.721961257597	0
1	5476	516137.153787973142	0
1	5492	517411.435826480405	0
1	5519	520942.160654809544	0
1	5529	523922.119194719096	0
1	5546	525118.12761645832	0
1	5563	526750.335331944053	44.530095925182
1	5572	528769.993535180089	114.11820504943
1	5589	530699.339554584639	0
1	5598	531166.936029286586	100.07416469765
1	5614	531552.834562018923	0
1	5638	534121.925710021316	961.03749628244
1	5646	534586.353747139904	305.53748092711
1	5663	536079.665118889265	306.26496304635
1	5698	538047.294418420029	0
1	5707	539148.090262568774	0
1	5721	539700.395033336854	437.82632985722
1	5726	539728.594540856717	261.72564289634
1	5737	539984.451500211034	13.05217395305
1	5764	540977.214921352523	0
1	5773	542115.495056285979	0
1	5781	542499.686737114624	0
1	5810	544457.2922360239	816.16071998343
1	5819	544895.439543108861	676.8416367838
1	5827	545428.461027499857	824.55484223034
1	5841	545520.144667074222	88.754128280202
1	5849	545755.325118896288	294.11034265242
1	5905	548406.929472434696	354.52626954318
1	5922	549224.908684755324	69.426621545704
1	5948	553190.62622020351	0
1	5965	554749.36493325745	0
1	5973	554969.950975853049	0
1	5982	556208.686444274493	0
1	6016	558752.647181225912	0
1	6033	560983.677710280831	0
1	6042	561767.078250341214	0
1	6059	562910.335283869565	0
1	6078	563690.850334086826	145.57110272504
1	6092	564606.961951447846	0
1	6101	566514.742329024345	451.52388603067
1	6121	567517.038418857674	28.988182040829
1	6151	569673.353057082097	120.57456043994
1	6160	570128.705774923267	0
1	6185	572939.481333904709	0
1	6202	573884.322406368152	0
1	6220	576232.15246573843	0
1	6238	579891.457337319967	0
1	6247	581839.457881191487	0
1	6274	585440.246652822099	0
1	6282	585745.356167136578	0
1	6308	588088.079394205378	0
1	6324	588708.875719354036	18.646908457765
1	6332	589300.618512142211	6.169180261413
1	6350	592226.258719894725	0
1	6375	593447.980409877435	59.167453956451
1	6384	594067.795411972775	0
1	6400	595349.406193215987	160.37382749788
1	6427	599580.079822953748	0
1	6443	599975.885085777259	106.24979716236
1	6452	600644.494034718092	0
1	6469	601750.711874782471	0.55125356355
1	6495	605460.594639608084	0
1	6514	610201.09691661901	0
1	6523	610890.684726731857	0
1	6531	611784.306720491087	0
1	6557	613665.139215588119	0
1	6583	616967.413180237735	0
1	6591	617413.770097404034	0
1	6608	618420.518320916246	130.79819743814
1	6643	622579.552277872004	0
1	6651	622842.16165349043	0
1	6659	623711.969146785429	0
1	6671	624303.245958647551	193.36967269894
1	6676	624329.425956427364	101.06158597349
1	6731	635930.520144144895	0
1	6741	637915.237033907977	0
1	6757	638960.61969229696	0
1	6774	639919.193652170489	86.882072133938
1	6783	640795.925357908542	0
1	6791	641039.096639265759	0
1	6805	641513.89341954146	312.52817556183
1	6840	643172.479049338891	0
1	6849	643795.103849780448	0
1	6857	644494.177927062963	0
1	6866	645397.952528622813	0
1	6891	647626.361066593371	17.029706155195
1	6899	647721.907248860586	25.145380422069
1	6916	649243.913059509809	0
1	6936	650290.114589155196	602.41368420198
1	6967	652865.116756746602	0
1	6975	653039.811488112773	0
1	7011	655370.654684032587	170.74347229925
1	7017	655559.474148069505	198.87222810668
1	7033	656482.73905398048	16.361591379922
1	7042	657714.043164639303	0
1	7068	660645.277040854369	0
1	7084	661253.179675802347	129.83129700866
1	7104	662874.435742996256	893.30411027219
1	7110	663430.32172525093	1282.6599435714
1	7118	663751.739389130239	0
1	7161	668027.74992774393	0
1	7177	668970.569351257295	0
1	7195	670592.744430708264	0
1	7203	670914.472596917759	177.71467837438
1	7211	671347.385779641274	409.03349700113
1	7231	672131.781341129962	321.07359134305
1	7244	672972.828625625215	0
1	7269	674355.116815101729	0
1	7277	674665.751041594069	0
1	7286	675121.233696792135	123.56893194203
1	7310	675885.360950269061	5.166478715894
1	7336	678155.070746559061	0
1	7344	678629.809615612689	0
1	7361	680079.689686944292	0
1	7369	680257.516592015772	0
1	7386	681043.26449697757	0
1	7431	688775.430520881302	0
1	7439	689439.106662478253	206.45598045586
1	7459	690692.675381141464	308.45876534859
1	7473	691730.872443550258	0
1	7481	692192.704341840479	0
1	7490	693101.444254196804	0
1	7526	695222.016452662206	219.54446717974
1	7539	695542.585387513914	0
1	7556	697494.263472264383	0
1	7565	698046.739024340326	283.27981895682
1	7609	704053.412994221781	0
1	7626	706336.002643929005	679.9011081929
1	7644	708477.965425457466	0
1	7652	708761.293751490527	30.079322675728
1	7660	708839.576841612593	9.418524331005
1	7672	709876.179849050747	249.73086783187
1	7694	712175.522927335761	0
1	7719	713682.210708245739	33.65702367343
1	7728	714944.488368739027	0
1	7742	715246.111493222721	6.696983573225
1	7751	716146.34730452336	122.58294280763
1	7787	719518.376723905945	0
1	7796	720323.495258451894	0
1	7807	721049.729661736664	135.68040351225
1	7838	723716.11187776911	0
1	7846	723834.405340577312	75.396906629183
1	7854	724294.395343756109	0
1	7897	728579.43879006863	0
1	7915	731440.63676982698	0
1	7924	732320.39049194095	207.10399678861
1	7954	741005.043209516208	0
1	7962	742035.225479292688	0
1	7979	742899.371275036901	0
1	7987	743459.613803120914	546.87437265398
1	7996	744930.443753056059	0
1	8004	745430.349656476333	0
1	8021	746435.974243153952	464.36227451005
1	8055	748749.935961963422	320.63042932268
1	8073	751742.767692438568	0
1	8097	752907.377226431297	0
1	8117	758155.648232962359	0
1	8125	758516.375882836528	251.43994574066
1	8137	759372.809507279915	616.97553559261
1	8163	762260.142689718645	327.3381926992
1	8168	762345.119392270535	91.319431687022
1	8182	762548.333213285636	131.89288231582
1	8208	763432.194809890107	202.4809225657
1	8217	763652.131168777809	0
1	8225	763767.538577982129	18.681172258569
1	8253	765199.057864869148	5.389861654697
1	8275	767172.175306498465	0
1	8308	768734.417888818145	0
1	8317	770939.596901093624	0
1	8350	775419.486103958932	591.42689611414
1	8356	775588.470514999898	514.69596561546
1	8364	775803.542193458206	653.85977239655
1	8375	776417.455080914564	792.37753059691
1	8380	776611.115716607253	285.769306158
1	8391	776961.502220467451	291.89689185763
1	8397	777045.801446368684	146.92834461628
1	8452	780138.699605742244	0
1	8478	783354.57078038142	0
1	8486	783413.229972131028	0
1	8494	783692.83131512472	42.613971895729
1	8519	785624.194994551155	0
1	8527	785983.737820132202	0
1	8547	787231.386305684915	145.09628367318
1	8561	788390.052102004753	253.69431285265
1	8587	791664.700201281168	0
1	8605	793958.659745663267	140.3264869607
1	8622	796302.689187509006	0
1	8648	798000.043156187541	419.3869923121
1	8656	798541.555755902141	485.5194302088
1	8682	801552.405974763737	102.91503834607
1	8690	802154.304576607149	0
1	8707	803175.16662893589	0
1	8715	803851.0122020416	398.12971505334
1	8724	804493.890866215524	0
1	8732	804977.808377750128	0
1	8740	805411.040487526468	0
1	8749	806781.627927416506	350.30532583565
1	8764	807778.607142766325	529.77705002589
1	8826	809857.386611161284	197.53495660023
1	8838	810717.391295651004	135.2827183571
1	8843	810910.513729506322	301.0919636099
1	8851	811407.367526647703	354.33193837434
1	8891	815746.114427171854	0
1	8900	816672.719132717314	532.23154537517
1	8908	817010.101912682632	112.84075115301
1	8916	817183.697890026066	128.30039539815
1	8926	819007.921617274349	0
1	8967	821355.705945977183	48.726868929331
1	8986	821759.95776568473	246.53171332016
1	8994	821832.702684688118	310.12736983066
1	8999	821904.513688752943	122.87748029762
1	9041	824908.410847327297	0
1	9050	826298.720444954803	0
1	9059	827730.486601217135	0
1	9074	828272.330442924545	527.3115068256
1	9079	828297.626135627707	44.119345787785
1	9109	829975.320996635748	188.20599371345
1	9143	833170.988916328989	0
1	9153	836117.458138340953	0
1	9179	838714.131854722634	0
1	9196	840638.211715830034	0
1	9206	843337.178803563518	0
1	9214	844141.874707182161	0
1	9231	845711.914804869587	74.980335495994
1	9240	846185.940679181396	0
1	9270	849442.693888575377	2532.5679148764
1	9281	849771.465770822585	2485.488450382
1	9286	849810.427194056577	93.527573862639
1	9343	857168.436674568036	0
1	9364	864248.398021913684	0
1	9372	864415.239726596625	0
1	9380	864700.689014365206	193.30339034451
1	9388	864883.968865411797	0
1	9397	866714.526200341256	0
1	9439	869819.214900563577	499.69213086868
1	9448	870442.080896182134	0
1	9483	874916.620409446613	0
1	9501	877605.155821896854	0
1	9518	880460.263066336338	0
1	9537	884502.602211418017	0
1	9555	887803.485387468993	0
1	9564	888013.685218127397	21.549521749361
1	9572	888186.40179324712	60.896522650524
1	9580	888882.101368541952	0
1	9598	891015.484278727729	22.094882472765
1	9609	891931.894072572955	76.033529809859
1	9625	892067.837847889108	17.102740898501
1	9656	894413.760013740721	166.09389692276
1	9673	896585.629876177663	0
1	9690	897601.867455052218	0
1	9710	898936.123440442433	562.29876670572
1	9730	901415.907523628447	859.13442322925
1	9736	901523.871551646265	932.25384872483
1	9757	902322.708728278327	170.12569647945
1	9765	902816.579582021293	309.54899302269
1	9798	904052.525009969509	1083.2854186459
1	9804	904580.539909738888	1608.6331386073
1	9809	904661.943328643376	1495.147045732
1	9820	905448.71975268511	2250.2239491709
1	9825	905493.708873255359	2262.692660213
1	9830	905786.451249394477	2372.6469505982
1	9838	905857.882804212949	2293.7541120464
1	9847	906058.566891267093	1173.9550081529
1	9892	908988.374149936568	148.71275999541
1	9909	909281.120503619465	15.043476028711
1	9949	910343.40035545706	116.44384932158
1	9962	910480.683356760984	0
1	9983	912034.651365387485	382.88129391681
1	9996	912811.00789096804	0
1	10013	914695.539837815712	0
1	10021	914944.098059060285	213.96706459675
1	10063	917237.883455790554	105.45041913215
1	10073	919722.23623686704	0
1	10100	924168.132955874648	0
1	10108	924984.781119102916	0
1	10117	926365.060518284459	0
1	10151	929178.065899877398	102.6353436815
1	10159	929433.762654009855	0
1	10176	931400.094535709619	0
1	10185	931688.597455678622	0
1	10193	932740.811742858468	0
1	10201	932917.594355654564	82.96350904426
1	10235	935872.806029256474	0
1	10278	939933.162193088963	0
1	10287	941712.842483045689	0
1	10314	946275.108826046901	0
1	10323	947434.926939287493	0
1	10340	948271.895116087817	0
1	10371	950236.881665378612	655.09371947203
2	1024	79239.197305677085	0
2	1050	80324.22825398752	1
2	1055	80441.252723609621	0
2	1101	88943.253576510044	1
2	1103	88943.253576510044	0
2	1109	89145.695730921474	1
2	1111	89145.695730921474	0
2	1114	89188.287440298563	1
2	1119	89242.090171063975	0
2	1134	90418.267085258384	1
2	1136	90418.267085258384	0
2	1147	91272.422863285322	1
2	1152	91366.529692175795	0
2	1175	92830.01846530349	1
2	1177	92830.01846530349	0
2	1193	94634.703450018559	1
2	1195	94634.703450018559	0
2	1219	97827.986495923427	1
2	1221	97827.986495923427	0
2	1238	103117.913991980149	1
2	1240	103117.913991980149	0
2	1255	104503.939059803687	1
2	1257	104503.939059803687	0
2	1273	107420.299986583617	1
2	1275	107420.299986583617	0
2	1278	107698.096845220832	1
2	1283	107819.308035441463	0
2	1300	112056.079825213619	1
2	1302	112056.079825213619	0
2	1320	117316.297687324287	1
2	1322	117316.297687324287	0
2	1345	119567.048462477083	1
2	1347	119567.048462477083	0
2	1354	120667.842647883049	1
2	1356	120667.842647883049	0
2	1371	121706.750901552901	1
2	1373	121706.750901552901	0
2	1379	121827.801128374786	1
2	1381	121827.801128374786	0
2	1384	122222.362751142088	1
2	1389	122324.939264831001	0
2	1395	122795.209891558533	1
2	1397	122795.209891558533	0
2	1404	124007.449791786806	1
2	1406	124007.449791786806	0
2	1422	126163.080899806556	1
2	1424	126163.080899806556	0
2	1455	127601.206066493048	1
2	1457	127601.206066493048	0
2	1496	130082.851529694487	1
2	1498	130082.851529694487	0
2	1502	130562.47180948554	1
2	1507	130880.501134272191	0
2	1530	133187.050947996241	1
2	1532	133187.050947996241	0
2	1548	135432.726795940774	1
2	1550	135432.726795940774	0
2	1557	136718.945529574783	1
2	1559	136718.945529574783	0
2	1562	136979.832798548216	1
2	1567	137386.476525386894	0
2	1601	143147.158625164106	1
2	1603	143147.158625164106	0
2	1609	143648.592145992732	1
2	1611	143648.592145992732	0
2	1618	144249.822008873789	1
2	1620	144249.822008873789	0
2	1644	147344.962907625224	1
2	1646	147344.962907625224	0
2	1657	147995.561322640845	1
2	1662	148436.20875901013	0
2	1677	149079.687974261133	1
2	1679	149079.687974261133	0
2	1685	149734.195314245203	1
2	1687	149734.195314245203	0
2	1690	149966.038118382236	1
2	1693	149976.462494932879	2
2	1702	150342.839577452179	1
2	1710	150517.603845041726	0
2	1735	152179.409628112797	1
2	1737	152179.409628112797	0
2	1743	152424.226487685838	1
2	1745	152424.226487685838	0
2	1760	153878.411633400659	1
2	1762	153878.411633400659	0
2	1792	158482.367151388739	1
2	1800	158559.308345096304	0
2	1820	159738.701853362082	1
2	1822	159738.701853362082	0
2	1825	159964.643864098234	1
2	1828	160200.931953244702	2
2	1833	160282.471619507194	1
2	1838	160378.245711702259	0
2	1845	161888.508996232022	1
2	1847	161888.508996232022	0
2	1859	162643.485895599195	1
2	1867	162847.443496988796	0
2	1879	163761.45966257088	1
2	1881	163761.45966257088	0
2	1903	164590.148584582432	1
2	1908	164815.94992810022	0
2	1920	165938.361075886799	1
2	1922	165938.361075886799	0
2	1942	167533.96075581867	1
2	1947	167698.10467875647	0
2	1954	168076.958818020941	1
2	1956	168076.958818020941	0
2	1962	169407.64843229339	1
2	1964	169407.64843229339	0
2	1971	169972.55727033779	1
2	1973	169972.55727033779	0
2	1988	171256.393401782556	1
2	1991	171527.580233981623	2
2	1996	171619.845604060554	1
2	2004	171718.498945153212	0
2	2021	172505.905617652657	1
2	2023	172505.905617652657	0
2	2063	176638.699642463908	1
2	2065	176638.699642463908	0
2	2081	178750.319836243488	1
2	2083	178750.319836243488	0
2	2099	181545.507398641226	1
2	2101	181545.507398641226	0
2	2104	181605.618466772302	1
2	2109	182119.800041223761	0
2	2132	183834.490842303657	1
2	2134	183834.490842303657	0
2	2137	184153.372348022259	1
2	2140	184253.807841689481	2
2	2145	184418.750133903423	1
2	2154	184590.452871503938	0
2	2165	184897.69043075365	1
2	2167	184897.69043075365	0
2	2170	184901.541325250176	1
2	2175	184919.900817003643	0
2	2207	188255.008553654577	1
2	2209	188255.008553654577	0
2	2215	188310.842766071014	1
2	2217	188310.842766071014	0
2	2237	189529.933697296264	1
2	2242	189676.362996274089	0
2	2257	191619.00391468061	1
2	2259	191619.00391468061	0
2	2266	192688.184926976996	1
2	2268	192688.184926976996	0
2	2293	196533.790788817419	1
2	2295	196533.790788817419	0
2	2327	200360.977456927746	1
2	2329	200360.977456927746	0
2	2344	201756.574002511592	1
2	2346	201756.574002511592	0
2	2352	202478.08488621342	1
2	2354	202478.08488621342	0
2	2361	202827.286836498705	1
2	2363	202827.286836498705	0
2	2381	208616.121306252035	1
2	2383	208616.121306252035	0
2	2416	213086.278465169314	1
2	2418	213086.278465169314	0
2	2433	215369.39686291301	1
2	2435	215369.39686291301	0
2	2451	218393.503414777938	1
2	2453	218393.503414777938	0
2	2461	220977.442887853439	1
2	2463	220977.442887853439	0
2	2470	222048.467910784866	1
2	2472	222048.467910784866	0
2	2478	223118.346833336436	1
2	2480	223118.346833336436	0
2	2487	223838.901580879459	1
2	2489	223838.901580879459	0
2	2521	226781.87795902567	1
2	2523	226781.87795902567	0
2	2537	227939.67839857834	1
2	2539	227939.67839857834	0
2	2561	231951.588901849673	1
2	2566	232002.256949330535	0
2	2581	233322.25968250495	1
2	2583	233322.25968250495	0
2	2586	233621.396233787369	1
2	2591	233811.838763948051	0
2	2598	234489.76280133806	1
2	2600	234489.76280133806	0
2	2632	238128.039703262633	1
2	2634	238128.039703262633	0
2	2641	239040.027660065938	1
2	2643	239040.027660065938	0
2	2657	239463.413233711026	1
2	2659	239463.413233711026	0
2	2692	243840.635047756611	1
2	2694	243840.635047756611	0
2	2710	247154.091218939271	1
2	2712	247154.091218939271	0
2	2727	247728.952334524311	1
2	2729	247728.952334524311	0
2	2732	247786.555992764675	1
2	2737	247880.930695092538	0
2	2748	248378.381770932939	1
2	2753	248610.941246949128	0
2	2769	251967.5070631942	1
2	2771	251967.5070631942	0
2	2778	252594.991150564036	1
2	2780	252594.991150564036	0
2	2796	256429.652498487396	1
2	2798	256429.652498487396	0
2	2802	256822.49781733181	1
2	2807	257278.415162253997	0
2	2810	257382.991965672699	1
2	2817	258131.350568832319	2
2	2820	258448.861299436139	3
2	2825	258561.580379369483	2
2	2830	259048.10342534669	1
2	2835	259053.748659961847	0
2	2847	259858.257052123876	1
2	2849	259858.257052123876	0
2	2872	261969.076236836996	1
2	2874	261969.076236836996	0
2	2907	266245.463018672868	1
2	2909	266245.463018672868	0
2	2912	266367.176546988984	1
2	2917	266442.908800091907	0
2	2941	268541.610461214698	1
2	2943	268541.610461214698	0
2	2949	269258.777669338878	1
2	2951	269258.777669338878	0
2	2971	270204.208593315054	1
2	2976	270224.19918766015	0
2	2990	270801.599646011332	1
2	2992	270801.599646011332	0
2	3007	271829.665408586816	1
2	3009	271829.665408586816	0
2	3036	272954.227310669273	1
2	3042	273290.107248417947	0
2	3065	275206.003792303863	1
2	3067	275206.003792303863	0
2	3075	277831.706945137185	1
2	3077	277831.706945137185	0
2	3080	277870.958349083112	1
2	3086	278128.54891168926	2
2	3091	278152.81651661988	1
2	3096	278186.365570211845	0
2	3108	279236.976768410614	1
2	3110	279236.976768410614	0
2	3143	284170.0698121266	1
2	3145	284170.0698121266	0
2	3148	284413.544722034891	1
2	3153	284822.455794466044	0
2	3160	285074.671147793426	1
2	3162	285074.671147793426	0
2	3168	285540.853248878679	1
2	3173	285556.354152093479	0
2	3179	286193.278631664619	1
2	3182	286328.926377508387	2
2	3185	286434.04831052571	3
2	3194	286658.218697204354	2
2	3199	286765.721205410222	1
2	3204	286977.910695269343	0
2	3220	287955.430861162964	1
2	3226	288445.54553996773	0
2	3262	289687.602757091398	1
2	3267	289927.247749864322	0
2	3300	291630.67429974239	1
2	3302	291630.67429974239	0
2	3309	292997.223814895774	1
2	3311	292997.223814895774	0
2	3320	297402.402734736618	1
2	3322	297402.402734736618	0
2	3325	297574.313276714785	1
2	3330	297901.500957174394	0
2	3345	299381.09331679441	1
2	3347	299381.09331679441	0
2	3353	299460.203401609366	1
2	3355	299460.203401609366	0
2	3384	301745.288238919949	1
2	3392	302483.134006978605	0
2	3405	305016.165974140182	1
2	3407	305016.165974140182	0
2	3410	305151.287539774438	1
2	3415	305339.300093874738	0
2	3431	308707.378948934137	1
2	3433	308707.378948934137	0
2	3453	310096.877827104567	1
2	3458	310200.587813097366	0
2	3479	312261.959726792425	1
2	3482	312482.133299744731	2
2	3487	312759.067979636013	1
2	3492	312773.549937145014	0
2	3498	313289.75229428514	1
2	3500	313289.75229428514	0
2	3533	316520.429590438984	1
2	3535	316520.429590438984	0
2	3542	318081.937429043429	1
2	3544	318081.937429043429	0
2	3547	318128.509963620556	1
2	3552	318384.012959256095	0
2	3558	318481.832544971071	1
2	3563	318676.974317634964	0
2	3592	321153.987888297824	1
2	3594	321153.987888297824	0
2	3609	323853.017273018506	1
2	3611	323853.017273018506	0
2	3627	326636.166137298591	1
2	3629	326636.166137298591	0
2	3641	328326.353328218783	1
2	3647	328754.429122254389	0
2	3661	329761.703056973956	1
2	3663	329761.703056973956	0
2	3679	331562.052737584751	1
2	3681	331562.052737584751	0
2	3687	332232.411687146517	1
2	3689	332232.411687146517	0
2	3704	333173.078012668431	1
2	3706	333173.078012668431	0
2	3709	333631.66386332874	1
2	3717	334074.146597512671	0
2	3746	337040.87945621481	1
2	3748	337040.87945621481	0
2	3751	337054.795347667738	1
2	3754	337248.360534080644	2
2	3763	337786.565651980823	1
2	3768	338176.374221279521	0
2	3805	341734.273676804355	1
2	3807	341734.273676804355	0
2	3815	343934.087121957624	1
2	3817	343934.087121957624	0
2	3840	346439.877516784882	1
2	3842	346439.877516784882	0
2	3849	346547.360284002722	1
2	3851	346547.360284002722	0
2	3862	347404.827452136011	1
2	3867	347493.017470811881	0
2	3874	348422.558585007734	1
2	3876	348422.558585007734	0
2	3904	350935.458488177224	1
2	3910	351146.427746332212	0
2	3925	352770.444870413651	1
2	3927	352770.444870413651	0
2	3933	353687.532261714408	1
2	3935	353687.532261714408	0
2	3950	355254.525739640596	1
2	3952	355254.525739640596	0
2	3976	357258.728470439659	1
2	3978	357258.728470439659	0
2	4002	360423.105707394042	1
2	4004	360423.105707394042	0
2	4007	360649.103067504313	1
2	4012	361071.606453282131	0
2	4035	362847.118723434683	1
2	4037	362847.118723434683	0
2	4044	363708.648987427183	1
2	4046	363708.648987427183	0
2	4061	365761.565573327109	1
2	4063	365761.565573327109	0
2	4088	369356.256069131272	1
2	4090	369356.256069131272	0
2	4106	372780.767308024352	1
2	4108	372780.767308024352	0
2	4125	377919.266112837414	1
2	4127	377919.266112837414	0
2	4134	379281.063509513614	1
2	4136	379281.063509513614	0
2	4143	379693.661551719983	1
2	4145	379693.661551719983	0
2	4151	380116.917374362335	1
2	4156	380322.080773117283	0
2	4176	381911.765160672017	1
2	4178	381911.765160672017	0
2	4181	382167.267477052025	1
2	4184	382391.73383526544	2
2	4189	382426.214195834058	1
2	4195	382599.723554944374	0
2	4201	382997.662642888044	1
2	4203	382997.662642888044	0
2	4263	392301.314754472404	1
2	4265	392301.314754472404	0
2	4268	392337.535981245946	1
2	4271	392366.81998760708	2
2	4276	392461.534218819695	1
2	4281	392557.364104451635	0
2	4296	393901.288552333884	1
2	4298	393901.288552333884	0
2	4314	396012.698113471305	1
2	4316	396012.698113471305	0
2	4331	398197.399787325582	1
2	4333	398197.399787325582	0
2	4348	399535.467061970008	1
2	4350	399535.467061970008	0
2	4361	399907.848187763984	1
2	4366	400128.113187113701	0
2	4399	404171.491537363919	1
2	4401	404171.491537363919	0
2	4404	404411.598416215753	1
2	4407	404482.887918242984	2
2	4412	404490.416214674195	1
2	4415	404668.0140676154	2
2	4421	405206.074666752289	1
2	4432	405917.332209423228	0
2	4440	406203.19457866427	1
2	4445	406398.580053198932	0
2	4449	406545.00312146399	1
2	4457	407233.770502065531	0
2	4500	411444.758346292222	1
2	4502	411444.758346292222	0
2	4508	412277.091781548407	1
2	4510	412277.091781548407	0
2	4537	418579.328490629511	1
2	4539	418579.328490629511	0
2	4545	419321.662813407922	1
2	4547	419321.662813407922	0
2	4550	419375.37897478895	1
2	4555	419385.542806701259	0
2	4570	420364.019905698211	1
2	4575	420582.710793157995	0
2	4595	422882.628656397077	1
2	4597	422882.628656397077	0
2	4601	423111.526039080651	1
2	4606	423154.931918385598	0
2	4629	425257.629953692384	1
2	4631	425257.629953692384	0
2	4638	426580.574139312942	1
2	4640	426580.574139312942	0
2	4665	431140.218553447364	1
2	4667	431140.218553447364	0
2	4693	437739.923461606494	1
2	4695	437739.923461606494	0
2	4703	439659.469727796952	1
2	4705	439659.469727796952	0
2	4718	442701.531940152506	1
2	4723	443651.878934849361	0
2	4747	445779.061043972394	1
2	4749	445779.061043972394	0
2	4765	449504.73991982459	1
2	4767	449504.73991982459	0
2	4779	450890.952255946705	1
2	4785	451528.776174096412	0
2	4792	453158.565426810802	1
2	4794	453158.565426810802	0
2	4808	454220.927528088174	1
2	4810	454220.927528088174	0
2	4822	454956.880445938694	1
2	4827	455354.86488227304	0
2	4854	463135.798782796244	1
2	4856	463135.798782796244	0
2	4863	464242.058211022349	1
2	4865	464242.058211022349	0
2	4876	464454.317205677831	1
2	4879	464585.496165636989	2
2	4884	464777.16362169607	1
2	4889	464783.642517556121	0
2	4915	469613.717836270991	1
2	4917	469613.717836270991	0
2	4945	479761.273327266111	1
2	4947	479761.273327266111	0
2	4951	480513.150953437463	1
2	4956	480536.877608728096	0
2	4971	481811.295258455384	1
2	4973	481811.295258455384	0
2	4979	482308.649306884016	1
2	4981	482308.649306884016	0
2	4987	482704.122466877642	1
2	4989	482704.122466877642	0
2	4992	482747.928214546591	1
2	4998	483071.765703695098	0
2	5004	484252.869310680709	1
2	5006	484252.869310680709	0
2	5037	485919.972833376306	1
2	5041	486155.138986672103	2
2	5044	486225.145414465051	3
2	5049	486804.988788086477	2
2	5054	486854.441285932498	1
2	5059	486914.902000557276	0
2	5093	490430.160977926716	1
2	5100	491002.593927669066	2
2	5105	491171.950519973981	1
2	5110	491711.288570607015	0
2	5122	492588.649501441585	1
2	5124	492588.649501441585	0
2	5130	493376.58273531156	1
2	5132	493376.58273531156	0
2	5147	494762.09720028532	1
2	5149	494762.09720028532	0
2	5164	495768.689646293249	1
2	5166	495768.689646293249	0
2	5186	496753.771714016636	1
2	5192	497644.133399937749	2
2	5195	497978.908801823257	3
2	5201	498055.530843148594	2
2	5204	498171.195388690514	3
2	5209	498309.147631674395	2
2	5214	498446.595505983238	1
2	5219	498575.736920751653	0
2	5238	499303.642648753527	1
2	5240	499303.642648753527	0
2	5255	500831.350197227559	1
2	5257	500831.350197227559	0
2	5289	502603.798851987356	1
2	5291	502603.798851987356	0
2	5305	503617.287025882301	1
2	5307	503617.287025882301	0
2	5330	504437.594376361255	1
2	5332	504437.594376361255	0
2	5363	506335.115930443022	1
2	5365	506335.115930443022	0
2	5372	508232.94447495644	1
2	5374	508232.94447495644	0
2	5389	509915.830942218758	1
2	5391	509915.830942218758	0
2	5398	510527.878079570619	1
2	5400	510527.878079570619	0
2	5414	510934.457889242275	1
2	5416	510934.457889242275	0
2	5440	513007.602913389301	1
2	5442	513007.602913389301	0
2	5449	515096.721961257597	1
2	5451	515096.721961257597	0
2	5474	516137.153787973142	1
2	5476	516137.153787973142	0
2	5490	517411.435826480405	1
2	5492	517411.435826480405	0
2	5517	520942.160654809544	1
2	5519	520942.160654809544	0
2	5527	523922.119194719096	1
2	5529	523922.119194719096	0
2	5544	525118.12761645832	1
2	5546	525118.12761645832	0
2	5558	526705.805236018871	1
2	5563	526750.335331944053	0
2	5567	528655.875330130656	1
2	5572	528769.993535180089	0
2	5587	530699.339554584639	1
2	5589	530699.339554584639	0
2	5593	531066.861864588939	1
2	5598	531166.936029286586	0
2	5612	531552.834562018923	1
2	5614	531552.834562018923	0
2	5626	533160.88821373888	1
2	5638	534121.925710021316	0
2	5641	534280.81626621279	1
2	5646	534586.353747139904	0
2	5658	535773.400155842914	1
2	5663	536079.665118889265	0
2	5696	538047.294418420029	1
2	5698	538047.294418420029	0
2	5705	539148.090262568774	1
2	5707	539148.090262568774	0
2	5710	539262.568703479635	1
2	5716	539466.868897960373	2
2	5721	539700.395033336854	1
2	5726	539728.594540856717	0
2	5732	539971.399326257984	1
2	5737	539984.451500211034	0
2	5762	540977.214921352523	1
2	5764	540977.214921352523	0
2	5771	542115.495056285979	1
2	5773	542115.495056285979	0
2	5779	542499.686737114624	1
2	5781	542499.686737114624	0
2	5799	543641.131516040473	1
2	5805	544218.597906325063	2
2	5810	544457.2922360239	1
2	5814	544603.906185269516	2
2	5819	544895.439543108861	1
2	5827	545428.461027499857	0
2	5830	545431.39053879402	1
2	5833	545461.214776243871	2
2	5841	545520.144667074222	1
2	5849	545755.325118896288	0
2	5900	548052.40320289152	1
2	5905	548406.929472434696	0
2	5917	549155.48206320962	1
2	5922	549224.908684755324	0
2	5946	553190.62622020351	1
2	5948	553190.62622020351	0
2	5963	554749.36493325745	1
2	5965	554749.36493325745	0
2	5971	554969.950975853049	1
2	5973	554969.950975853049	0
2	5980	556208.686444274493	1
2	5982	556208.686444274493	0
2	6014	558752.647181225912	1
2	6016	558752.647181225912	0
2	6031	560983.677710280831	1
2	6033	560983.677710280831	0
2	6040	561767.078250341214	1
2	6042	561767.078250341214	0
2	6057	562910.335283869565	1
2	6059	562910.335283869565	0
2	6073	563545.279231361788	1
2	6078	563690.850334086826	0
2	6090	564606.961951447846	1
2	6092	564606.961951447846	0
2	6096	566063.218442993673	1
2	6101	566514.742329024345	0
2	6116	567488.050236816845	1
2	6121	567517.038418857674	0
2	6146	569552.778496642153	1
2	6151	569673.353057082097	0
2	6158	570128.705774923267	1
2	6160	570128.705774923267	0
2	6183	572939.481333904709	1
2	6185	572939.481333904709	0
2	6200	573884.322406368152	1
2	6202	573884.322406368152	0
2	6218	576232.15246573843	1
2	6220	576232.15246573843	0
2	6236	579891.457337319967	1
2	6238	579891.457337319967	0
2	6245	581839.457881191487	1
2	6247	581839.457881191487	0
2	6272	585440.246652822099	1
2	6274	585440.246652822099	0
2	6280	585745.356167136578	1
2	6282	585745.356167136578	0
2	6306	588088.079394205378	1
2	6308	588088.079394205378	0
2	6319	588690.228810896271	1
2	6324	588708.875719354036	0
2	6327	589294.449331880798	1
2	6332	589300.618512142211	0
2	6348	592226.258719894725	1
2	6350	592226.258719894725	0
2	6370	593388.812955920984	1
2	6375	593447.980409877435	0
2	6382	594067.795411972775	1
2	6384	594067.795411972775	0
2	6395	595189.032365718111	1
2	6400	595349.406193215987	0
2	6425	599580.079822953748	1
2	6427	599580.079822953748	0
2	6438	599869.635288614897	1
2	6443	599975.885085777259	0
2	6450	600644.494034718092	1
2	6452	600644.494034718092	0
2	6464	601750.160621218921	1
2	6469	601750.711874782471	0
2	6493	605460.594639608084	1
2	6495	605460.594639608084	0
2	6512	610201.09691661901	1
2	6514	610201.09691661901	0
2	6521	610890.684726731857	1
2	6523	610890.684726731857	0
2	6529	611784.306720491087	1
2	6531	611784.306720491087	0
2	6555	613665.139215588119	1
2	6557	613665.139215588119	0
2	6581	616967.413180237735	1
2	6583	616967.413180237735	0
2	6589	617413.770097404034	1
2	6591	617413.770097404034	0
2	6603	618289.720123478107	1
2	6608	618420.518320916246	0
2	6641	622579.552277872004	1
2	6643	622579.552277872004	0
2	6649	622842.16165349043	1
2	6651	622842.16165349043	0
2	6657	623711.969146785429	1
2	6659	623711.969146785429	0
2	6663	624109.87628594861	1
2	6666	624228.364370453873	2
2	6671	624303.245958647551	1
2	6676	624329.425956427364	0
2	6729	635930.520144144895	1
2	6731	635930.520144144895	0
2	6739	637915.237033907977	1
2	6741	637915.237033907977	0
2	6755	638960.61969229696	1
2	6757	638960.61969229696	0
2	6769	639832.311580036551	1
2	6774	639919.193652170489	0
2	6781	640795.925357908542	1
2	6783	640795.925357908542	0
2	6789	641039.096639265759	1
2	6791	641039.096639265759	0
2	6797	641201.365243979633	1
2	6805	641513.89341954146	0
2	6838	643172.479049338891	1
2	6840	643172.479049338891	0
2	6847	643795.103849780448	1
2	6849	643795.103849780448	0
2	6855	644494.177927062963	1
2	6857	644494.177927062963	0
2	6864	645397.952528622813	1
2	6866	645397.952528622813	0
2	6886	647609.331360438176	1
2	6891	647626.361066593371	0
2	6894	647696.761868438517	1
2	6899	647721.907248860586	0
2	6914	649243.913059509809	1
2	6916	649243.913059509809	0
2	6928	649687.700904953214	1
2	6936	650290.114589155196	0
2	6965	652865.116756746602	1
2	6967	652865.116756746602	0
2	6973	653039.811488112773	1
2	6975	653039.811488112773	0
2	7003	655199.911211733341	1
2	7006	655360.601919962821	2
2	7011	655370.654684032587	1
2	7017	655559.474148069505	0
2	7028	656466.377462600558	1
2	7033	656482.73905398048	0
2	7040	657714.043164639303	1
2	7042	657714.043164639303	0
2	7066	660645.277040854369	1
2	7068	660645.277040854369	0
2	7079	661123.348378793687	1
2	7084	661253.179675802347	0
2	7096	661981.131632724069	1
2	7099	662147.661781679498	2
2	7104	662874.435742996256	1
2	7110	663430.32172525093	0
2	7116	663751.739389130239	1
2	7118	663751.739389130239	0
2	7159	668027.74992774393	1
2	7161	668027.74992774393	0
2	7175	668970.569351257295	1
2	7177	668970.569351257295	0
2	7193	670592.744430708264	1
2	7195	670592.744430708264	0
2	7198	670736.757918543375	1
2	7203	670914.472596917759	0
2	7206	670938.352282640143	1
2	7211	671347.385779641274	0
2	7222	671810.707749786909	1
2	7231	672131.781341129962	0
2	7242	672972.828625625215	1
2	7244	672972.828625625215	0
2	7267	674355.116815101729	1
2	7269	674355.116815101729	0
2	7275	674665.751041594069	1
2	7277	674665.751041594069	0
2	7280	674997.664764850102	1
2	7286	675121.233696792135	0
2	7305	675880.194471553167	1
2	7310	675885.360950269061	0
2	7334	678155.070746559061	1
2	7336	678155.070746559061	0
2	7342	678629.809615612689	1
2	7344	678629.809615612689	0
2	7359	680079.689686944292	1
2	7361	680079.689686944292	0
2	7367	680257.516592015772	1
2	7369	680257.516592015772	0
2	7384	681043.26449697757	1
2	7386	681043.26449697757	0
2	7429	688775.430520881302	1
2	7431	688775.430520881302	0
2	7434	689232.650682022391	1
2	7439	689439.106662478253	0
2	7454	690384.216615792877	1
2	7459	690692.675381141464	0
2	7471	691730.872443550258	1
2	7473	691730.872443550258	0
2	7479	692192.704341840479	1
2	7481	692192.704341840479	0
2	7488	693101.444254196804	1
2	7490	693101.444254196804	0
2	7518	695002.471985482465	1
2	7526	695222.016452662206	0
2	7537	695542.585387513914	1
2	7539	695542.585387513914	0
2	7554	697494.263472264383	1
2	7556	697494.263472264383	0
2	7560	697763.459205383505	1
2	7565	698046.739024340326	0
2	7607	704053.412994221781	1
2	7609	704053.412994221781	0
2	7621	705656.101535736105	1
2	7626	706336.002643929005	0
2	7642	708477.965425457466	1
2	7644	708477.965425457466	0
2	7647	708731.214428814799	1
2	7652	708761.293751490527	0
2	7655	708830.158317281588	1
2	7660	708839.576841612593	0
2	7667	709626.448981218877	1
2	7672	709876.179849050747	0
2	7692	712175.522927335761	1
2	7694	712175.522927335761	0
2	7714	713648.553684572309	1
2	7719	713682.210708245739	0
2	7726	714944.488368739027	1
2	7728	714944.488368739027	0
2	7737	715239.414509649496	1
2	7742	715246.111493222721	0
2	7746	716023.76436171573	1
2	7751	716146.34730452336	0
2	7785	719518.376723905945	1
2	7787	719518.376723905945	0
2	7794	720323.495258451894	1
2	7796	720323.495258451894	0
2	7802	720914.049258224413	1
2	7807	721049.729661736664	0
2	7836	723716.11187776911	1
2	7838	723716.11187776911	0
2	7841	723759.008433948129	1
2	7846	723834.405340577312	0
2	7852	724294.395343756109	1
2	7854	724294.395343756109	0
2	7895	728579.43879006863	1
2	7897	728579.43879006863	0
2	7913	731440.63676982698	1
2	7915	731440.63676982698	0
2	7919	732113.286495152344	1
2	7924	732320.39049194095	0
2	7952	741005.043209516208	1
2	7954	741005.043209516208	0
2	7960	742035.225479292688	1
2	7962	742035.225479292688	0
2	7977	742899.371275036901	1
2	7979	742899.371275036901	0
2	7982	742912.739430466939	1
2	7987	743459.613803120914	0
2	7994	744930.443753056059	1
2	7996	744930.443753056059	0
2	8002	745430.349656476333	1
2	8004	745430.349656476333	0
2	8016	745971.611968643902	1
2	8021	746435.974243153952	0
2	8049	748429.305532640745	1
2	8055	748749.935961963422	0
2	8071	751742.767692438568	1
2	8073	751742.767692438568	0
2	8095	752907.377226431297	1
2	8097	752907.377226431297	0
2	8115	758155.648232962359	1
2	8117	758155.648232962359	0
2	8120	758264.935937095868	1
2	8125	758516.375882836528	0
2	8128	758755.833971687302	1
2	8137	759372.809507279915	0
2	8154	761932.804497019446	1
2	8158	762253.799960583513	2
2	8163	762260.142689718645	1
2	8168	762345.119392270535	0
2	8177	762416.440330969812	1
2	8182	762548.333213285636	0
2	8203	763229.713887324409	1
2	8208	763432.194809890107	0
2	8215	763652.131168777809	1
2	8217	763652.131168777809	0
2	8220	763748.85740572356	1
2	8225	763767.538577982129	0
2	8248	765193.668003214451	1
2	8253	765199.057864869148	0
2	8273	767172.175306498465	1
2	8275	767172.175306498465	0
2	8306	768734.417888818145	1
2	8308	768734.417888818145	0
2	8315	770939.596901093624	1
2	8317	770939.596901093624	0
2	8339	774828.059207844788	1
2	8342	775073.774549384439	2
2	8345	775149.682421061653	3
2	8350	775419.486103958932	2
2	8356	775588.470514999898	1
2	8359	775625.077550317653	2
2	8364	775803.542193458206	1
2	8370	776325.346410449255	2
2	8375	776417.455080914564	1
2	8380	776611.115716607253	0
2	8383	776669.605328609819	1
2	8386	776898.873101752404	2
2	8391	776961.502220467451	1
2	8397	777045.801446368684	0
2	8450	780138.699605742244	1
2	8452	780138.699605742244	0
2	8476	783354.57078038142	1
2	8478	783354.57078038142	0
2	8484	783413.229972131028	1
2	8486	783413.229972131028	0
2	8489	783650.217343228991	1
2	8494	783692.83131512472	0
2	8517	785624.194994551155	1
2	8519	785624.194994551155	0
2	8525	785983.737820132202	1
2	8527	785983.737820132202	0
2	8542	787086.290022011738	1
2	8547	787231.386305684915	0
2	8556	788136.357789152105	1
2	8561	788390.052102004753	0
2	8585	791664.700201281168	1
2	8587	791664.700201281168	0
2	8600	793818.33325870257	1
2	8605	793958.659745663267	0
2	8620	796302.689187509006	1
2	8622	796302.689187509006	0
2	8642	797580.656163875441	1
2	8648	798000.043156187541	0
2	8651	798056.036325693343	1
2	8656	798541.555755902141	0
2	8677	801449.490936417665	1
2	8682	801552.405974763737	0
2	8688	802154.304576607149	1
2	8690	802154.304576607149	0
2	8705	803175.16662893589	1
2	8707	803175.16662893589	0
2	8710	803452.882486988263	1
2	8715	803851.0122020416	0
2	8722	804493.890866215524	1
2	8724	804493.890866215524	0
2	8730	804977.808377750128	1
2	8732	804977.808377750128	0
2	8738	805411.040487526468	1
2	8740	805411.040487526468	0
2	8744	806431.322601580857	1
2	8749	806781.627927416506	0
2	8759	807248.830092740435	1
2	8764	807778.607142766325	0
2	8821	809659.851654561051	1
2	8826	809857.386611161284	0
2	8830	810582.108577293901	1
2	8833	810609.421765896422	2
2	8838	810717.391295651004	1
2	8843	810910.513729506322	0
2	8846	811053.035588273362	1
2	8851	811407.367526647703	0
2	8889	815746.114427171854	1
2	8891	815746.114427171854	0
2	8895	816140.487587342144	1
2	8900	816672.719132717314	0
2	8903	816897.261161529623	1
2	8908	817010.101912682632	0
2	8911	817055.397494627911	1
2	8916	817183.697890026066	0
2	8924	819007.921617274349	1
2	8926	819007.921617274349	0
2	8962	821306.979077047852	1
2	8967	821355.705945977183	0
2	8978	821513.426052364575	1
2	8981	821522.575314857459	2
2	8986	821759.95776568473	1
2	8989	821781.636208455327	2
2	8994	821832.702684688118	1
2	8999	821904.513688752943	0
2	9039	824908.410847327297	1
2	9041	824908.410847327297	0
2	9048	826298.720444954803	1
2	9050	826298.720444954803	0
2	9057	827730.486601217135	1
2	9059	827730.486601217135	0
2	9065	827745.018936098946	1
2	9069	828253.506789839922	2
2	9074	828272.330442924545	1
2	9079	828297.626135627707	0
2	9104	829787.1150029223	1
2	9109	829975.320996635748	0
2	9141	833170.988916328989	1
2	9143	833170.988916328989	0
2	9151	836117.458138340953	1
2	9153	836117.458138340953	0
2	9177	838714.131854722634	1
2	9179	838714.131854722634	0
2	9194	840638.211715830034	1
2	9196	840638.211715830034	0
2	9204	843337.178803563518	1
2	9206	843337.178803563518	0
2	9212	844141.874707182161	1
2	9214	844141.874707182161	0
2	9226	845636.934469373593	1
2	9231	845711.914804869587	0
2	9238	846185.940679181396	1
2	9240	846185.940679181396	0
2	9251	846910.125973699021	1
2	9254	847285.977320440559	2
2	9270	849442.693888575377	1
2	9276	849716.899620193938	2
2	9281	849771.465770822585	1
2	9286	849810.427194056577	0
2	9341	857168.436674568036	1
2	9343	857168.436674568036	0
2	9362	864248.398021913684	1
2	9364	864248.398021913684	0
2	9370	864415.239726596625	1
2	9372	864415.239726596625	0
2	9375	864507.385624020697	1
2	9380	864700.689014365206	0
2	9386	864883.968865411797	1
2	9388	864883.968865411797	0
2	9395	866714.526200341256	1
2	9397	866714.526200341256	0
2	9434	869319.522769694902	1
2	9439	869819.214900563577	0
2	9446	870442.080896182134	1
2	9448	870442.080896182134	0
2	9481	874916.620409446613	1
2	9483	874916.620409446613	0
2	9499	877605.155821896854	1
2	9501	877605.155821896854	0
2	9516	880460.263066336338	1
2	9518	880460.263066336338	0
2	9535	884502.602211418017	1
2	9537	884502.602211418017	0
2	9553	887803.485387468993	1
2	9555	887803.485387468993	0
2	9558	887992.135696378036	1
2	9564	888013.685218127397	0
2	9567	888125.505270596596	1
2	9572	888186.40179324712	0
2	9578	888882.101368541952	1
2	9580	888882.101368541952	0
2	9592	890993.389396254964	1
2	9598	891015.484278727729	0
2	9601	891855.860542763096	1
2	9609	891931.894072572955	0
2	9620	892050.735106990607	1
2	9625	892067.837847889108	0
2	9651	894247.666116817961	1
2	9656	894413.760013740721	0
2	9671	896585.629876177663	1
2	9673	896585.629876177663	0
2	9688	897601.867455052218	1
2	9690	897601.867455052218	0
2	9701	898373.824673736712	1
2	9710	898936.123440442433	0
2	9722	900556.773100399195	1
2	9725	900591.617702921432	2
2	9730	901415.907523628447	1
2	9736	901523.871551646265	0
2	9752	902152.583031798881	1
2	9757	902322.708728278327	0
2	9760	902507.030588998607	1
2	9765	902816.579582021293	0
2	9768	902969.239591323605	1
2	9771	902971.906771131602	2
2	9778	903166.796282911409	3
2	9781	903198.495803514202	4
2	9784	903231.016213042369	5
2	9790	903413.80429879628	6
2	9793	903564.128692166526	7
2	9798	904052.525009969509	6
2	9804	904580.539909738888	5
2	9809	904661.943328643376	4
2	9815	904884.611883114202	5
2	9820	905448.71975268511	4
2	9825	905493.708873255359	3
2	9830	905786.451249394477	2
2	9838	905857.882804212949	1
2	9847	906058.566891267093	0
2	9887	908839.661389941157	1
2	9892	908988.374149936568	0
2	9904	909266.077027590754	1
2	9909	909281.120503619465	0
2	9944	910226.956506135479	1
2	9949	910343.40035545706	0
2	9960	910480.683356760984	1
2	9962	910480.683356760984	0
2	9974	911651.770071470672	1
2	9983	912034.651365387485	0
2	9994	912811.00789096804	1
2	9996	912811.00789096804	0
2	10011	914695.539837815712	1
2	10013	914695.539837815712	0
2	10016	914730.130994463531	1
2	10021	914944.098059060285	0
2	10058	917132.433036658403	1
2	10063	917237.883455790554	0
2	10071	919722.23623686704	1
2	10073	919722.23623686704	0
2	10098	924168.132955874648	1
2	10100	924168.132955874648	0
2	10106	924984.781119102916	1
2	10108	924984.781119102916	0
2	10115	926365.060518284459	1
2	10117	926365.060518284459	0
2	10146	929075.430556195899	1
2	10151	929178.065899877398	0
2	10157	929433.762654009855	1
2	10159	929433.762654009855	0
2	10174	931400.094535709619	1
2	10176	931400.094535709619	0
2	10183	931688.597455678622	1
2	10185	931688.597455678622	0
2	10191	932740.811742858468	1
2	10193	932740.811742858468	0
2	10196	932834.630846610304	1
2	10201	932917.594355654564	0
2	10233	935872.806029256474	1
2	10235	935872.806029256474	0
2	10276	939933.162193088963	1
2	10278	939933.162193088963	0
2	10285	941712.842483045689	1
2	10287	941712.842483045689	0
2	10312	946275.108826046901	1
2	10314	946275.108826046901	0
2	10321	947434.926939287493	1
2	10323	947434.926939287493	0
2	10338	948271.895116087817	1
2	10340	948271.895116087817	0
2	10360	949581.787945906583	1
2	10363	949777.496417830905	2
2	10366	949794.71149428874	3
2	10371	950236.881665378612	2
3	1042	80046.35244900371	722.87254537469
3	1047	80134.984558856558	751.70386252298
3	1060	80823.00082504142	941.66833732893
3	1065	80843.326108768562	929.82556280131
3	1074	82088.97098283561	0
3	1083	82506.032253690668	0
3	1093	86811.305663561152	0
3	1127	89322.742662216408	0
3	1144	91218.410599098617	0
3	1161	91699.607268637254	0
3	1169	91932.661389519172	37.966772830551
3	1186	93281.242773426968	176.55092551177
3	1203	94944.378170949546	0
3	1211	95764.572618751153	0
3	1229	98799.730890159412	0
3	1249	104248.21287249958	0
3	1267	106547.263759190809	0
3	1293	109598.517937023855	0
3	1313	116099.893711971461	0
3	1330	117930.916904809413	160.70362360133
3	1338	118499.683836281366	473.66896552625
3	1364	121282.895475774121	0
3	1415	124943.849078897564	0
3	1432	126831.776219257349	0
3	1440	126990.732010194163	0
3	1448	127445.632228485636	0
3	1465	128208.129204003191	0
3	1473	128857.78786280206	0
3	1482	129329.390219277307	0
3	1490	129829.908724086149	332.03554988708
3	1515	131261.861546794976	0
3	1524	132849.804887994603	0
3	1541	134604.7489102181	0
3	1576	138455.002865243948	0
3	1585	139813.632303158705	0
3	1593	140838.980476791315	0
3	1628	144424.794231676073	0
3	1637	145554.773922511628	0
3	1654	147804.177479118971	443.90959587745
3	1671	149052.024681240592	2.969242662929
3	1715	150747.902004507289	421.50254657546
3	1723	151353.632598847919	896.39942216551
3	1728	151358.547725443817	152.76894811942
3	1753	152848.904737101904	419.732821902
3	1771	155258.50842933582	0
3	1780	156243.625904910512	0
3	1789	158000.5502942565	0
3	1805	158853.023537995859	354.00258646125
3	1814	159125.762098004495	98.361233549885
3	1856	162586.793594893611	0
3	1872	163093.817075974203	357.64763538934
3	1889	163874.388647723896	0
3	1897	164332.903081234563	0
3	1914	165323.113045294708	977.1811621216
3	1930	166463.687544836412	0
3	1939	167160.801138222855	0
3	1981	170123.276035041086	0
3	2009	171998.182333981611	767.40996881174
3	2014	172031.698721940156	351.87047487742
3	2031	172821.523661813592	0
3	2039	172875.809516427987	0
3	2048	174044.030912244997	0
3	2056	174396.173940823678	0
3	2074	177306.373705902969	0
3	2091	179808.601960321319	0
3	2117	182628.725677793733	8.375637213087
3	2126	183419.671696828806	0
3	2159	184697.244212947396	232.57933703838
3	2183	185672.320392995889	326.8715334042
3	2192	186067.039225895624	0
3	2200	186610.257553423983	318.61018249633
3	2225	188504.026255192356	7.492647200986
3	2234	189456.092513823919	0
3	2251	190806.443081447394	0
3	2278	195101.398278559024	0
3	2286	195583.059943065805	353.035289125
3	2303	197805.47531293894	0
3	2312	198869.662819302873	563.23117643682
3	2320	199345.601071598209	78.036507192696
3	2338	201609.681994826128	0
3	2372	204207.106283833009	0
3	2391	208900.618622925722	0
3	2400	211154.856871907533	0
3	2409	211879.54038981237	648.96644608027
3	2426	213737.414300114988	0
3	2444	216457.964880247171	0
3	2497	224703.756478465901	0
3	2505	224971.740578513193	146.76916074547
3	2514	226020.06894552867	0
3	2531	227221.682101368068	0
3	2548	228930.066530211914	0
3	2558	231515.49965476186	0
3	2574	232262.269051546259	0
3	2609	235946.490543809706	0
3	2618	237377.403400687774	0
3	2626	237600.00437826155	0
3	2651	239338.661177628661	0
3	2668	240564.056253136689	0
3	2677	241634.381713887198	0
3	2686	243662.186081232971	0
3	2703	245183.899812491111	0
3	2720	247289.4495779194	0
3	2745	248069.163558358976	0
3	2762	249539.037142678645	0
3	2790	255489.274011578301	0
3	2840	259201.068595550915	1409.9163350429
3	2857	260851.063168535056	0
3	2866	261486.070562832343	236.52559370225
3	2883	262884.395533422318	0
3	2892	264297.954135236458	0
3	2900	265312.207956084531	0
3	2925	266752.841076220535	0
3	2934	267258.079921741399	0
3	2959	269805.408188107558	0
3	2968	270026.268779863694	181.99806445043
3	2984	270554.998085924331	211.60521166407
3	3001	271517.657098672739	401.6268374752
3	3017	272131.382105510298	0
3	3025	272683.039950631154	0
3	3033	272931.975161335244	0
3	3050	274334.526329795389	0
3	3059	274693.14319907394	0
3	3101	278258.270647716127	384.12626779021
3	3118	279460.393757104399	153.34474883607
3	3126	279730.022042342171	0
3	3136	283025.336011595361	0
3	3209	287200.268582404056	2016.7302633451
3	3217	287954.175305418816	1796.5989544773
3	3231	288580.191470839826	1930.6851237976
3	3245	289244.69432740507	2007.518920976
3	3250	289416.371577673031	701.54498093275
3	3256	289672.185092624062	630.85454480471
3	3272	290172.930038870548	966.13155774765
3	3280	290182.264640873233	507.05276275857
3	3285	290200.771919279659	24.20740041624
3	3294	291202.231951727784	0
[...]
7	4477	407845.858514675975	1
7	4490	409744.275281854776	0
7	4505	411552.22971347675	1
7	4514	412613.044476538849	2
7	4516	412653.29850034848	1
7	4528	418510.355299359718	0
7	4542	418680.588663212745	1
7	4553	419385.542806701259	2
7	4557	419932.47247865632	1
7	4561	419972.115328673469	2
7	4565	419991.423170813058	1
7	4578	421087.049246311931	2
7	4586	422356.704453850929	1
7	4604	423154.931918385598	2
7	4608	423209.130155122616	1
7	4612	423515.164457456898	2
7	4616	423570.358168271675	1
7	4634	425574.618328629801	2
7	4642	426596.538228044484	1
7	4646	426652.993805641809	2
7	4650	427080.075764851993	1
7	4670	431192.817871118036	2
7	4672	431900.487636463489	1
7	4678	432377.225513835517	0
7	4698	437980.153255617797	1
7	4708	439712.010769135337	2
7	4712	442661.794427906349	1
7	4726	443756.549155697504	2
7	4728	443871.245565090485	1
7	4737	445413.813678291725	0
7	4752	446350.426457498508	1
7	4756	449114.633243953556	0
7	4771	450004.97817589577	1
7	4773	450731.311815734491	0
7	4788	451806.98236581784	1
7	4797	453485.825471240244	2
7	4799	453859.639564339495	1
7	4813	454275.708809706592	2
7	4815	454360.610707933974	1
7	4830	455403.623845745245	2
7	4832	455701.716465427113	1
7	4842	458926.200674378994	0
7	4859	463222.25662973417	1
7	4868	464293.261675233345	2
7	4870	464344.384429686351	1
7	4887	464783.642517556121	2
7	4892	464862.36161204901	3
7	4895	465263.337422222172	2
7	4903	465306.115302554162	1
7	4919	469738.402332074865	0
7	4923	469881.179590570839	1
7	4931	471681.734907123775	0
7	4954	480536.877608728096	1
7	4959	480763.244949148435	2
7	4961	480940.996061914039	1
7	4976	482086.176483864235	2
7	4984	482398.567419643698	3
7	4996	483071.765703695098	4
7	5001	483212.113367458269	5
7	5008	484296.062966236852	4
7	5013	484655.359355417517	5
7	5017	484798.337016054499	4
7	5025	485073.43564858121	3
7	5033	485876.83310932301	2
7	5052	486854.441285932498	3
7	5057	486914.902000557276	4
7	5062	487203.571106671375	5
7	5067	487761.996058135258	4
7	5078	488365.240814168849	3
7	5087	490109.401009057048	2
7	5096	490537.274616511326	1
7	5108	491711.288570607015	2
7	5114	492200.423053227714	3
7	5127	493319.69370796959	4
7	5136	493623.171025436955	5
7	5138	493818.785970776851	4
7	5152	494854.049312212606	5
7	5154	494987.327338410684	4
7	5168	495934.567129479394	3
7	5172	495985.425726131129	4
7	5180	496564.729176636434	3
7	5188	497250.831304546404	2
7	5207	498309.147631674395	3
7	5212	498446.595505983238	4
7	5217	498575.736920751653	5
7	5222	498749.622484068255	6
7	5226	498827.218453281174	5
7	5243	499328.03745715406	6
7	5246	500266.047282728478	5
7	5259	500836.819712848419	4
7	5263	501180.639678909576	3
7	5267	501240.922643864817	4
7	5279	502291.217431962905	3
7	5293	503131.81136516743	2
7	5297	503231.292195112924	3
7	5309	503621.921551785869	2
7	5313	503851.255621072012	3
7	5321	504009.324379130822	2
7	5334	504534.984324813665	1
7	5338	504629.238544169138	2
7	5342	504762.374520707042	1
7	5354	506013.779718254817	0
7	5368	506708.44949052605	1
7	5378	508592.392816757862	2
7	5380	508994.847313140404	1
7	5395	510448.459155115288	2
7	5403	510587.013787600112	3
7	5405	510774.645238339223	2
7	5419	511003.306006396526	3
7	5421	511319.108572190629	2
7	5430	512549.601464680689	1
7	5445	513054.328400011958	2
7	5454	515124.334410608058	3
7	5456	515264.369913765444	2
7	5464	515536.578061515358	1
7	5479	516328.418203938458	2
7	5481	516908.70936949032	1
7	5496	517664.545929628562	2
7	5498	517754.604089823844	1
7	5507	519699.996944312812	0
7	5522	521197.243367044507	1
7	5532	523937.396447962185	2
7	5534	524111.111905754552	1
7	5549	525512.470590890252	2
7	5552	526580.537084397229	1
7	5570	528769.993535180089	2
7	5574	529131.211929841813	1
7	5578	529433.780050622908	2
7	5596	531166.936029286586	3
7	5601	531195.175127553677	4
7	5603	531375.684986372438	3
7	5617	531665.468192540926	4
7	5620	533070.416820622861	3
7	5628	533217.063204509022	2
7	5631	533252.756155530149	1
7	5644	534586.353747139904	2
7	5649	534975.728738789533	3
7	5653	535217.19084594792	2
7	5666	536568.355093641599	3
7	5679	537350.160296834504	2
7	5684	537775.045789788459	1
7	5702	538697.725065427643	2
7	5712	539387.281799363701	1
7	5719	539700.395033336854	2
7	5724	539728.594540856717	3
7	5728	539912.454858763716	2
7	5735	539984.451500211034	3
7	5741	540266.921506311713	4
7	5753	540576.054392422202	3
7	5767	541148.91568593203	4
7	5776	542172.218210085632	5
7	5784	542596.54802513545	6
7	5786	542796.951991439412	5
7	5792	543370.762849079197	4
7	5795	543456.741427292236	3
7	5801	543696.816930594609	2
7	5817	544895.439543108861	3
7	5821	544927.68758382453	2
7	5825	545428.461027499857	3
7	5835	545467.254489158136	2
7	5839	545520.144667074222	3
7	5843	545700.827686766837	2
7	5847	545755.325118896288	3
7	5853	546306.97629232458	4
7	5857	546433.095203012031	3
7	5875	546679.67655865822	2
7	5908	548526.569152655702	3
7	5910	548935.318034306805	2
7	5926	550641.931868780156	3
7	5928	550811.861769518006	2
7	5937	552633.7377807112	1
7	5952	553730.222894757816	2
7	5954	553808.936040461567	1
7	5968	554882.256709507896	2
7	5977	555356.154012306165	3
7	5985	556387.367259750358	4
7	5988	556851.924178090137	3
7	5996	557686.934979947435	2
7	6005	558374.114691356891	1
7	6019	558783.862208348592	2
7	6022	559579.35238724334	1
7	6036	560992.666268130093	2
7	6045	562032.195967444245	3
7	6047	562164.632608633659	2
7	6061	562968.393962185172	1
7	6065	563071.132095315342	2
7	6069	563444.334978316817	1
7	6081	563944.259992184551	2
7	6099	566514.742329024345	3
7	6104	566542.703586458558	4
7	6107	567452.545788069015	3
7	6112	567479.135738621022	2
7	6124	567829.830452093836	3
7	6128	568099.833965945269	2
7	6140	569187.796290145505	1
7	6154	569810.615955474956	2
7	6163	570206.643690163496	3
7	6165	570500.439282343753	2
7	6170	570996.591488943405	1
7	6189	573124.066840568466	2
7	6191	573705.40542988169	1
7	6205	573891.72844544846	2
7	6208	575705.779082522383	1
7	6223	577010.809552727339	2
7	6226	578054.54083363141	1
7	6241	580006.801697040345	2
7	6250	581968.4400823524	3
7	6253	582760.307856434495	2
7	6262	584260.210109738431	1
7	6277	585542.034837615873	2
7	6285	585750.711317263126	3
7	6287	585928.128989356277	2
7	6296	587782.27154951488	1
7	6311	588191.575922726221	2
7	6313	588670.261077208547	1
7	6330	589300.618512142211	2
7	6335	589307.238021990289	3
7	6337	589356.540937962501	2
7	6354	592510.428664407466	3
7	6356	593080.158683998547	2
7	6364	593346.239306508432	1
7	6378	593847.84849257246	2
7	6387	594170.375663250505	3
7	6389	594999.284823083071	2
7	6403	595732.602957259992	1
7	6407	595927.678956030512	2
7	6416	599436.497578325533	1
7	6430	599711.920604282621	2
7	6432	599833.521850056812	1
7	6446	599979.987299871292	2
7	6455	600795.119346230405	3
7	6458	601703.692935959299	2
7	6472	601758.409762757454	3
7	6474	602199.17407241948	2
7	6483	603035.693415166748	1
7	6498	606294.30584516446	0
7	6502	606362.512352059661	1
7	6517	610273.532880742502	2
7	6526	610925.239035293787	3
7	6533	611788.976431400229	2
7	6537	611996.53987240182	3
7	6542	612456.173881023663	2
7	6560	614012.203186479618	3
7	6562	614531.739924159879	2
7	6567	614712.608685127135	1
7	6586	617318.468613917954	2
7	6594	617453.706051218452	3
7	6596	617599.770669034147	2
7	6610	618679.936781943031	1
7	6614	618873.274158587009	2
7	6619	619544.885209664238	1
7	6631	622381.647761698182	0
7	6646	622699.190221874307	1
7	6654	623107.880846821652	2
7	6669	624303.245958647551	3
7	6674	624329.425956427364	4
7	6679	624676.95689746918	5
7	6681	624702.606525662843	4
7	6689	624860.86573823332	3
7	6700	629355.833771495983	2
7	6708	629696.577979981818	1
7	6717	630404.686077481539	0
7	6735	636154.435367467014	1
7	6743	638152.256046985434	0
7	6747	638157.446870857501	1
7	6761	639030.026947762525	2
7	6763	639069.799184209085	1
7	6777	639976.102179290398	2
7	6786	640849.76146274305	3
7	6793	641179.656834924787	2
7	6799	641460.949730406761	1
7	6803	641513.89341954146	2
7	6808	642052.779161379109	1
7	6812	642096.853741015429	2
7	6826	642449.125348295794	1
7	6843	643354.555756378571	2
7	6852	643862.595127979965	3
7	6860	644914.854952077706	4
7	6869	645457.998290846835	5
7	6871	645589.003686389154	4
7	6880	647595.362439995974	3
7	6897	647721.907248860586	4
7	6903	648637.403034598812	5
7	6905	648863.013590591203	4
7	6919	649596.755148858872	3
7	6923	649613.231224034528	4
7	6930	649787.290582167636	3
7	6938	650336.172141121385	2
7	6942	650550.543502793048	3
7	6955	652459.47699300134	2
7	6970	652973.698693414536	3
7	6977	653578.821938256131	2
7	6982	654601.314734705727	3
7	6989	654830.91237086975	2
7	6997	655021.076192553634	1
7	7015	655559.474148069505	2
7	7020	656069.688583293518	3
7	7022	656412.951910380245	2
7	7036	656734.383420524521	3
7	7045	657748.769895545393	4
7	7047	657919.402585353051	3
7	7056	659706.793446983575	2
7	7070	660794.203285220098	1
7	7074	660870.164130371642	2
7	7087	661340.504006629446	3
7	7090	661948.781366088792	2
7	7108	663430.32172525093	3
7	7113	663559.942380573513	4
7	7120	663843.645443635877	3
7	7124	664043.152234224148	4
7	7128	664313.258777970318	3
7	7140	665011.501963296304	2
7	7149	667215.605191645924	1
7	7163	668255.03361850816	0
7	7167	668308.045304165396	1
7	7181	669093.965259713963	2
7	7183	669678.500392363594	1
7	7201	670914.472596917759	2
7	7209	671347.385779641274	3
7	7214	671525.920628355824	4
7	7216	671534.839005869024	3
7	7224	671930.913810390638	2
7	7234	672342.729668384861	3
7	7247	673221.63847299703	4
7	7250	673698.99300446968	3
7	7258	673764.743108696498	2
7	7272	674626.77806410091	3
7	7284	675121.233696792135	4
7	7288	675292.710387622588	3
7	7291	675456.195598148953	2
7	7295	675525.900468570807	3
7	7313	676676.28616804062	2
7	7317	676684.548193336407	3
7	7324	676982.640081671953	2
7	7339	678286.678098969408	3
7	7347	678788.174812692805	4
7	7349	678798.15986849158	3
7	7364	680080.822611619137	4
7	7372	680344.462346998415	5
7	7374	680488.689173859536	4
7	7389	681196.754364538127	5
7	7391	681311.633602439918	4
7	7399	681896.256798935716	3
7	7408	683732.803912730905	2
7	7420	688528.269768392141	1
7	7437	689439.106662478253	2
7	7442	689751.777753857292	3
7	7444	689857.684275879288	2
7	7449	689931.761050191504	1
7	7462	691216.061488328234	2
7	7476	691849.032869865182	3
7	7484	692768.248324755372	4
7	7492	693347.618418704973	3
7	7496	693377.698216957313	4
7	7500	693391.491886356881	3
7	7512	694649.299540753142	2
7	7520	695160.546546270973	1
7	7529	695353.199864320024	2
7	7542	695562.316681062825	3
7	7545	696137.269965317258	2
7	7563	698046.739024340326	3
7	7568	698062.542997240171	4
7	7570	698579.287220032121	3
7	7579	699082.294600198003	2
7	7584	700141.300979341523	1
7	7587	700214.545279001121	0
7	7612	704315.350178299101	1
7	7615	705562.986423000733	0
7	7630	707275.610845141461	1
7	7632	707796.488702610088	0
7	7650	708761.293751490527	1
7	7658	708839.576841612593	2
7	7662	709089.601555784435	1
7	7670	709876.179849050747	2
7	7675	709972.124164023116	3
7	7679	710006.20400839142	2
7	7697	712254.918478308193	3
7	7700	712552.746632926786	2
7	7708	713472.432194148543	1
7	7722	713698.459110574898	2
7	7730	715102.310111230774	1
7	7733	715112.168718301291	0
7	7740	715246.111493222721	1
7	7749	716146.34730452336	2
7	7754	716342.901892869632	3
7	7766	716573.574454637327	2
7	7774	716880.26185825711	1
7	7791	720234.177884167038	2
7	7798	720810.06515120019	1
7	7805	721049.729661736664	2
7	7809	721417.075987570494	1
7	7814	721714.710947122526	2
7	7827	723097.213484855615	1
7	7844	723834.405340577312	2
7	7849	724148.927598849132	3
7	7857	724336.911447048362	4
7	7859	724342.338938595195	3
7	7868	724930.957396280674	2
7	7873	725078.134700256692	1
7	7885	727130.566540083784	0
7	7901	729099.990261574974	1
7	7903	729905.693657738063	0
7	7922	732320.39049194095	1
7	7927	732716.406171579272	2
7	7929	733335.034345829712	1
7	7940	737448.400886582326	0
7	7957	741417.664490729169	1
7	7964	742171.101037013728	0
7	7969	742730.835226187007	1
7	7985	743459.613803120914	2
7	7990	743496.333036070787	3
7	7999	744966.385511610009	4
7	8007	745555.696638670014	3
7	8011	745929.831665434548	4
7	8024	746583.994113390746	5
7	8027	747838.000704978371	4
7	8035	748279.991049290652	3
7	8043	748390.940532413194	2
7	8058	749286.944934820847	3
7	8060	749847.983048099411	2
7	8076	751876.614876147049	3
7	8078	752123.258993631183	2
7	8086	752644.864495318396	1
7	8101	753136.615873785472	2
7	8103	753190.243461715967	1
7	8123	758516.375882836528	2
7	8130	758987.563150294116	1
7	8135	759372.809507279915	2
7	8140	759656.662190884191	3
7	8148	761875.794955632903	2
7	8166	762345.119392270535	3
7	8170	762361.58378832045	2
7	8173	762391.207954962804	1
7	8180	762548.333213285636	2
7	8184	762553.537751006451	1
7	8188	762822.117106570532	2
7	8212	763596.933265466074	3
7	8223	763767.538577982129	4
7	8228	763827.778386658218	5
7	8230	764240.803026832615	4
7	8235	764264.221629905088	3
7	8238	764455.855763973615	2
7	8256	765282.722870887424	3
7	8263	766234.664687979306	2
7	8277	767181.058040547138	1
7	8281	767227.455428716873	2
7	8288	767473.105357559425	1
7	8296	767816.475768505327	0
7	8311	768761.378831527859	1
7	8321	771102.334551370241	2
7	8323	771968.549943441542	1
7	8333	774412.511754223303	0
7	8354	775588.470514999898	1
7	8362	775803.542193458206	2
7	8366	776202.270897642707	1
7	8373	776417.455080914564	2
7	8378	776611.115716607253	3
7	8389	776961.502220467451	4
7	8395	777045.801446368684	5
7	8400	777073.219988560289	6
7	8407	777292.322391050507	5
7	8412	777844.290742839759	4
7	8424	778812.903312006812	3
7	8432	779151.823667465192	2
7	8440	779590.892843293305	1
7	8455	780151.5621335723	2
7	8457	781120.400810600892	1
7	8466	782495.515068349885	0
7	8481	783404.480569043037	1
7	8492	783692.83131512472	2
7	8497	783793.340542081991	3
7	8500	784576.296748804651	2
7	8508	785132.769877250924	1
7	8522	785627.714057109785	2
7	8531	786166.005283135827	3
7	8533	786418.224750151899	2
7	8538	786564.582773399301	1
7	8551	788037.809611893387	2
7	8564	788420.82612972652	3
7	8567	790440.490547977185	2
7	8573	790578.724125527397	1
7	8591	792142.354126980704	2
7	8594	793773.103222285558	1
7	8608	794303.594983365811	2
7	8611	795559.030620417915	1
7	8625	796452.357392664369	2
7	8628	796555.280595560285	1
7	8636	797512.594575615836	0
7	8654	798541.555755902141	1
7	8659	798765.974487901015	2
7	8662	800217.525706754655	1
7	8670	800993.041739455408	0
7	8685	801576.39687038867	1
7	8694	802969.588220913554	2
7	8696	803075.5462028792	1
7	8713	803851.0122020416	2
7	8718	803912.443005870277	3
7	8727	804617.331373762379	4
7	8735	805077.504823538513	5
7	8747	806781.627927416506	6
7	8752	807093.751560447679	5
7	8755	807239.445846879963	4
7	8762	807778.607142766325	5
7	8767	807902.228189982567	6
7	8771	807912.196656972672	5
7	8779	807951.032735793243	4
7	8787	808228.129612046009	3
7	8796	808735.883374057003	2
7	8799	808749.874279282376	1
7	8812	809247.877709289992	0
7	8836	810717.391295651004	1
7	8841	810910.513729506322	2
7	8849	811407.367526647703	3
7	8855	811612.168422923632	4
7	8862	812064.738367278516	3
7	8871	813125.331923684171	2
7	8876	813689.125082136375	1
7	8898	816672.719132717314	2
7	8906	817010.101912682632	3
7	8914	817183.697890026066	4
7	8919	817378.269779620421	5
7	8928	819290.226701739239	4
7	8932	819485.573133912345	5
7	8936	819489.386562981579	4
7	8944	819718.519157750963	3
7	8956	821025.964832060411	2
7	8969	821392.147142283886	1
7	8973	821477.530425277987	2
7	8992	821832.702684688118	3
7	8997	821904.513688752943	4
7	9002	821919.615034602909	5
7	9005	822017.868148193808	4
7	9013	822838.596020033611	3
7	9022	823748.636787535339	2
7	9027	823898.036840783639	1
7	9044	824980.152368629058	2
7	9053	826476.835424901248	3
7	9061	827732.712802245056	2
7	9072	828272.330442924545	3
7	9077	828297.626135627707	4
7	9082	828891.627946164382	5
7	9086	829120.005451946351	4
7	9097	829225.040972618642	3
7	9112	830026.955658936483	4
7	9114	830191.065682339848	3
7	9119	830216.042178361297	2
7	9131	831675.211286043481	1
7	9146	833564.737148119907	2
7	9156	836366.068561494131	3
7	9159	837179.905066345525	2
7	9164	837467.287289738245	1
7	9182	838911.526832928933	2
7	9184	839003.984602690378	1
7	9199	840758.004269517795	2
7	9209	843929.916725710469	3
7	9217	844250.005196058028	4
7	9220	845010.507400155011	3
7	9235	846087.447992986169	4
7	9243	846244.653356619996	5
7	9245	846623.865132847143	4
7	9257	847757.228583237606	3
7	9260	848747.271427590162	2
7	9263	848980.331513024124	1
7	9272	849622.025693989801	0
7	9279	849771.465770822585	1
7	9284	849810.427194056577	2
7	9288	849933.487784434422	1
7	9292	850044.549555711619	2
7	9321	852971.951201727818	1
7	9330	854516.621150026903	0
7	9346	857318.097384165515	1
7	9349	858012.692887250566	0
7	9367	864266.68941294739	1
7	9378	864700.689014365206	2
7	9383	864717.541091038145	3
7	9391	864905.214949060042	4
7	9400	866935.200032422996	5
7	9402	866964.08271947217	4
7	9411	867072.532062051272	3
7	9420	868642.996254984105	2
7	9425	868715.762428832814	1
7	9443	870063.21052709416	2
7	9451	870635.918336434334	3
7	9453	870960.03572082302	2
7	9462	871856.525751819123	1
7	9467	871961.555945713897	0
7	9486	875081.617085228016	1
7	9488	875782.067427290595	0
7	9504	877888.89235505066	1
7	9507	879638.683310526676	0
7	9522	880814.339393341362	1
7	9524	881310.956719985314	0
7	9540	884639.28296434154	1
7	9543	885515.63324052837	0
7	9562	888013.685218127397	1
7	9570	888186.40179324712	2
7	9575	888280.781657342985	3
7	9584	889807.706084227065	4
7	9586	890766.18028063695	3
7	9603	891889.369400212697	2
7	9607	891931.894072572955	3
7	9612	891943.991127845212	4
7	9616	892032.103454908232	3
7	9628	892166.105403514127	4
7	9636	892896.284859951727	3
7	9644	893932.061575335262	2
7	9659	894953.390050142396	3
7	9661	895359.105607930389	2
7	9676	896751.898769081068	3
7	9679	897299.780644953138	2
7	9693	897728.193425268872	3
7	9695	898249.619893521502	2
7	9704	898800.132850667303	1
7	9713	900219.167562570245	0
7	9717	900238.623246730084	1
7	9734	901523.871551646265	2
7	9739	901672.913777553155	3
7	9746	902040.105038873097	2
7	9763	902816.579582021293	3
7	9774	903045.443576530778	2
7	9786	903393.437418648062	1
7	9796	904052.525009969509	2
7	9802	904580.539909738888	3
7	9807	904661.943328643376	4
7	9811	904798.399032248147	3
7	9818	905448.71975268511	4
7	9823	905493.708873255359	5
7	9828	905786.451249394477	6
7	9832	905851.640540263224	5
7	9836	905857.882804212949	6
7	9840	905895.820826202264	5
7	9845	906058.566891267093	6
7	9849	906762.897332499253	5
7	9852	907181.829594762741	4
7	9857	907621.38857481196	5
7	9895	909230.981502301255	4
7	9899	909258.678251619589	5
7	9912	909299.148130203139	6
7	9919	909772.371506252181	5
7	9924	909791.357880295873	4
7	9935	910004.553725641014	3
7	9940	910155.64828042839	2
7	9952	910381.758824693394	3
7	9965	911065.400797796223	2
7	9969	911111.220478843529	3
7	9976	911754.101493611992	2
7	9986	912284.551570749788	3
7	9999	913118.472480811019	4
7	10002	914432.58495047955	3
7	10019	914944.098059060285	4
7	10025	915095.443022668016	5
7	10027	915777.707629692939	4
7	10035	916138.600706076534	3
7	10044	916800.138814266405	2
7	10049	916905.694553338681	1
7	10066	917307.640352738192	2
7	10076	919733.944781257342	3
7	10078	919947.292937919138	2
7	10083	920374.951188082713	1
7	10103	924364.242454505179	2
7	10111	925174.041496504261	3
7	10120	926573.401129121458	4
7	10123	927147.115486452452	3
7	10131	927308.351856916621	2
7	10136	927413.016942496621	1
7	10154	929398.935495912085	2
7	10161	929979.190505177917	1
7	10165	929995.34951367955	2
7	10179	931482.908465352354	3
7	10188	931919.052559891242	4
7	10199	932917.594355654564	5
7	10203	932968.75540175745	4
7	10207	933012.56761736203	3
7	10211	933330.040302211297	4
7	10215	933870.003178719756	3
7	10237	935875.847858315059	2
7	10242	936028.088687783122	3
7	10249	936069.067195801838	2
7	10257	936444.509623004589	1
7	10266	937847.422126845209	0
7	10281	940059.862856198882	1
7	10291	942768.401220314006	2
7	10293	942998.15408030821	1
7	10303	945395.833191437014	0
7	10318	947353.417371753992	1
7	10326	947704.265686783756	2
7	10329	948188.415543044104	1
7	10343	948276.20861173411	2
7	10345	948758.55829855825	1
7	10354	949558.718982625509	0
