version 2
run QueueMeasurement-27-20170109-14:23:42-6763
attr configname QueueMeasurement
attr datetime 20170109-14:23:42
attr experiment QueueMeasurement
attr inifile queueStudy.ini
attr iterationvars ""
attr iterationvars2 $repetition=27
attr measurement ""
attr network controltower.SimNetwork
attr processid 6763
attr repetition 27
attr replication #27
attr resultdir results
attr runnumber 27
attr seedset 27
param SimNetwork.a.parkingLot.parkingDelay exponential(45min)
param SimNetwork.a.runway.landingTime exponential(5min)
param SimNetwork.a.runway.takeoffTime exponential(5min)
param SimNetwork.a.runway.throughputCheckInterval 25min
param SimNetwork.wg.interArrivalTime exponential(25min)

vector 5  SimNetwork.a.runway  landedThroughput:vector  ETV
attr source  landedThroughputSignal
vector 6  SimNetwork.a.runway  tookoffThroughput:vector  ETV
attr source  tookoffThroughputSignal
vector 0  SimNetwork.wg  responseTime:vector  ETV
attr source  responseTimeSignal
vector 4  SimNetwork.a.takeoffQueue  queueLength:vector  ETV
attr source  queueLengthSignal
vector 3  SimNetwork.a.takeoffQueue  queueTime:vector  ETV
attr source  queueTimeSignal
vector 7  SimNetwork.a.parkingLot  parkingOccupancy:vector  ETV
attr source  parkingOccupancy
vector 2  SimNetwork.a.landingQueue  queueLength:vector  ETV
attr source  queueLengthSignal
vector 1  SimNetwork.a.landingQueue  queueTime:vector  ETV
attr source  queueTimeSignal
0	791	79953.028759301553	2447.3096692548
0	796	80370.996056630233	9689.7035860307
0	805	82201.76932970339	6134.208932792
0	832	86565.329088847697	7976.1475541983
0	844	88465.788775082965	5337.0744835044
0	859	90153.022019065164	4535.0193063943
0	885	93122.272251723214	2893.9355168967
0	894	94940.266871527557	6661.1210166944
0	922	96057.200350311125	5293.3630817578
0	930	96212.244032261396	1247.1638037879
0	963	97978.014803915444	1805.6262454349
0	995	98783.017251158272	2498.7409689715
0	1000	98868.089005585407	3464.3680094343
0	1009	100496.251621775849	2807.7652356077
0	1018	100939.444512380767	2679.7725703509
0	1026	101919.954616166491	5091.6963740533
0	1044	103528.6299075392	5150.3460503419
0	1072	109690.910172860013	4064.4103806874
0	1089	111250.253008226597	8463.0717438478
0	1105	111780.554647597699	2287.0454292626
0	1123	114315.411211554338	4428.3023645163
0	1167	116973.619380308727	3933.1383121471
0	1173	117086.901493211164	1662.135068423
0	1184	117711.885519989242	2538.0872561156
0	1198	118724.240791557083	7340.7846839834
0	1226	121160.050279653316	3848.6678646156
0	1231	121387.268133265177	5784.3417543841
0	1243	121791.56240620927	2459.2878084899
0	1248	122047.616591444384	7054.0801161664
0	1311	128419.238804296174	8282.9539555285
0	1316	128923.384779384424	3875.1252597253
0	1328	129338.054497199323	2948.5165966777
0	1333	129431.52953715859	2602.2442609743
0	1342	131836.589466531679	5335.9117452433
0	1369	135210.216763054175	11486.376535101
0	1386	136917.524942284144	2268.0758426932
0	1394	136971.339331385685	9993.451107222
0	1402	137879.711348110157	5014.6250291968
0	1429	141135.267485699508	5181.7125355172
0	1437	142271.243962012077	3348.8007069728
0	1466	148731.565957348202	8817.4088466316
0	1515	153618.740188773881	4472.3353103185
0	1523	154017.233562294763	9441.7841565475
0	1550	156013.200177946981	9186.139610119
0	1600	159055.773186638489	9791.8175288528
0	1614	160546.111422321038	11021.624815344
0	1630	161183.488913183117	8659.8958262941
0	1638	161604.899884893366	6523.475007175
0	1643	161622.827558354002	5911.5680895637
0	1649	162437.155876784862	6875.5259922161
0	1657	162569.328920875367	8843.9414485552
0	1667	163421.043572158878	5994.7903755221
0	1676	164798.98595721701	4622.8677548715
0	1688	165554.874094880673	8197.364523779
0	1718	167491.486267123015	4942.3805248013
0	1752	169720.776522739002	11072.738217926
0	1760	170353.963345624745	4642.1258258432
0	1771	170990.440147474813	2310.8829337577
0	1777	171093.757095957323	3222.1048389445
0	1805	173757.63383959582	4288.8782977308
0	1810	173986.803902910216	2264.2758485004
0	1819	175294.757444496781	9785.0051267116
0	1860	179557.872914876043	7728.0055922972
0	1877	180615.747172556162	14796.083432529
0	1882	180671.614171369625	3363.5451557299
0	1887	180919.414050022674	3907.4317418134
0	1922	184909.532154297148	2037.6647996008
0	1953	186317.534566772735	3111.3107262231
0	1958	186794.698614055756	7478.7552570649
0	1963	186966.856621833486	9528.2930693179
0	1982	190721.684567045975	5384.3996190957
0	2009	196330.253145428066	3738.4821738057
0	2026	197721.840132788931	3348.3309898451
0	2038	198417.191509361589	15245.851483458
0	2046	198705.712627179911	9285.3330563297
0	2059	198834.845713557321	13533.68448993
0	2084	200607.351747450592	3258.7202999329
0	2114	204018.827410253418	4402.3765820364
0	2119	204087.105019362612	5655.0841418441
0	2160	206771.883229847557	5380.323960012
0	2168	206979.901507813545	1373.9574275535
0	2177	208058.032636041534	3039.4254777317
0	2187	210158.073067066274	4153.2350027836
0	2195	210921.256983869818	11461.246064247
0	2232	213943.229662083665	7790.1028517123
0	2237	213946.934617832442	2454.6530524144
0	2255	216070.553308694632	15156.984196056
0	2264	217623.267952307633	6207.1847689592
0	2272	218469.244177504416	6792.080627671
0	2299	222133.527977179978	2454.5559387062
0	2307	222788.718137278325	7439.0482501174
0	2341	226386.209376447398	2110.8870156566
0	2350	227036.522713999576	6690.3284178862
0	2367	228918.223702163542	3407.2127796604
0	2376	229534.314057955077	4945.9543831987
0	2392	230523.829271589318	3327.6493372114
0	2416	237516.902336253618	7521.5921081486
0	2430	239596.472908305922	6242.7127690947
0	2451	246633.443257979411	9671.404928183
0	2478	250926.808551910672	5307.6653275799
0	2496	253815.500535619517	3477.0750821877
0	2513	255441.006747365401	4185.438431776
0	2524	255984.695198203506	6409.0898512664
0	2583	260969.927272504713	1903.9963544753
0	2588	260970.221556637685	2051.6109304013
0	2597	261289.518846163191	1969.4486135135
0	2605	262179.388870661914	6236.4774934713
0	2613	262446.735057981052	8060.5629554076
0	2650	265070.034383577777	8074.9604713663
0	2683	266159.756946356829	3290.2185174678
0	2691	266528.992357117126	2081.8752803318
0	2696	266552.166287982078	5991.9716929097
0	2713	267202.503389179937	4651.2029783087
0	2721	267981.62821674732	2823.344127723
0	2729	268455.531056643084	3545.4183743061
0	2738	269327.766726184065	4144.0880840058
0	2769	274791.410255681758	8049.0044948112
0	2774	274793.252389819448	2275.6610606873
0	2816	278910.222670706756	2477.9727579599
0	2829	280837.293141203517	3388.1202278027
0	2837	280929.859264292262	7007.7499854485
0	2842	281225.458697440354	4099.7994144408
0	2868	284312.579574381392	6384.0341891114
0	2912	290048.121154559456	1397.5637412409
0	2931	292806.724730049493	10311.260851497
0	3000	296537.169678495553	15206.333693027
0	3011	296706.825292003862	11560.197738914
0	3022	297304.628943254651	8559.040198039
0	3027	297855.340379933206	5774.1849171345
0	3035	298223.066203219051	4574.3122428682
0	3047	298517.073674961978	9575.3444767075
0	3068	298876.230692515461	6539.6316301362
0	3073	299107.674052448935	4415.379818966
0	3078	299167.765314315266	6177.10391529
0	3103	300321.709145187525	2073.1258852243
0	3111	300533.314175307102	5402.2050322323
0	3119	301106.569728570521	2556.7606375966
0	3136	301718.215236108454	5017.6846700124
0	3145	303065.321813945841	3293.3375326227
0	3161	303429.084724979568	9068.3437610385
0	3170	304506.284849068146	3244.3450483517
0	3213	307979.890063830496	4878.0989820561
0	3231	308545.636788564434	9012.3566947138
0	3236	308754.542471131391	1903.2952323214
0	3273	311520.776904840688	6415.5562773873
0	3306	313185.208357443921	6163.3776881862
0	3314	313253.598660917636	5378.3800228251
0	3319	313390.731942551465	2509.7672176549
0	3328	313670.070909965165	2179.3182987231
0	3342	314071.300889628079	3918.5090527273
0	3360	314693.997649434376	6717.0281324896
0	3372	315121.539447087436	2434.5726239273
0	3386	316946.23297037959	5398.2123294059
0	3394	317204.017797584554	3025.1980278031
0	3403	318800.243731651617	9532.7808228019
0	3423	320189.636564235298	6245.0088981101
0	3428	320778.156564984871	5683.3531459536
0	3447	325259.587491476082	6019.0767481675
0	3480	328977.05686977783	1544.5777233636
0	3498	329580.957415038843	7244.2309370735
0	3507	330772.139009319119	3105.7285760028
0	3535	332142.101355961452	4088.2644091076
0	3540	332163.948577495861	1295.6280291972
0	3548	332489.096425699547	3101.6117838559
0	3601	339806.448824129058	1149.8578161082
0	3609	340018.666060240042	5710.8916269248
0	3626	340825.703052809227	9753.6577686639
0	3642	341226.321944352778	1183.6293659291
0	3650	341934.824845357946	2523.2949666768
0	3659	342119.63783644318	4719.9316617263
0	3679	344279.675648664483	3374.281970019
0	3693	345822.03864820845	9086.8514270864
0	3710	346836.096705024627	2762.1122855779
0	3718	347705.202827389456	4367.0378978981
0	3754	349439.123808833638	1499.5346492845
0	3759	349439.976085049106	3266.4071897689
0	3786	353246.958423046768	4863.4739256174
0	3817	358792.805086944122	7571.1400784793
0	3822	359686.445802178132	2332.8418728263
0	3840	361608.203277328974	13225.368820673
0	3852	363321.167153338529	5116.1905111592
0	3857	363373.017346139201	11145.467953747
0	3882	365869.419200259456	2291.1092072638
0	3934	370738.529894623336	1094.9006920214
0	3942	370763.884064717273	9495.7070887058
0	3950	371273.545286435066	2303.729884577
0	3962	373430.481448567506	5426.9784971442
0	3976	374630.994355453464	4422.6298140215
0	3993	375537.655436649213	2146.6359636429
0	4001	375620.991612908497	7654.3570902491
0	4045	377819.217574104254	12586.522657899
0	4059	378299.184291310148	1274.7515604568
0	4084	380211.00455391118	5457.8527587394
0	4103	380776.421367160225	2460.8946269256
0	4134	381821.944690554971	4003.3626762169
0	4146	382741.9988847557	2434.7968970522
0	4151	382834.207678302071	5905.4545663851
0	4156	383037.475474146367	5934.1290944659
0	4164	383448.588660174374	2838.3659306217
0	4178	384185.213601225711	7465.7703309547
0	4183	384534.110107471222	4524.3422195859
0	4203	386740.064236533905	3302.4902994
0	4217	387434.324606349097	6242.8039792991
0	4270	391284.032081402982	4554.1633779238
0	4302	393374.107338736726	7930.291065041
0	4319	394662.603642817816	6508.1690029444
0	4327	395223.420902539599	5037.5199448741
0	4340	395453.128711966318	6452.754828932
0	4345	395498.545151651863	4749.7973480489
0	4350	395812.613881321996	6704.0747300435
0	4365	397153.989066317521	4290.1638350525
0	4371	398029.602941896405	6869.9039888312
0	4376	398121.554713599944	6211.7425703107
0	4426	401311.596918938559	6621.8067111846
0	4444	403242.014582470528	3588.1981786519
0	4460	404512.731651858471	6070.0034151235
0	4468	404980.093408489419	5686.1583871995
0	4481	406700.332049227447	5748.1733485989
0	4489	407134.643402102684	4862.071215871
0	4511	408820.020265937442	9515.577491232
0	4528	409612.331607477528	6584.5777403663
0	4544	410543.114663935309	2222.1103326614
0	4556	412138.37185370924	2991.976460517
0	4562	412690.690727061625	5647.1463716542
0	4583	416870.894008053603	7030.8887957165
0	4614	419689.424191197418	2985.3125579814
0	4622	419879.484951553231	2315.389528986
0	4648	422492.328469680651	9409.2605072228
0	4656	422917.898523334634	3787.2454387118
0	4670	427054.657995073028	5813.2574648552
0	4722	432852.417898434049	5935.8455060909
0	4727	432859.416631496488	4643.5244643283
0	4742	434304.936708366745	12429.988799298
0	4747	434331.222668371371	3738.0059019077
0	4752	434350.258707295016	5011.6679162397
0	4777	435714.876928185884	1342.5012526308
0	4786	436839.469834633707	5001.2584102228
0	4811	439035.027647958807	1725.433208632
0	4822	439351.652546271173	4809.6086854519
0	4845	441061.854293019368	3470.0131930283
0	4856	441691.18165729543	2420.506395374
0	4879	444427.860716169023	4758.0580019839
0	4905	448174.230339310477	6505.3832930958
0	4914	448626.168951932422	3851.2574907457
0	4925	449008.638294135528	5076.9880375068
0	4949	454359.845018980167	5455.2898619227
0	4966	455871.394997408704	2056.9493955158
0	4984	458360.588722521494	13353.950252612
0	4993	459307.585835456811	4802.8179770647
0	5010	461174.20042822277	4272.3248503218
0	5028	464403.887093627931	3862.2338904135
0	5049	467792.0281898039	4423.833087903
0	5088	469653.783484617527	4051.0815467416
0	5104	470324.138014030037	2574.5429447431
0	5126	472518.432551348554	3733.49160281
0	5141	472973.482392727663	3944.3884814203
0	5149	473095.739551198933	4756.0863265878
0	5179	474197.171133749678	1907.2409286716
0	5198	474906.459147918074	5191.1138302242
0	5210	475962.448116047226	2695.9382085218
0	5228	477069.234451981059	4602.9159160039
0	5272	480119.864148166207	6608.4729534518
0	5285	480689.9664395236	7627.6854088661
0	5295	480892.76751501913	6224.9767650076
0	5303	481070.860064666681	2080.1930892399
0	5319	483469.278069064039	6661.8105427842
0	5329	483523.534009233748	5447.1080382286
0	5357	485485.795484598194	2079.3731916752
0	5368	485593.307882420461	9197.4044567862
0	5379	486150.220478595172	5533.4179270211
0	5390	487014.29357928131	3087.5362628868
0	5396	487740.598397256482	10516.7363061
0	5404	488461.988646080176	4201.133289377
0	5412	488505.853439379623	11690.643772879
0	5458	492980.241667130963	4172.6452953859
0	5473	494959.315343266785	5125.1532005827
0	5505	496333.443232947362	5794.352027616
0	5520	496822.765140357797	1510.2570038871
0	5533	497169.041428661721	6066.1258930483
0	5538	497399.694843070388	2779.9760768855
0	5586	499696.520905680006	3774.8572874376
0	5591	499972.869232411804	3352.4180050099
0	5596	499988.922311350675	2228.8312966068
0	5607	500806.831808071995	3016.170843486
0	5635	501994.330208162059	16506.421450551
0	5640	502106.830058593123	8682.2058609895
0	5645	502156.691583264919	4401.7479540938
0	5654	502828.015246435902	4393.5815499179
0	5664	505522.9319681627	4850.4887576173
0	5700	511977.797112585734	2720.2201610692
0	5739	514169.556768813781	2032.5310025535
0	5753	514642.687439235191	13570.829509435
0	5758	514844.92786579556	4937.9333480324
0	5766	515284.454796387096	2990.4202472525
0	5784	517998.521960734311	4346.8675387255
0	5792	518721.56040317416	6388.2601148236
0	5818	521125.050188679594	2336.0360668712
0	5826	521857.102977079538	15627.739140876
0	5856	525204.771568605514	6196.5684542497
0	5861	525381.620218694671	9631.3383205776
0	5886	526836.941914199639	3726.0197276486
0	5904	529523.266820948814	5446.2960815961
0	5912	529796.253121040626	3928.4523928852
0	5937	531411.869293461985	1228.0859478135
0	5948	532162.591212985249	6146.7928089861
0	5995	534130.759173764538	6868.9421320804
0	6003	534351.572154248325	1111.2439399546
0	6014	534826.737962435514	2775.5901296234
0	6019	534901.04472189982	1693.5537885641
0	6032	537646.689084596699	4921.8736682116
0	6062	539264.393227859925	8667.0726259204
0	6082	541379.973570035327	2606.1592787168
0	6108	542624.767329969213	3889.4867987748
0	6118	542925.510293499512	2508.1250556308
0	6124	543134.193232992646	6379.7136533242
0	6129	543269.122573749374	9844.7074476506
0	6163	547044.833521239754	5668.7917708061
0	6200	549400.457686960842	3107.1587309229
0	6208	549486.552390336216	3923.2046974369
0	6216	549648.314415539485	7044.1943217459
0	6221	549981.534164506279	2770.270575583
0	6242	552517.411611000096	4387.8235108625
0	6247	552957.668735087061	7854.8709040764
0	6267	554667.041363970881	3908.1020530913
0	6300	556402.033186525865	7477.7904815274
0	6305	556484.199198633461	2638.1284790272
0	6314	556738.903698657871	2020.5775362701
0	6339	559273.015826663474	1537.1851033838
0	6347	559327.332413431637	4719.4828108879
0	6365	561565.631388296765	3009.055842431
0	6374	563835.032997070469	8608.0913866242
0	6400	565701.905891261221	6034.9444464933
0	6416	566925.094882432702	3023.1602251612
0	6434	569715.316375694581	4249.8744618104
0	6471	572027.071500983215	2053.2756195465
0	6476	572114.613783088341	3207.3911824999
0	6499	573460.949843270667	7586.4069395707
0	6504	573775.509313326283	2946.0948157043
0	6509	573817.63585817464	3041.8792110865
0	6550	575478.613684075437	954.59074886044
0	6562	576279.527678178616	2450.7038353792
0	6570	576723.550032865963	2331.4664608419
0	6583	577347.354177425009	2391.7782550096
0	6592	578200.162326800441	5866.2873562213
0	6666	584805.863139256547	4519.6129619201
0	6674	584847.242616776725	8181.9641381864
0	6685	585098.121637916657	4528.6882439791
0	6693	586038.726327911805	5428.5959722973
0	6702	587146.481117782937	6046.0411915118
0	6711	588120.632955490948	6136.4199179665
0	6726	590900.771680591495	10293.471134473
0	6748	592381.511405750557	9447.3628991505
0	6754	592644.432849121469	7799.7802021738
0	6782	595215.232924503616	4505.3193242064
0	6787	595351.89430143053	4795.6558753651
0	6806	599321.747966402652	6635.9654590564
0	6823	600864.115091008792	3166.4736339592
0	6840	601603.865974906102	7767.133963861
0	6868	604081.857748254789	2995.2188629621
0	6874	604586.408647407786	5238.2899412492
0	6907	607426.318880780172	5450.1973446646
0	6924	608942.136022381564	2693.2748971757
0	6933	609389.07566685246	3674.144473305
0	6941	609655.905967662397	2699.5837467116
0	6978	612311.493283634503	4415.2848540078
0	6989	612714.602633259672	1968.4781801749
0	7002	613151.982502761494	9927.6137456018
0	7007	613267.317308798477	2237.3040654856
0	7016	614354.465795043191	3030.9652664416
0	7033	615976.142336215905	3614.1494086861
0	7059	618077.09673129768	928.26156164049
0	7104	625071.395317004299	7709.6980064958
0	7115	625537.178679522755	10574.759171114
0	7123	625653.971574213272	4815.2740699458
0	7139	626999.875879029815	5843.1527862319
0	7153	627501.054656999159	2902.2387405524
0	7161	627954.873223867212	2310.8738888062
0	7170	628773.311153546585	5950.3795529455
0	7197	633888.3705452099	7345.5187365182
0	7210	636039.870976631763	3506.6183724935
0	7259	638865.680221609078	6282.9260941852
0	7265	639043.837417769742	3572.3426261355
0	7276	639924.124154616548	2560.1055956053
0	7281	640020.382319050224	2133.0064888341
0	7290	641145.501971949944	3942.7910188649
0	7339	650065.992859222054	11776.668603451
0	7352	650771.696925769346	5402.8042577306
0	7369	651949.930062642347	1891.5657922731
0	7385	652375.650074803156	3853.3678443101
0	7402	653126.243613446154	2342.4658678379
0	7410	653547.003097215598	1515.1732665433
0	7418	653946.324352700576	6133.3542350726
0	7427	654126.090673445534	4614.7867306754
0	7448	657251.065183703027	4870.148389162
0	7478	658801.25206586817	4219.1016106145
0	7495	660603.002217093081	2541.2241362466
0	7530	664702.494063772316	2100.4412579153
0	7544	665704.059080124612	3601.1386318601
0	7637	670521.13385322833	13630.408023701
0	7645	670731.214374356659	12586.342026367
0	7662	671412.295364111157	11234.213730541
0	7681	672023.034841436192	4531.9116451708
0	7686	672096.18985827468	4725.3688289792
0	7697	672738.693544812919	8931.8870219378
0	7702	673038.303470788925	4369.3933247878
0	7707	673040.433374420778	4296.570438226
0	7718	673425.812254425956	5292.6688713282
0	7724	673533.07665838227	2713.6906361494
0	7735	674456.625375604624	8791.0544071004
0	7757	675133.754641633487	9679.497700817
0	7770	675619.753230439348	7864.2702407182
0	7775	675853.989895315628	6146.7345868717
0	7780	675891.572068062318	4868.1253692432
0	7785	676294.762224211287	2531.4671376531
0	7811	678348.180351886561	4610.8426979258
0	7827	679451.36343855956	2686.6547950323
0	7859	681614.778310770906	6609.4579154064
0	7872	682213.451280508268	4448.7393300321
0	7877	682373.97206110407	2066.8388482075
0	7894	683394.230052019929	4411.9461474686
0	7903	684039.067149137375	3729.2501897644
0	7911	685023.28377345431	3892.1563809811
0	7956	688447.797430287964	2090.4858446057
0	7973	689722.0401525948	4564.7488147258
0	7982	690368.800622502049	3956.8547701313
0	7990	690726.327487329462	3353.7118556712
0	8001	691442.889989048013	8816.4502366277
0	8029	693316.911405206334	4898.2951708437
0	8040	693757.823421877644	2422.653601946
0	8062	694952.248635995665	2854.06649634
0	8071	697416.959725162876	6462.3279936524
0	8080	698224.136399895601	4498.0333184235
0	8116	704830.475815657953	2066.8194110908
0	8125	705773.199453362618	11836.012495953
0	8142	707683.334317166936	7373.4401242381
0	8154	708708.378572975276	4754.2863691349
0	8185	711079.882941127202	5076.8472205598
0	8193	711573.492349882057	1761.689415318
0	8211	714667.880962870328	4537.0078195341
0	8249	719232.876007620739	6385.8822206057
0	8254	719697.169444132783	4508.0188175796
0	8296	722288.161257359753	871.36837681676
0	8313	723048.313128672474	1953.9732559075
0	8321	723634.48882821809	5565.9592756312
0	8367	726645.109356833677	2034.0060850004
0	8380	726979.688877328997	5146.2955377413
0	8385	727274.26157831363	2358.2799115574
0	8391	727793.820816988911	9414.45640803
0	8396	727860.876612725125	2709.3396810824
0	8404	728341.266090676241	5979.8347293364
0	8413	729204.941420865528	21175.707396783
0	8423	732864.493881014687	11340.214425449
0	8443	734750.592219707802	8627.4609219911
0	8494	739344.704505810749	4135.1789959988
0	8519	741481.257903136004	3344.9586642183
0	8607	744129.688440722526	9796.4745486134
0	8615	744409.709514584237	5530.6059403118
0	8620	744560.053716016534	11452.398454064
0	8628	744960.418546433524	5375.4310275673
0	8637	746063.701418796804	4886.5398015189
0	8656	747318.853637202862	4750.492969602
0	8661	747368.015640609258	5093.4744858103
0	8666	747414.65034993177	6402.0341526046
0	8674	747734.287337218866	6855.8200900446
0	8679	747988.572973937066	7302.9628741545
0	8688	749123.693908044485	6970.7343495043
0	8693	749136.849649324387	6316.2110401078
0	8701	749639.254762385547	12232.180533722
0	8743	752371.628867370123	3147.1351596181
0	8762	752868.743661953923	2774.7534884727
0	8768	753158.662548170928	6876.4009073879
0	8773	753225.426001493407	2044.1448749642
0	8781	753851.864712146202	4137.6606081174
0	8798	755386.457840843584	3114.6284943031
0	8824	758662.497369977526	12702.570001803
0	8850	760864.53170570589	2419.4012684552
0	8858	761316.303318752214	2608.4637872303
0	8877	765251.103761432304	10987.265008456
0	8893	765694.612950332571	8229.4341266102
0	8901	765884.234045449609	6447.4520598954
0	8926	767816.047310373445	2351.2298976574
0	8938	768063.070015639664	1823.2279580601
0	8966	770757.22546009224	7276.6918189669
0	8971	770870.031601875717	2910.0285101305
0	8976	770950.264727069486	3979.142494629
0	9011	775486.666359500174	3273.2489648248
0	9024	777176.822171836393	3708.2897994431
0	9063	780399.729278409405	4024.9150931535
0	9075	781541.481981832552	12576.642275549
0	9088	781818.692904399959	6730.5540428758
0	9096	782477.988846436678	2240.4560095532
0	9116	783525.791126858847	3467.5464946676
0	9129	783880.857059717203	2695.7924004189
0	9137	784379.685386668004	1849.9807422684
0	9171	786948.56655402603	1294.3127815243
0	9179	787162.717010753284	3666.288752442
0	9187	787397.035485216793	9116.7812484572
0	9196	787552.276135618907	1972.5048952824
0	9214	791130.646045758565	5129.1049787359
0	9263	793308.928794476701	1429.6560129078
0	9291	794892.907663155557	4920.8592363213
0	9303	795359.445307163757	2163.0125265529
0	9326	796777.941014374302	4737.2482524011
0	9353	798167.682882036467	3952.3909703532
0	9361	798296.788351364604	4461.9921383375
0	9366	798667.509597340686	7477.3598379464
0	9374	799067.694487059091	3077.5675930171
0	9380	799670.806615399899	7454.9380604869
0	9409	804085.222817749662	7965.8072393982
0	9496	807326.329239340536	12143.864069187
0	9504	807442.009933070055	5493.3020214465
0	9509	807466.555174218428	11008.508720455
0	9514	807775.736500776159	4483.59653278
0	9519	807956.55642589301	3431.6151462113
0	9524	808140.883382192849	4343.0242583451
0	9529	808409.71912109616	3343.3532496501
0	9558	811303.133036226476	6960.7209233196
0	9567	811845.342759148919	8224.6822625174
0	9572	812084.488214216828	8525.0460935514
0	9584	813029.902460800605	2485.2738110524
0	9589	813085.475154559251	9662.0700849335
0	9600	814122.528772333042	8320.0490475449
0	9622	815276.394918909236	1801.3534060349
0	9639	816692.448814471398	6007.2551672493
0	9657	819021.954632309892	4819.3474068494
0	9665	819466.614722797854	3987.5304965701
0	9683	823356.942466111705	5151.7131314723
0	9722	832838.714786635618	1024.5371490488
0	9731	835082.279636857116	6187.1696608716
0	9765	838351.485646694411	3042.7993031767
0	9782	839667.922151007406	19496.826735081
0	9800	841597.754258845907	3194.6642987145
0	9826	845424.928244185618	7653.94797477
0	9856	848001.135128655312	12612.116740894
0	9881	849944.467225887482	9734.6304299901
0	9891	850342.657906255718	6725.1329337092
0	9897	850636.032261025995	5037.870390422
0	9905	850813.613182645054	4368.4395637443
0	9910	851096.019933857377	6162.191885769
0	9927	853440.52159813116	20957.063019544
0	9939	853928.33138901253	4120.369723996
0	9944	854310.89795925138	6972.6949982391
0	9979	859072.256046841399	3039.7011661669
0	9991	859615.388212965709	7271.9093985166
0	9996	860049.953287771746	2601.8132387079
0	10016	861723.912374814367	3227.6371543987
0	10038	862525.121827154057	2057.669998249
0	10063	864742.481601117067	1751.773448238
0	10080	865505.678776652519	1733.5311329123
0	10091	866552.178395706107	5268.631558871
0	10105	867350.385028201287	5279.2204568664
0	10121	868452.732070118117	2099.5451871715
0	10141	869889.520719402658	2457.9821368454
0	10181	873173.493473266977	2087.6241412542
0	10189	873742.767260624804	8909.137919986
0	10212	875616.325081599149	6653.6691561121
0	10232	876255.60400846608	5237.0648266074
0	10247	877099.567129977989	5219.0505026035
0	10270	878246.473168088145	8359.3137620889
0	10283	878376.259801059425	2164.144143399
0	10288	878439.400775982968	2282.9222570436
0	10296	878452.598189719421	4286.508470991
0	10308	879430.560261602278	1792.3737689025
0	10316	880047.432767075761	4719.8477772194
0	10346	881194.850455465903	2967.2647579536
0	10378	883555.438636658496	3479.889925488
0	10399	884623.855452930833	2903.9800896462
0	10404	884831.409016545677	4439.0028079587
0	10413	885616.24237809068	3724.193680862
0	10429	886256.58009021325	6744.3921072896
0	10446	887814.979280754421	2012.9877619295
0	10468	891508.615607383757	7956.04225971
0	10481	892295.086854329108	1710.0585020115
0	10499	894251.419228947628	10815.167088196
0	10508	896181.38542153105	9370.0218271958
0	10516	896325.78307157601	5396.8585221477
0	10541	898012.609572931967	4132.332530012
0	10558	899637.978902194628	2129.9582144915
0	10566	899754.653709707156	2348.9874848301
0	10593	903991.071598625922	1810.9508076383
0	10602	904660.773681337922	5164.5299691577
0	10648	909735.471580684357	6693.8710278402
0	10653	910051.563470853519	2252.0292889713
0	10668	911322.519011597894	6231.3271897608
0	10687	912047.404556610356	3885.6470323188
0	10712	914715.068639772198	6342.7738309336
0	10735	916443.482893670605	2524.7204081045
0	10749	917249.699060034965	6682.4728618526
0	10754	917453.093394801358	2589.8793955599
0	10763	918109.159093521611	7261.3324932071
0	10780	919640.905938185075	3781.1723508771
0	10797	922369.99131977955	8506.3208939289
0	10807	924281.473321986419	5611.2525912159
0	10858	928668.438327786758	1768.0315886849
0	10866	929027.968004174705	8758.2858037881
0	10875	930156.727673698645	4713.5626616444
0	10900	932288.686972020648	7056.2135614075
0	10908	932920.223248419758	2631.9989025833
0	10917	933941.69670681472	6744.7974374645
0	10945	935801.925409267194	9424.7096248958
0	10950	935882.37727470011	4468.1863822211
0	10962	936095.732886521645	2107.9099547926
0	11018	939925.046349469706	3842.5922858546
0	11028	940409.979567691955	2994.9898788723
0	11034	940677.371716672065	3464.0154687445
0	11085	944589.354624580128	6806.4833612375
0	11090	944672.70529871724	6453.6104166036
0	11096	945021.545361849865	10656.418923668
0	11101	945370.067490909984	3459.210830313
0	11117	945773.363785728809	6574.5881197932
0	11126	946730.83306696562	2805.7561554665
0	11134	947426.989143806518	4371.488170487
0	11152	950349.389241233799	4925.337233004
1	811	83128.714291578539	0
1	821	85618.002712670907	0
1	846	88465.788775082965	186.64292024985
1	864	90228.336734826521	0
1	872	90763.837268553313	0
1	899	94965.080228473496	0
1	907	95403.720996151099	0
1	932	96212.244032261396	39.855473780827
1	940	96457.363387858087	173.08710567132
1	948	96828.258242113151	0
1	965	97978.014803915444	289.52841774725
1	976	98346.337336376165	86.665394346312
1	984	98635.65074386294	257.36688666562
1	1032	102787.181264378834	0
1	1050	105626.499792172634	0
1	1060	109493.509218335065	0
1	1077	109887.108847038084	0
1	1094	111383.456107573694	0
1	1111	113040.481068161655	0
1	1128	114993.536475278004	0
1	1136	115182.84407593207	9.045812058393
1	1144	115424.766424788162	0
1	1153	115602.926378881076	0
1	1186	117711.885519989242	400.50310495155
1	1203	119332.274597719321	0
1	1212	120136.284848767632	0
1	1254	123723.840227953395	0
1	1263	125048.25951965915	0
1	1272	126389.537900521613	0
1	1290	128141.190204680013	1640.5124833916
1	1298	128254.413968138559	1425.1286919543
1	1303	128372.394773373721	1394.50654921
1	1348	132865.086318913363	0
1	1357	134649.449099590947	0
1	1374	135953.554950182351	0
1	1408	138922.443255039254	0
1	1417	139914.157110716619	0
1	1444	144575.449405747285	0
1	1453	146827.060567827967	0
1	1471	149146.404878455348	0
1	1483	151156.204199409437	1892.2485416237
1	1489	152204.883470159993	2680.3968631827
1	1497	152523.593086889003	0
1	1525	154017.233562294763	291.84608997456
1	1552	156013.200177946981	931.77530022859
1	1560	156193.334284938935	631.70440037014
1	1565	156769.387649226028	1058.1281804357
1	1580	157707.906258776432	350.39668767472
1	1585	158066.872610990161	640.61941435342
1	1602	159055.773186638489	407.73488182506
1	1616	160546.111422321038	369.99321997555
1	1659	162569.328920875367	20.22317855364
1	1690	165554.874094880673	45.121777095508
1	1701	165841.363336306436	129.52581652493
1	1706	165974.43676059256	154.77302056572
1	1723	167871.652257012812	0
1	1732	168679.557213717069	0
1	1740	169478.03909169343	9.28354982844
1	1782	171722.528054409836	0
1	1790	172401.531343112969	571.66402053409
1	1826	177011.982308209248	0
1	1837	177522.346824370841	214.27780873116
1	1842	177836.096006569763	397.5324540542
1	1862	179557.872914876043	241.92955788515
1	1893	182871.867354696353	0
1	1902	183171.340025903098	0
1	1910	183843.165573034212	636.94173248457
1	1927	185301.161223627256	0
1	1935	185434.725883017952	97.440935067727
1	1970	189420.379570850188	0
1	1988	192591.770971622352	0
1	1997	194373.509142943787	0
1	2015	197348.631447517703	0
1	2048	198705.712627179911	273.6917496614
1	2064	199460.010919622854	0
1	2073	199616.45082821702	0
1	2089	200913.569112638132	0
1	2098	201391.559269835545	0
1	2124	205018.607158309842	0
1	2133	205605.944080260094	0
1	2141	206004.838064282697	0
1	2152	206367.38826935816	214.26145898684
1	2200	211416.083183348391	0
1	2212	212487.177502883716	994.89593746571
1	2217	212653.029732587126	975.86618275366
1	2243	215349.669887160903	0
1	2278	219678.972038473759	0
1	2286	220346.194296113411	0
1	2313	224275.32236079076	0
1	2321	224588.359674756388	0
1	2330	225511.010922503095	0
1	2355	227196.179934377946	0
1	2381	229995.310228105062	0
1	2399	233353.760139211237	0
1	2418	237516.902336253618	554.86400645724
1	2439	245619.143224330767	0
1	2458	249575.605346937092	0
1	2466	250338.425453431857	0
1	2483	251255.568315589411	0
1	2501	254386.172102573483	0
1	2526	255984.695198203506	41.783821012911
1	2535	256995.073912211522	0
1	2544	258918.610626236338	0
1	2552	259065.930918029405	0
1	2561	259753.1251520494	433.0549193997
1	2569	260560.19459507239	0
1	2619	262551.300410871227	0
1	2627	263034.656294175976	165.11786528698
1	2639	264604.833671061959	157.71659427666
1	2652	265070.034383577777	159.9217012408
1	2666	265224.832204266723	66.548115242439
1	2671	265317.53691031553	133.85826813722
1	2701	266742.405760870593	0
1	2745	272517.591329132183	0
1	2754	273922.109278843766	0
1	2780	276432.24991274682	0
1	2788	277125.659282999563	0
1	2796	277449.172913400817	0
1	2805	277928.545385269977	0
1	2847	281330.835985468237	0
1	2856	282495.463878552446	0
1	2874	285146.627553089963	0
1	2884	288650.557413318565	0
1	2895	288964.621847111437	219.03310189583
1	2900	289250.542151325403	308.81295307097
1	2933	292806.724730049493	725.56926725083
1	2938	292832.873990910169	496.27492853094
1	2952	293608.766826556804	618.10542753155
1	2970	295246.36652435285	1597.612564002
1	2975	295283.913668190002	923.17270424895
1	2983	295443.453707495971	751.15947401305
1	2992	296089.392019279043	958.28287620424
1	3013	296706.825292003862	6.294725907762
1	3049	298517.073674961978	268.4904149988
1	3057	298555.688557426056	5.879466452089
1	3083	299533.280093850647	0
1	3092	300134.637497978284	362.6532166551
1	3124	301261.939800716399	0
1	3150	303101.791081774444	0
1	3175	305105.220627453351	0
1	3184	306851.247238809982	0
1	3196	307649.555181248947	627.72451199124
1	3215	307979.890063830496	104.67142573799
1	3220	308006.962436615991	29.992919671242
1	3242	309267.462908849708	0
1	3250	310152.791836900746	0
1	3259	310880.964724896522	0
1	3275	311520.776904840688	30.024293598616
1	3290	312394.499046094471	846.4784051208
1	3298	312801.240476201961	114.27365304187
1	3344	314071.300889628079	126.67322350292
1	3352	314220.592367330288	41.772597548801
1	3374	315121.539447087436	26.736028056121
1	3408	319240.510743308557	0
1	3434	322336.726477965393	0
1	3454	327432.479146414251	0
1	3462	327707.081360474054	40.670927157687
1	3482	328977.05686977783	923.219922924
1	3490	329429.484413411083	41.999771567419
1	3512	330868.320548298661	0
1	3520	331072.045284145323	0
1	3554	334307.774433315221	0
1	3564	336735.187221122056	0
1	3572	337399.706174716925	0
1	3581	338656.591008020895	0
1	3590	339411.529878681108	0
1	3614	340042.692578423669	0
1	3631	340905.393678645506	0
1	3664	343338.164929491364	0
1	3681	344279.675648664483	205.69122921776
1	3698	346173.568895280247	0
1	3723	347939.589159549159	0
1	3732	348382.834456655866	0
1	3740	348516.28929044683	132.80479301751
1	3766	351221.665008464868	0
1	3774	352227.549392392643	0
1	3794	357353.603929351811	0
1	3802	358204.97664217934	0
1	3828	361268.176976011499	0
1	3862	363578.30999299566	0
1	3871	365232.694916205427	0
1	3889	367966.63452265944	0
1	3897	368003.50295142326	0
1	3905	368969.815401858089	0
1	3914	369643.629202601957	0
1	3922	370208.364541431921	0
1	3964	373430.481448567506	39.461975561203
1	3981	374753.15179517174	0
1	4007	376719.443270271018	0
1	4015	376928.753111916975	0
1	4026	377222.887772220386	198.45504136699
1	4034	377484.795798303666	381.44941862318
1	4047	377819.217574104254	0.635559766157
1	4064	378315.526740234603	0
1	4073	380009.767887885296	0
1	4089	380307.201987703525	0
1	4105	380776.421367160225	166.19863760754
1	4114	381191.520627049981	0
1	4166	383448.588660174374	11.014723040428
1	4188	385443.816273695744	0
1	4205	386740.064236533905	10.195533054699
1	4222	388154.43463987345	0
1	4231	389000.373883034352	0
1	4239	389108.539151278526	0
1	4248	390185.900957665484	0
1	4256	390748.747803602938	0
1	4272	391284.032081402982	124.3331283378
1	4281	391909.812143289248	0
1	4304	393374.107338736726	510.28210747173
1	4329	395223.420902539599	533.6306947856
1	4381	398442.728236734945	0
1	4390	399293.93502128987	0
1	4404	399847.285853983079	542.8430792776
1	4409	400325.793774356438	671.97737053784
1	4418	401116.564396539143	164.40569591055
1	4446	403242.014582470528	969.44239623888
1	4452	404366.86996731253	1339.1161002013
1	4491	407134.643402102684	91.099046695273
1	4500	408321.004331273958	0
1	4516	409146.395393192289	0
1	4533	409840.005212337125	0
1	4567	413083.067962457901	0
1	4585	416870.894008053603	166.78237483757
1	4594	417820.665885125739	256.57046255848
1	4603	419130.653084622808	0
1	4628	421241.400530217869	0
1	4637	421874.947909069194	0
1	4672	427054.657995073028	138.08560272989
1	4681	428215.892167168138	0
1	4690	429338.590791055353	0
1	4699	430593.21676646366	0
1	4707	431838.211424410905	0
1	4757	434372.375675555047	0
1	4766	435051.793983866664	509.75012304738
1	4791	437309.5944393268	0
1	4799	437591.841099991091	0
1	4824	439351.652546271173	80.97728434977
1	4833	439669.802714185169	0
1	4858	441691.18165729543	22.334611080787
1	4867	443931.650256628739	0
1	4884	444774.911461186732	0
1	4892	445006.638469909125	0
1	4927	449008.638294135528	104.0831370781
1	4938	453814.445601892946	0
1	4955	454504.767858392088	0
1	4972	456901.875577900924	0
1	4999	460541.653203214441	0
1	5016	463368.195101900913	0
1	5034	465602.701937875948	0
1	5051	467792.0281898039	42.433120517011
1	5060	468339.653224611174	0
1	5068	468784.940948538508	0
1	5076	469029.093911307316	0
1	5093	469715.345317693892	0
1	5128	472518.432551348554	228.50234627052
1	5133	472812.872856937636	346.55432096049
1	5151	473095.739551198933	33.458520541474
1	5159	473266.509907525442	0
1	5167	473511.391194714392	0
1	5184	474667.790750011484	0
1	5230	477069.234451981059	673.3310263468
1	5235	477086.324423404242	278.85689712442
1	5243	477246.223401280228	431.01373478001
1	5248	477274.08310090693	50.221009750094
1	5260	478684.149458732039	607.72348772688
1	5274	480119.864148166207	1129.1971727394
1	5287	480689.9664395236	73.16388794952
1	5321	483469.278069064039	62.855776141053
1	5334	483926.757316394476	0
1	5343	484505.926778463318	245.0714217601
1	5370	485593.307882420461	105.39912480954
1	5417	488807.596371745077	0
1	5426	489834.162142684042	0
1	5435	490539.09120533136	0
1	5443	491892.606793025863	789.6912574124
1	5475	494959.315343266785	1534.6911456631
1	5480	494960.09338747763	340.3746212927
1	5489	495920.482160402393	607.97402393167
1	5497	496078.621534417337	156.95791617497
1	5522	496822.765140357797	202.31391295585
1	5543	497754.943629171096	0
1	5555	498046.830291541157	286.73927679731
1	5569	498921.786178608806	1131.1252140228
1	5574	499025.383723752352	590.95002723433
1	5609	500806.831808071995	134.38859752655
1	5618	501071.857929799992	0
1	5669	506229.363836203458	0
1	5679	509257.576951516498	0
1	5687	509906.994517763166	0
1	5705	512137.02576626026	0
1	5716	512801.226102647025	507.19155351248
1	5721	512852.501701918294	519.20141356772
1	5741	514169.556768813781	517.90234680496
1	5771	515750.281898117104	0
1	5797	518789.014121808401	0
1	5806	519313.99937286459	305.79625850873
1	5832	523110.922186551057	0
1	5841	524076.970739352722	0
1	5866	525867.800728155432	0
1	5878	526609.050222561079	593.25181856197
1	5891	527261.817041684114	0
1	5917	530183.783345648498	0
1	5925	530597.320601939495	0
1	5950	532162.591212985249	111.44338017312
1	5959	533116.589754599205	391.77433821409
1	5976	533743.472002249087	535.98106891339
1	5981	533772.46921647575	532.14100218205
1	5986	533944.338349446107	519.92322334732
1	6034	537646.689084596699	892.2095049283
1	6043	538735.280531194458	0
1	6051	538951.460357428841	177.64606611036
1	6068	540417.385237868698	0
1	6084	541379.973570035327	3.931819601695
1	6110	542624.767329969213	20.6472361756
1	6135	545102.797831010678	0
1	6143	545563.347692899297	0
1	6152	546293.298956037988	0
1	6168	547211.263588923297	0
1	6177	548129.588100137603	0
1	6185	548924.242704998441	0
1	6227	550758.939310879586	0
1	6253	553846.070719606224	0
1	6269	554667.041363970881	59.191761427164
1	6277	554846.041774309956	127.7156119222
1	6286	555226.941610446286	0
1	6319	557735.830723279715	0
1	6328	558844.468825702258	287.89327983646
1	6353	559666.96144476797	0
1	6379	563901.934657271487	0
1	6388	565465.441913884189	0
1	6405	565874.542903699966	0
1	6423	568907.222600588487	0
1	6439	569973.795881436738	0
1	6448	570775.756647088187	0
1	6456	570829.414497621994	0
1	6481	572333.874970579157	0
1	6514	573828.823842799464	0
1	6522	574392.083572024086	0
1	6531	574524.022935214993	0
1	6539	574955.575922415415	0
1	6572	576723.550032865963	58.271554275593
1	6598	580286.250177336449	0
1	6616	581498.844957044044	929.41156310644
1	6621	581794.605359389736	1187.3048132711
1	6633	582490.316527426146	1880.1861718117
1	6644	583499.867140932096	2399.4272146609
1	6650	583688.061564948482	1703.8485274241
1	6655	583704.956471995442	770.80796539537
1	6676	584847.242616776725	2.589969829073
1	6728	590900.771680591495	344.53325452609
1	6737	591476.041516874878	766.1279165777
1	6759	592685.782507346277	0
1	6767	593836.732011045132	0
1	6794	597697.641457049603	0
1	6811	599348.118706158589	0
1	6828	601086.638885292656	0
1	6845	601976.12153611556	0
1	6854	603224.368757159713	0
1	6879	605714.93119354744	0
1	6891	606425.201317281734	176.34019207583
1	6899	607146.222299906346	189.9000789556
1	6913	607896.208429626731	0
1	6947	610746.124453084812	0
1	6955	611060.975989388794	30.962746075935
1	6963	611664.279417508928	340.77888890732
1	6991	612714.602633259672	352.6097057299
1	7021	614962.419508408931	0
1	7039	617148.835169657188	0
1	7047	617361.697310508507	0
1	7065	620838.697504267496	0
1	7074	621156.7230927979	0
1	7083	622822.931600601113	0
1	7106	625071.395317004299	472.57940055758
1	7125	625653.971574213272	9.972239152308
1	7141	626999.875879029815	457.02407033815
1	7177	632533.252604138293	0
1	7185	632687.52800952021	104.77388209635
1	7212	636039.870976631763	568.37618499755
1	7220	637202.710953085067	0
1	7228	637364.880652325877	0.86209331458
1	7246	638350.211511495317	462.83568127922
1	7251	638468.321091856727	178.996836086
1	7298	645368.892668038736	0
1	7307	647812.970117627986	0
1	7316	648522.282230493075	0
1	7325	649511.303942770092	0
1	7341	650065.992859222054	7.628588852827
1	7357	650783.777745608227	0
1	7374	652031.829830672256	0
1	7390	652380.916794541058	0
1	7432	654582.150455253658	0
1	7450	657251.065183703027	360.33935417586
1	7458	658061.778080846476	0
1	7469	658212.01916727847	67.146819288365
1	7484	660178.081633570347	0
1	7501	662102.92044826448	0
1	7510	663325.655173681112	723.60236782407
1	7518	663806.806522875131	0
1	7546	665704.059080124612	249.80213930813
1	7558	666767.206737664441	1101.6357691602
1	7573	667833.592409604459	462.771380309
1	7578	667991.238209866063	500.11501360063
1	7586	668254.180581198826	498.69759147764
1	7600	668803.124393718736	669.98101062101
1	7615	669682.573261312945	1013.6631153118
1	7623	669913.202463779448	1169.3395275847
1	7628	670042.162297632845	334.90698918887
1	7664	671412.295364111157	592.90934187831
1	7669	671499.904897254081	476.45819843496
1	7737	674456.625375604624	719.28772164384
1	7742	674689.913678870593	926.61859231237
1	7759	675133.754641633487	128.43424626902
1	7791	676764.708643527266	0
1	7799	677764.711950476215	0
1	7816	678982.28390455135	0
1	7833	680307.133212896574	0
1	7844	680718.620403673684	408.80344430073
1	7861	681614.778310770906	483.65091829773
1	7883	682626.43975242031	0
1	7916	685157.291337869047	0
1	7925	686357.311585682271	0
1	7934	687094.244489856925	682.29863748613
1	7942	687372.61563165828	0
1	7958	688447.797430287964	29.181195925361
1	8003	691442.889989048013	488.25825753751
1	8009	691682.148487434929	346.97866750327
1	8017	692098.182139655704	0
1	8042	693757.823421877644	31.72034040551
1	8050	693937.186957409571	0
1	8086	700309.894192928799	0
1	8096	702763.656404567188	0
1	8105	703954.092203840396	0
1	8130	706003.035720567401	0
1	8156	708708.378572975276	679.14454889311
1	8165	709811.802934564066	0
1	8173	710130.87314333627	0
1	8199	712846.993787015072	0
1	8216	715189.150626553197	0
1	8226	718068.529552586854	0
1	8238	718778.002052290136	398.63764333123
1	8260	721094.339872764992	0
1	8272	721590.339833915396	173.5469533724
1	8277	721729.84118136861	205.56172580321
1	8285	722092.729556461824	259.3362168741
1	8301	722361.43136133986	0
1	8327	724611.103271833259	0
1	8335	724915.9816667562	0
1	8343	725151.53693164275	0
1	8369	726645.109356833677	521.978059117
1	8428	733107.655261952712	0
1	8445	734750.592219707802	417.37832759867
1	8454	735209.52550981193	0
1	8463	737407.074228663125	0
1	8472	738136.299238917748	0
1	8480	738879.103574272436	0
1	8521	741481.257903136004	1896.2703842698
1	8526	741501.82517533702	816.21507555449
1	8534	741583.612075694051	705.14482851978
1	8539	741932.809077810972	920.19288048376
1	8544	742033.197762013206	856.03614473531
1	8555	742250.931548480582	97.971989940374
1	8570	742796.485005726757	521.94385092776
1	8578	742843.883722883838	275.52305528294
1	8583	743015.581258753939	194.94264953737
1	8639	746063.701418796804	103.7740506218
1	8647	746377.833201010012	95.571560227014
1	8703	749639.254762385547	414.76105463351
1	8711	749714.204104028812	0
1	8720	750093.990173481259	0
1	8728	751181.281126529158	0
1	8745	752371.628867370123	99.799520829607
1	8786	754263.838752976405	0
1	8804	757465.178823722336	0
1	8813	758445.130437250737	0
1	8829	758707.83953152193	0
1	8838	759436.781985554248	0
1	8864	763480.533641125321	0
1	8882	765464.817412716006	0
1	8906	766239.842057579541	0
1	8915	766971.1222324405	0
1	8940	768063.070015639664	103.06692389448
1	8948	768964.839706283281	0
1	8982	772213.417394675367	0
1	8991	773468.532372393342	0
1	9000	775088.138861524117	0
1	9026	777176.822171836393	802.00798658045
1	9034	778280.254236759561	0
1	9044	780058.244632191244	0
1	9052	780237.532836883442	0
1	9077	781541.481981832552	356.41732253422
1	9101	782529.704644399603	0
1	9118	783525.791126858847	29.362868547552
1	9143	785579.771240336499	0
1	9151	785693.967426268921	39.713653767188
1	9160	786001.541067022626	0
1	9202	789972.048426834252	0
1	9219	791190.149759394315	0
1	9234	792228.65865583808	349.38587426916
1	9239	792491.645711398763	450.95294942552
1	9244	792578.772262346976	362.90370743395
1	9252	793196.432780610899	0
1	9269	793834.796213027056	0
1	9277	794215.291911683239	0
1	9305	795359.445307163757	176.98013701005
1	9328	796777.941014374302	787.81412033227
1	9336	797410.138319636375	1290.722741285
1	9341	797463.25615496642	1005.2097012034
1	9411	804085.222817749662	2136.5149061261
1	9416	804232.323018797401	940.18305080123
1	9424	804377.623173889855	954.21810426411
1	9438	805321.881767565391	1762.4396469
1	9450	805722.51205590849	2101.8515592769
1	9458	805925.097659508246	2127.2385356604
1	9463	806010.062245626654	1667.6501327198
1	9468	806220.547695611853	1695.6064159301
1	9473	806267.663604557687	1201.2977331117
1	9478	806282.624896453779	480.14517166562
1	9536	810544.628649748211	0
1	9544	810685.193647222075	0
1	9602	814122.528772333042	647.48725945874
1	9610	814202.607225460469	0
1	9627	815479.084226227773	0
1	9645	818205.229334639381	0
1	9670	820171.095415926445	0
1	9692	828895.109975985509	0
1	9702	831814.177637586825	0
1	9710	832483.458578587123	0
1	9736	835308.686343517694	0
1	9745	835577.65380088009	188.63541311859
1	9754	837770.980269415641	0
1	9770	838403.089960131411	0
1	9788	840209.83679589738	0
1	9806	843617.524972546498	0
1	9815	844933.828048088402	0
1	9831	845598.161870603972	0
1	9858	848001.135128655312	1555.9615097545
1	9863	848999.596683655458	1661.3937226432
1	9883	849944.467225887482	136.50556087094
1	9916	852343.478814449125	0
1	9950	856032.554880674496	0
1	9959	857448.140049063862	0
1	9968	858496.275220415659	0
1	10001	860467.451828905054	0
1	10018	861723.912374814367	440.36553797929
1	10026	862071.164571334923	0
1	10043	862990.708152879058	0
1	10051	863772.147643740217	0
1	10068	864833.629340638798	0
1	10093	866552.178395706107	198.99151275946
1	10110	867431.538582557293	0
1	10127	868962.655925487051	0
1	10143	869889.520719402658	2.361313403368
1	10152	871018.539181858644	0
1	10161	871715.696019355808	629.82668734304
1	10169	871880.516627374494	0
1	10194	874166.089718728467	0
1	10214	875616.325081599149	288.74009174284
1	10234	876255.60400846608	99.125489526748
1	10239	876833.087182002359	620.97152434194
1	10253	877638.186492699811	0
1	10272	878246.473168088145	18.8874705758
1	10318	880047.432767075761	535.24478415209
1	10326	880234.584960480659	159.03624931016
1	10338	881078.854074124979	686.44786553801
1	10351	881719.875363284636	0
1	10360	882138.514496990962	246.46579976225
1	10380	883555.438636658496	119.18649590701
1	10385	883820.887051582821	268.31370390901
1	10418	885801.991518824902	0
1	10435	886811.36359433522	0
1	10453	890585.02835231763	0
1	10470	891508.615607383757	579.69105795546
1	10487	893880.27704291994	0
1	10522	897405.666224877068	0
1	10530	897508.020687703093	0
1	10547	899496.24371218024	0
1	10573	902180.120790987589	0
1	10582	903041.600552844173	0
1	10607	905091.19182183713	0
1	10617	907799.534181882196	0
1	10625	908161.757524291561	0
1	10633	908833.96036351586	461.66555467725
1	10670	911322.519011597894	755.29281341552
1	10675	911506.279467240867	658.45286692636
1	10693	913863.670425850632	0
1	10701	913975.745093573225	56.982608007113
1	10717	914863.213999241463	0
1	10737	916443.482893670605	583.74930636262
1	10768	918670.220730770474	0
1	10785	920269.68220038662	0
1	10812	925232.473410613122	0
1	10820	925443.165012054212	0
1	10829	926377.215784371427	0
1	10837	926900.406739101849	0
1	10846	927323.454758020785	126.55548867052
1	10880	930288.224345836499	0
1	10888	931414.190892479038	0
1	10922	933987.822931729036	0
1	10930	934365.126438181886	0
1	10964	936095.732886521645	13.278822906528
1	10972	937213.35624792756	0
1	10980	937414.989688819677	0
1	10992	938206.803292983556	423.93202964088
1	11000	938432.57596079348	213.48107867986
1	11020	939925.046349469706	726.27068353408
1	11039	941910.856660596981	0
1	11048	942737.887704704055	0
1	11066	943896.238501567051	840.73752824749
1	11074	944206.625759243213	281.54884774407
1	11106	945424.052008229825	0
1	11141	949824.646904573966	0
2	809	83128.714291578539	1
2	811	83128.714291578539	0
2	819	85618.002712670907	1
2	821	85618.002712670907	0
2	841	88279.145854833115	1
2	846	88465.788775082965	0
2	862	90228.336734826521	1
2	864	90228.336734826521	0
2	870	90763.837268553313	1
2	872	90763.837268553313	0
2	897	94965.080228473496	1
2	899	94965.080228473496	0
2	905	95403.720996151099	1
2	907	95403.720996151099	0
2	927	96172.388558480569	1
2	932	96212.244032261396	0
2	935	96284.27628218677	1
2	940	96457.363387858087	0
2	946	96828.258242113151	1
2	948	96828.258242113151	0
2	960	97688.486386168192	1
2	965	97978.014803915444	0
2	968	98259.671942029853	1
2	976	98346.337336376165	0
2	979	98378.283857197316	1
2	984	98635.65074386294	0
2	1030	102787.181264378834	1
2	1032	102787.181264378834	0
2	1048	105626.499792172634	1
2	1050	105626.499792172634	0
2	1058	109493.509218335065	1
2	1060	109493.509218335065	0
2	1075	109887.108847038084	1
2	1077	109887.108847038084	0
2	1092	111383.456107573694	1
2	1094	111383.456107573694	0
2	1109	113040.481068161655	1
2	1111	113040.481068161655	0
2	1126	114993.536475278004	1
2	1128	114993.536475278004	0
2	1131	115173.798263873677	1
2	1136	115182.84407593207	0
2	1142	115424.766424788162	1
2	1144	115424.766424788162	0
2	1151	115602.926378881076	1
2	1153	115602.926378881076	0
2	1181	117311.382415037689	1
2	1186	117711.885519989242	0
2	1201	119332.274597719321	1
2	1203	119332.274597719321	0
2	1210	120136.284848767632	1
2	1212	120136.284848767632	0
2	1252	123723.840227953395	1
2	1254	123723.840227953395	0
2	1261	125048.25951965915	1
2	1263	125048.25951965915	0
2	1270	126389.537900521613	1
2	1272	126389.537900521613	0
2	1275	126500.677721288404	1
2	1278	126829.28527618424	2
2	1281	126977.888224163723	3
2	1290	128141.190204680013	2
2	1298	128254.413968138559	1
2	1303	128372.394773373721	0
2	1346	132865.086318913363	1
2	1348	132865.086318913363	0
2	1355	134649.449099590947	1
2	1357	134649.449099590947	0
2	1372	135953.554950182351	1
2	1374	135953.554950182351	0
2	1406	138922.443255039254	1
2	1408	138922.443255039254	0
2	1415	139914.157110716619	1
2	1417	139914.157110716619	0
2	1442	144575.449405747285	1
2	1444	144575.449405747285	0
2	1451	146827.060567827967	1
2	1453	146827.060567827967	0
2	1469	149146.404878455348	1
2	1471	149146.404878455348	0
2	1474	149263.955657785691	1
2	1477	149524.486606977274	2
2	1483	151156.204199409437	1
2	1489	152204.883470159993	0
2	1495	152523.593086889003	1
2	1497	152523.593086889003	0
2	1520	153725.387472320203	1
2	1525	154017.233562294763	0
2	1537	155081.424877718391	1
2	1540	155561.629884568792	2
2	1543	155711.259468790299	3
2	1552	156013.200177946981	2
2	1560	156193.334284938935	1
2	1565	156769.387649226028	0
2	1568	157357.509571101708	1
2	1574	157426.25319663674	2
2	1580	157707.906258776432	1
2	1585	158066.872610990161	0
2	1596	158648.038304813425	1
2	1602	159055.773186638489	0
2	1610	160176.118202345487	1
2	1616	160546.111422321038	0
2	1654	162549.105742321727	1
2	1659	162569.328920875367	0
2	1685	165509.752317785165	1
2	1690	165554.874094880673	0
2	1693	165711.837519781507	1
2	1696	165819.663740026841	2
2	1701	165841.363336306436	1
2	1706	165974.43676059256	0
2	1721	167871.652257012812	1
2	1723	167871.652257012812	0
2	1730	168679.557213717069	1
2	1732	168679.557213717069	0
2	1735	169468.75554186499	1
2	1740	169478.03909169343	0
2	1780	171722.528054409836	1
2	1782	171722.528054409836	0
2	1785	171829.867322578882	1
2	1790	172401.531343112969	0
2	1824	177011.982308209248	1
2	1826	177011.982308209248	0
2	1829	177308.069015639682	1
2	1832	177438.563552515561	2
2	1837	177522.346824370841	1
2	1842	177836.096006569763	0
2	1857	179315.943356990892	1
2	1862	179557.872914876043	0
2	1891	182871.867354696353	1
2	1893	182871.867354696353	0
2	1900	183171.340025903098	1
2	1902	183171.340025903098	0
2	1905	183206.223840549638	1
2	1910	183843.165573034212	0
2	1925	185301.161223627256	1
2	1927	185301.161223627256	0
2	1930	185337.284947950225	1
2	1935	185434.725883017952	0
2	1968	189420.379570850188	1
2	1970	189420.379570850188	0
2	1986	192591.770971622352	1
2	1988	192591.770971622352	0
2	1995	194373.509142943787	1
2	1997	194373.509142943787	0
2	2013	197348.631447517703	1
2	2015	197348.631447517703	0
2	2043	198432.020877518514	1
2	2048	198705.712627179911	0
2	2062	199460.010919622854	1
2	2064	199460.010919622854	0
2	2071	199616.45082821702	1
2	2073	199616.45082821702	0
2	2087	200913.569112638132	1
2	2089	200913.569112638132	0
2	2096	201391.559269835545	1
2	2098	201391.559269835545	0
2	2122	205018.607158309842	1
2	2124	205018.607158309842	0
2	2131	205605.944080260094	1
2	2133	205605.944080260094	0
2	2139	206004.838064282697	1
2	2141	206004.838064282697	0
2	2144	206153.126810371321	1
2	2152	206367.38826935816	0
2	2198	211416.083183348391	1
2	2200	211416.083183348391	0
2	2203	211492.281565418002	1
2	2207	211677.163549833464	2
2	2212	212487.177502883716	1
2	2217	212653.029732587126	0
2	2241	215349.669887160903	1
2	2243	215349.669887160903	0
2	2276	219678.972038473759	1
2	2278	219678.972038473759	0
2	2284	220346.194296113411	1
2	2286	220346.194296113411	0
2	2311	224275.32236079076	1
2	2313	224275.32236079076	0
2	2319	224588.359674756388	1
2	2321	224588.359674756388	0
2	2328	225511.010922503095	1
2	2330	225511.010922503095	0
2	2353	227196.179934377946	1
2	2355	227196.179934377946	0
2	2379	229995.310228105062	1
2	2381	229995.310228105062	0
2	2397	233353.760139211237	1
2	2399	233353.760139211237	0
2	2412	236962.038329796381	1
2	2418	237516.902336253618	0
2	2437	245619.143224330767	1
2	2439	245619.143224330767	0
2	2456	249575.605346937092	1
2	2458	249575.605346937092	0
2	2464	250338.425453431857	1
2	2466	250338.425453431857	0
2	2481	251255.568315589411	1
2	2483	251255.568315589411	0
2	2499	254386.172102573483	1
2	2501	254386.172102573483	0
2	2521	255942.911377190595	1
2	2526	255984.695198203506	0
2	2533	256995.073912211522	1
2	2535	256995.073912211522	0
2	2542	258918.610626236338	1
2	2544	258918.610626236338	0
2	2550	259065.930918029405	1
2	2552	259065.930918029405	0
2	2555	259320.070232649695	1
2	2561	259753.1251520494	0
2	2567	260560.19459507239	1
2	2569	260560.19459507239	0
2	2617	262551.300410871227	1
2	2619	262551.300410871227	0
2	2622	262869.538428888993	1
2	2627	263034.656294175976	0
2	2634	264447.117076785302	1
2	2639	264604.833671061959	0
2	2647	264910.112682336973	1
2	2652	265070.034383577777	0
2	2655	265158.284089024284	1
2	2661	265183.678642178314	2
2	2666	265224.832204266723	1
2	2671	265317.53691031553	0
2	2699	266742.405760870593	1
2	2701	266742.405760870593	0
2	2743	272517.591329132183	1
2	2745	272517.591329132183	0
2	2752	273922.109278843766	1
2	2754	273922.109278843766	0
2	2778	276432.24991274682	1
2	2780	276432.24991274682	0
2	2786	277125.659282999563	1
2	2788	277125.659282999563	0
2	2794	277449.172913400817	1
2	2796	277449.172913400817	0
2	2803	277928.545385269977	1
2	2805	277928.545385269977	0
2	2845	281330.835985468237	1
2	2847	281330.835985468237	0
2	2854	282495.463878552446	1
2	2856	282495.463878552446	0
2	2872	285146.627553089963	1
2	2874	285146.627553089963	0
2	2882	288650.557413318565	1
2	2884	288650.557413318565	0
2	2887	288745.588745215608	1
2	2890	288941.729198254433	2
2	2895	288964.621847111437	1
2	2900	289250.542151325403	0
2	2921	292081.155462798659	1
2	2924	292336.599062379228	2
2	2933	292806.724730049493	1
2	2938	292832.873990910169	0
2	2944	292990.66139902525	1
2	2952	293608.766826556804	0
2	2955	293648.753960350808	1
2	2959	294360.740963941049	2
2	2962	294692.294233482923	3
2	2965	295131.109143074804	4
2	2970	295246.36652435285	3
2	2975	295283.913668190002	2
2	2983	295443.453707495971	1
2	2992	296089.392019279043	0
2	3008	296700.5305660961	1
2	3013	296706.825292003862	0
2	3040	298248.583259963176	1
2	3049	298517.073674961978	0
2	3052	298549.809090973967	1
2	3057	298555.688557426056	0
2	3081	299533.280093850647	1
2	3083	299533.280093850647	0
2	3086	299771.984281323184	1
2	3092	300134.637497978284	0
2	3122	301261.939800716399	1
2	3124	301261.939800716399	0
2	3148	303101.791081774444	1
2	3150	303101.791081774444	0
2	3173	305105.220627453351	1
2	3175	305105.220627453351	0
2	3182	306851.247238809982	1
2	3184	306851.247238809982	0
2	3187	307021.830669257705	1
2	3196	307649.555181248947	0
2	3204	307875.218638092506	1
2	3210	307976.969516944749	2
2	3215	307979.890063830496	1
2	3220	308006.962436615991	0
2	3240	309267.462908849708	1
2	3242	309267.462908849708	0
2	3248	310152.791836900746	1
2	3250	310152.791836900746	0
2	3257	310880.964724896522	1
2	3259	310880.964724896522	0
2	3270	311490.752611242072	1
2	3275	311520.776904840688	0
2	3278	311548.020640973672	1
2	3290	312394.499046094471	0
2	3293	312686.966823160093	1
2	3298	312801.240476201961	0
2	3336	313944.627666125161	1
2	3344	314071.300889628079	0
2	3347	314178.819769781487	1
2	3352	314220.592367330288	0
2	3369	315094.803419031315	1
2	3374	315121.539447087436	0
2	3406	319240.510743308557	1
2	3408	319240.510743308557	0
2	3432	322336.726477965393	1
2	3434	322336.726477965393	0
2	3452	327432.479146414251	1
2	3454	327432.479146414251	0
2	3457	327666.410433316367	1
2	3462	327707.081360474054	0
2	3473	328053.836946853833	1
2	3482	328977.05686977783	0
2	3485	329387.484641843664	1
2	3490	329429.484413411083	0
2	3510	330868.320548298661	1
2	3512	330868.320548298661	0
2	3518	331072.045284145323	1
2	3520	331072.045284145323	0
2	3552	334307.774433315221	1
2	3554	334307.774433315221	0
2	3562	336735.187221122056	1
2	3564	336735.187221122056	0
2	3570	337399.706174716925	1
2	3572	337399.706174716925	0
2	3579	338656.591008020895	1
2	3581	338656.591008020895	0
2	3588	339411.529878681108	1
2	3590	339411.529878681108	0
2	3612	340042.692578423669	1
2	3614	340042.692578423669	0
2	3629	340905.393678645506	1
2	3631	340905.393678645506	0
2	3662	343338.164929491364	1
2	3664	343338.164929491364	0
2	3676	344073.984419446725	1
2	3681	344279.675648664483	0
2	3696	346173.568895280247	1
2	3698	346173.568895280247	0
2	3721	347939.589159549159	1
2	3723	347939.589159549159	0
2	3730	348382.834456655866	1
2	3732	348382.834456655866	0
2	3735	348383.484497429325	1
2	3740	348516.28929044683	0
2	3764	351221.665008464868	1
2	3766	351221.665008464868	0
2	3772	352227.549392392643	1
2	3774	352227.549392392643	0
2	3792	357353.603929351811	1
2	3794	357353.603929351811	0
2	3800	358204.97664217934	1
2	3802	358204.97664217934	0
2	3826	361268.176976011499	1
2	3828	361268.176976011499	0
2	3860	363578.30999299566	1
2	3862	363578.30999299566	0
2	3869	365232.694916205427	1
2	3871	365232.694916205427	0
2	3887	367966.63452265944	1
2	3889	367966.63452265944	0
2	3895	368003.50295142326	1
2	3897	368003.50295142326	0
2	3903	368969.815401858089	1
2	3905	368969.815401858089	0
2	3912	369643.629202601957	1
2	3914	369643.629202601957	0
2	3920	370208.364541431921	1
2	3922	370208.364541431921	0
2	3959	373391.019473006303	1
2	3964	373430.481448567506	0
2	3979	374753.15179517174	1
2	3981	374753.15179517174	0
2	4005	376719.443270271018	1
2	4007	376719.443270271018	0
2	4013	376928.753111916975	1
2	4015	376928.753111916975	0
2	4018	377024.432730853392	1
2	4021	377103.346379680491	2
2	4026	377222.887772220386	1
2	4034	377484.795798303666	0
2	4042	377818.582014338097	1
2	4047	377819.217574104254	0
2	4062	378315.526740234603	1
2	4064	378315.526740234603	0
2	4071	380009.767887885296	1
2	4073	380009.767887885296	0
2	4087	380307.201987703525	1
2	4089	380307.201987703525	0
2	4100	380610.222729552689	1
2	4105	380776.421367160225	0
2	4112	381191.520627049981	1
2	4114	381191.520627049981	0
2	4161	383437.573937133946	1
2	4166	383448.588660174374	0
2	4186	385443.816273695744	1
2	4188	385443.816273695744	0
2	4200	386729.868703479206	1
2	4205	386740.064236533905	0
2	4220	388154.43463987345	1
2	4222	388154.43463987345	0
2	4229	389000.373883034352	1
2	4231	389000.373883034352	0
2	4237	389108.539151278526	1
2	4239	389108.539151278526	0
2	4246	390185.900957665484	1
2	4248	390185.900957665484	0
2	4254	390748.747803602938	1
2	4256	390748.747803602938	0
2	4267	391159.698953065177	1
2	4272	391284.032081402982	0
2	4279	391909.812143289248	1
2	4281	391909.812143289248	0
2	4295	392863.825231264992	1
2	4304	393374.107338736726	0
2	4324	394689.790207754001	1
2	4329	395223.420902539599	0
2	4379	398442.728236734945	1
2	4381	398442.728236734945	0
2	4388	399293.93502128987	1
2	4390	399293.93502128987	0
2	4393	399304.442774705476	1
2	4399	399653.816403818599	2
2	4404	399847.285853983079	1
2	4409	400325.793774356438	0
2	4413	400952.158700628594	1
2	4418	401116.564396539143	0
2	4435	402272.57218623165	1
2	4441	403027.753867111222	2
2	4446	403242.014582470528	1
2	4452	404366.86996731253	0
2	4486	407043.544355407411	1
2	4491	407134.643402102684	0
2	4498	408321.004331273958	1
2	4500	408321.004331273958	0
2	4514	409146.395393192289	1
2	4516	409146.395393192289	0
2	4531	409840.005212337125	1
2	4533	409840.005212337125	0
2	4565	413083.067962457901	1
2	4567	413083.067962457901	0
2	4580	416704.111633216029	1
2	4585	416870.894008053603	0
2	4589	417564.095422567258	1
2	4594	417820.665885125739	0
2	4601	419130.653084622808	1
2	4603	419130.653084622808	0
2	4626	421241.400530217869	1
2	4628	421241.400530217869	0
2	4635	421874.947909069194	1
2	4637	421874.947909069194	0
2	4667	426916.572392343142	1
2	4672	427054.657995073028	0
2	4679	428215.892167168138	1
2	4681	428215.892167168138	0
2	4688	429338.590791055353	1
2	4690	429338.590791055353	0
2	4697	430593.21676646366	1
2	4699	430593.21676646366	0
2	4705	431838.211424410905	1
2	4707	431838.211424410905	0
2	4755	434372.375675555047	1
2	4757	434372.375675555047	0
2	4760	434542.043860819287	1
2	4766	435051.793983866664	0
2	4789	437309.5944393268	1
2	4791	437309.5944393268	0
2	4797	437591.841099991091	1
2	4799	437591.841099991091	0
2	4819	439270.675261921403	1
2	4824	439351.652546271173	0
2	4831	439669.802714185169	1
2	4833	439669.802714185169	0
2	4853	441668.847046214643	1
2	4858	441691.18165729543	0
2	4865	443931.650256628739	1
2	4867	443931.650256628739	0
2	4882	444774.911461186732	1
2	4884	444774.911461186732	0
2	4890	445006.638469909125	1
2	4892	445006.638469909125	0
2	4922	448904.555157057424	1
2	4927	449008.638294135528	0
2	4936	453814.445601892946	1
2	4938	453814.445601892946	0
2	4953	454504.767858392088	1
2	4955	454504.767858392088	0
2	4970	456901.875577900924	1
2	4972	456901.875577900924	0
2	4997	460541.653203214441	1
2	4999	460541.653203214441	0
2	5014	463368.195101900913	1
2	5016	463368.195101900913	0
2	5032	465602.701937875948	1
2	5034	465602.701937875948	0
2	5046	467749.595069286889	1
2	5051	467792.0281898039	0
2	5058	468339.653224611174	1
2	5060	468339.653224611174	0
2	5066	468784.940948538508	1
2	5068	468784.940948538508	0
2	5074	469029.093911307316	1
2	5076	469029.093911307316	0
2	5091	469715.345317693892	1
2	5093	469715.345317693892	0
2	5116	472289.930205078039	1
2	5122	472466.318535977143	2
2	5128	472518.432551348554	1
2	5133	472812.872856937636	0
2	5146	473062.281030657459	1
2	5151	473095.739551198933	0
2	5157	473266.509907525442	1
2	5159	473266.509907525442	0
2	5165	473511.391194714392	1
2	5167	473511.391194714392	0
2	5182	474667.790750011484	1
2	5184	474667.790750011484	0
2	5215	476395.903425634263	1
2	5221	476807.467526279819	2
2	5224	476815.209666500222	3
2	5230	477069.234451981059	2
2	5235	477086.324423404242	1
2	5238	477223.862091156836	2
2	5243	477246.223401280228	1
2	5248	477274.08310090693	0
2	5251	478076.425971005155	1
2	5260	478684.149458732039	0
2	5268	478990.666975426798	1
2	5274	480119.864148166207	0
2	5282	480616.80255157408	1
2	5287	480689.9664395236	0
2	5316	483406.422292922986	1
2	5321	483469.278069064039	0
2	5332	483926.757316394476	1
2	5334	483926.757316394476	0
2	5337	484260.855356703218	1
2	5343	484505.926778463318	0
2	5362	485487.908757610924	1
2	5370	485593.307882420461	0
2	5415	488807.596371745077	1
2	5417	488807.596371745077	0
2	5424	489834.162142684042	1
2	5426	489834.162142684042	0
2	5433	490539.09120533136	1
2	5435	490539.09120533136	0
2	5438	491102.915535613458	1
2	5443	491892.606793025863	0
2	5466	493424.624197603638	1
2	5470	494619.718766184929	2
2	5475	494959.315343266785	1
2	5480	494960.09338747763	0
2	5484	495312.508136470722	1
2	5489	495920.482160402393	0
2	5492	495921.663618242366	1
2	5497	496078.621534417337	0
2	5517	496620.451227401943	1
2	5522	496822.765140357797	0
2	5541	497754.943629171096	1
2	5543	497754.943629171096	0
2	5546	497760.09101474385	1
2	5549	497790.660964585966	2
2	5555	498046.830291541157	1
2	5561	498434.43369651802	2
2	5569	498921.786178608806	1
2	5574	499025.383723752352	0
2	5604	500672.443210545446	1
2	5609	500806.831808071995	0
2	5616	501071.857929799992	1
2	5618	501071.857929799992	0
2	5667	506229.363836203458	1
2	5669	506229.363836203458	0
2	5677	509257.576951516498	1
2	5679	509257.576951516498	0
2	5685	509906.994517763166	1
2	5687	509906.994517763166	0
2	5703	512137.02576626026	1
2	5705	512137.02576626026	0
2	5708	512294.034549134547	1
2	5711	512333.300288350572	2
2	5716	512801.226102647025	1
2	5721	512852.501701918294	0
2	5736	513651.654422008823	1
2	5741	514169.556768813781	0
2	5769	515750.281898117104	1
2	5771	515750.281898117104	0
2	5795	518789.014121808401	1
2	5797	518789.014121808401	0
2	5801	519008.203114355857	1
2	5806	519313.99937286459	0
2	5830	523110.922186551057	1
2	5832	523110.922186551057	0
2	5839	524076.970739352722	1
2	5841	524076.970739352722	0
2	5864	525867.800728155432	1
2	5866	525867.800728155432	0
2	5869	526015.798403999113	1
2	5878	526609.050222561079	0
2	5889	527261.817041684114	1
2	5891	527261.817041684114	0
2	5915	530183.783345648498	1
2	5917	530183.783345648498	0
2	5923	530597.320601939495	1
2	5925	530597.320601939495	0
2	5945	532051.147832812129	1
2	5950	532162.591212985249	0
2	5954	532724.815416385118	1
2	5959	533116.589754599205	0
2	5962	533207.4909333357	1
2	5965	533240.328214293701	2
2	5971	533424.41512609879	3
2	5976	533743.472002249087	2
2	5981	533772.46921647575	1
2	5986	533944.338349446107	0
2	6028	536754.479579668399	1
2	6034	537646.689084596699	0
2	6041	538735.280531194458	1
2	6043	538735.280531194458	0
2	6046	538773.814291318481	1
2	6051	538951.460357428841	0
2	6066	540417.385237868698	1
2	6068	540417.385237868698	0
2	6079	541376.041750433632	1
2	6084	541379.973570035327	0
2	6105	542604.120093793613	1
2	6110	542624.767329969213	0
2	6133	545102.797831010678	1
2	6135	545102.797831010678	0
2	6141	545563.347692899297	1
2	6143	545563.347692899297	0
2	6150	546293.298956037988	1
2	6152	546293.298956037988	0
2	6166	547211.263588923297	1
2	6168	547211.263588923297	0
2	6175	548129.588100137603	1
2	6177	548129.588100137603	0
2	6183	548924.242704998441	1
2	6185	548924.242704998441	0
2	6225	550758.939310879586	1
2	6227	550758.939310879586	0
2	6251	553846.070719606224	1
2	6253	553846.070719606224	0
2	6264	554607.849602543717	1
2	6269	554667.041363970881	0
2	6272	554718.326162387751	1
2	6277	554846.041774309956	0
2	6284	555226.941610446286	1
2	6286	555226.941610446286	0
2	6317	557735.830723279715	1
2	6319	557735.830723279715	0
2	6323	558556.575545865799	1
2	6328	558844.468825702258	0
2	6351	559666.96144476797	1
2	6353	559666.96144476797	0
2	6377	563901.934657271487	1
2	6379	563901.934657271487	0
2	6386	565465.441913884189	1
2	6388	565465.441913884189	0
2	6403	565874.542903699966	1
2	6405	565874.542903699966	0
2	6421	568907.222600588487	1
2	6423	568907.222600588487	0
2	6437	569973.795881436738	1
2	6439	569973.795881436738	0
2	6446	570775.756647088187	1
2	6448	570775.756647088187	0
2	6454	570829.414497621994	1
2	6456	570829.414497621994	0
2	6479	572333.874970579157	1
2	6481	572333.874970579157	0
2	6512	573828.823842799464	1
2	6514	573828.823842799464	0
2	6520	574392.083572024086	1
2	6522	574392.083572024086	0
2	6529	574524.022935214993	1
2	6531	574524.022935214993	0
2	6537	574955.575922415415	1
2	6539	574955.575922415415	0
2	6567	576665.27847859037	1
2	6572	576723.550032865963	0
2	6596	580286.250177336449	1
2	6598	580286.250177336449	0
2	6602	580569.433393937603	1
2	6605	580607.300546118685	2
2	6608	580610.130355614456	3
2	6611	581100.439926271167	4
2	6616	581498.844957044044	3
2	6621	581794.605359389736	2
2	6624	581984.213037524407	3
2	6633	582490.316527426146	2
2	6636	582934.148506600076	3
2	6644	583499.867140932096	2
2	6650	583688.061564948482	1
2	6655	583704.956471995442	0
2	6671	584844.652646947652	1
2	6676	584847.242616776725	0
2	6720	590556.238426065404	1
2	6723	590709.913600297175	2
2	6728	590900.771680591495	1
2	6737	591476.041516874878	0
2	6757	592685.782507346277	1
2	6759	592685.782507346277	0
2	6765	593836.732011045132	1
2	6767	593836.732011045132	0
2	6792	597697.641457049603	1
2	6794	597697.641457049603	0
2	6809	599348.118706158589	1
2	6811	599348.118706158589	0
2	6826	601086.638885292656	1
2	6828	601086.638885292656	0
2	6843	601976.12153611556	1
2	6845	601976.12153611556	0
2	6852	603224.368757159713	1
2	6854	603224.368757159713	0
2	6877	605714.93119354744	1
2	6879	605714.93119354744	0
2	6886	606248.861125205908	1
2	6891	606425.201317281734	0
2	6894	606956.322220950748	1
2	6899	607146.222299906346	0
2	6911	607896.208429626731	1
2	6913	607896.208429626731	0
2	6945	610746.124453084812	1
2	6947	610746.124453084812	0
2	6950	611030.013243312859	1
2	6955	611060.975989388794	0
2	6958	611323.500528601611	1
2	6963	611664.279417508928	0
2	6983	612361.992927529773	1
2	6991	612714.602633259672	0
2	7019	614962.419508408931	1
2	7021	614962.419508408931	0
2	7037	617148.835169657188	1
2	7039	617148.835169657188	0
2	7045	617361.697310508507	1
2	7047	617361.697310508507	0
2	7063	620838.697504267496	1
2	7065	620838.697504267496	0
2	7072	621156.7230927979	1
2	7074	621156.7230927979	0
2	7081	622822.931600601113	1
2	7083	622822.931600601113	0
2	7101	624598.815916446717	1
2	7106	625071.395317004299	0
2	7120	625643.999335060964	1
2	7125	625653.971574213272	0
2	7136	626542.851808691667	1
2	7141	626999.875879029815	0
2	7175	632533.252604138293	1
2	7177	632533.252604138293	0
2	7180	632582.754127423863	1
2	7185	632687.52800952021	0
2	7206	635471.494791634212	1
2	7212	636039.870976631763	0
2	7218	637202.710953085067	1
2	7220	637202.710953085067	0
2	7223	637364.018559011297	1
2	7228	637364.880652325877	0
2	7235	637887.375830216102	1
2	7241	638289.324255770726	2
2	7246	638350.211511495317	1
2	7251	638468.321091856727	0
2	7296	645368.892668038736	1
2	7298	645368.892668038736	0
2	7305	647812.970117627986	1
2	7307	647812.970117627986	0
2	7314	648522.282230493075	1
2	7316	648522.282230493075	0
2	7323	649511.303942770092	1
2	7325	649511.303942770092	0
2	7336	650058.364270369227	1
2	7341	650065.992859222054	0
2	7355	650783.777745608227	1
2	7357	650783.777745608227	0
2	7372	652031.829830672256	1
2	7374	652031.829830672256	0
2	7388	652380.916794541058	1
2	7390	652380.916794541058	0
2	7430	654582.150455253658	1
2	7432	654582.150455253658	0
2	7444	656890.725829527164	1
2	7450	657251.065183703027	0
2	7456	658061.778080846476	1
2	7458	658061.778080846476	0
2	7464	658144.872347990105	1
2	7469	658212.01916727847	0
2	7482	660178.081633570347	1
2	7484	660178.081633570347	0
2	7499	662102.92044826448	1
2	7501	662102.92044826448	0
2	7504	662602.052805857042	1
2	7510	663325.655173681112	0
2	7516	663806.806522875131	1
2	7518	663806.806522875131	0
2	7538	665454.256940816482	1
2	7541	665665.570968504202	2
2	7546	665704.059080124612	1
2	7558	666767.206737664441	0
2	7561	667370.821029295458	1
2	7564	667491.123196265436	2
2	7568	667755.482989721187	3
2	7573	667833.592409604459	2
2	7578	667991.238209866063	1
2	7581	668133.14338309773	2
2	7586	668254.180581198826	1
2	7592	668668.910146001171	2
2	7595	668743.862936194768	3
2	7600	668803.124393718736	2
2	7615	669682.573261312945	1
2	7618	669707.255308443973	2
2	7623	669913.202463779448	1
2	7628	670042.162297632845	0
2	7650	670819.386022232846	1
2	7659	671023.446698819118	2
2	7664	671412.295364111157	1
2	7669	671499.904897254081	0
2	7729	673737.337653960786	1
2	7732	673763.295086558223	2
2	7737	674456.625375604624	1
2	7742	674689.913678870593	0
2	7754	675005.320395364472	1
2	7759	675133.754641633487	0
2	7789	676764.708643527266	1
2	7791	676764.708643527266	0
2	7797	677764.711950476215	1
2	7799	677764.711950476215	0
2	7814	678982.28390455135	1
2	7816	678982.28390455135	0
2	7831	680307.133212896574	1
2	7833	680307.133212896574	0
2	7836	680309.816959372953	1
2	7844	680718.620403673684	0
2	7853	681131.127392473178	1
2	7861	681614.778310770906	0
2	7881	682626.43975242031	1
2	7883	682626.43975242031	0
2	7914	685157.291337869047	1
2	7916	685157.291337869047	0
2	7923	686357.311585682271	1
2	7925	686357.311585682271	0
2	7928	686411.945852370798	1
2	7934	687094.244489856925	0
2	7940	687372.61563165828	1
2	7942	687372.61563165828	0
2	7953	688418.616234362603	1
2	7958	688447.797430287964	0
2	7995	690954.631731510507	1
2	7998	691335.169819931663	2
2	8003	691442.889989048013	1
2	8009	691682.148487434929	0
2	8015	692098.182139655704	1
2	8017	692098.182139655704	0
2	8037	693726.103081472134	1
2	8042	693757.823421877644	0
2	8048	693937.186957409571	1
2	8050	693937.186957409571	0
2	8084	700309.894192928799	1
2	8086	700309.894192928799	0
2	8094	702763.656404567188	1
2	8096	702763.656404567188	0
2	8103	703954.092203840396	1
2	8105	703954.092203840396	0
2	8128	706003.035720567401	1
2	8130	706003.035720567401	0
2	8151	708029.234024082171	1
2	8156	708708.378572975276	0
2	8163	709811.802934564066	1
2	8165	709811.802934564066	0
2	8171	710130.87314333627	1
2	8173	710130.87314333627	0
2	8197	712846.993787015072	1
2	8199	712846.993787015072	0
2	8214	715189.150626553197	1
2	8216	715189.150626553197	0
2	8224	718068.529552586854	1
2	8226	718068.529552586854	0
2	8232	718379.364408958903	1
2	8238	718778.002052290136	0
2	8258	721094.339872764992	1
2	8260	721094.339872764992	0
2	8263	721416.792880542991	1
2	8267	721524.279455565395	2
2	8272	721590.339833915396	1
2	8277	721729.84118136861	0
2	8280	721833.393339587719	1
2	8285	722092.729556461824	0
2	8299	722361.43136133986	1
2	8301	722361.43136133986	0
2	8325	724611.103271833259	1
2	8327	724611.103271833259	0
2	8333	724915.9816667562	1
2	8335	724915.9816667562	0
2	8341	725151.53693164275	1
2	8343	725151.53693164275	0
2	8361	726123.131297716678	1
2	8369	726645.109356833677	0
2	8426	733107.655261952712	1
2	8428	733107.655261952712	0
2	8440	734333.213892109132	1
2	8445	734750.592219707802	0
2	8452	735209.52550981193	1
2	8454	735209.52550981193	0
2	8461	737407.074228663125	1
2	8463	737407.074228663125	0
2	8470	738136.299238917748	1
2	8472	738136.299238917748	0
2	8478	738879.103574272436	1
2	8480	738879.103574272436	0
2	8500	739584.987518866189	1
2	8503	740685.610099782528	2
2	8506	740878.467247174273	3
2	8510	741012.616197327213	4
2	8516	741177.161617277895	5
2	8521	741481.257903136004	4
2	8526	741501.82517533702	3
2	8534	741583.612075694051	2
2	8539	741932.809077810972	1
2	8544	742033.197762013206	0
2	8550	742152.959558540208	1
2	8555	742250.931548480582	0
2	8558	742274.541154798994	1
2	8562	742568.360667600901	2
2	8570	742796.485005726757	1
2	8573	742820.638609216573	2
2	8578	742843.883722883838	1
2	8583	743015.581258753939	0
2	8634	745959.927368175008	1
2	8639	746063.701418796804	0
2	8642	746282.261640782998	1
2	8647	746377.833201010012	0
2	8698	749224.493707752033	1
2	8703	749639.254762385547	0
2	8709	749714.204104028812	1
2	8711	749714.204104028812	0
2	8718	750093.990173481259	1
2	8720	750093.990173481259	0
2	8726	751181.281126529158	1
2	8728	751181.281126529158	0
2	8740	752271.829346540516	1
2	8745	752371.628867370123	0
2	8784	754263.838752976405	1
2	8786	754263.838752976405	0
2	8802	757465.178823722336	1
2	8804	757465.178823722336	0
2	8811	758445.130437250737	1
2	8813	758445.130437250737	0
2	8827	758707.83953152193	1
2	8829	758707.83953152193	0
2	8836	759436.781985554248	1
2	8838	759436.781985554248	0
2	8862	763480.533641125321	1
2	8864	763480.533641125321	0
2	8880	765464.817412716006	1
2	8882	765464.817412716006	0
2	8904	766239.842057579541	1
2	8906	766239.842057579541	0
2	8913	766971.1222324405	1
2	8915	766971.1222324405	0
2	8934	767960.003091745185	1
2	8940	768063.070015639664	0
2	8946	768964.839706283281	1
2	8948	768964.839706283281	0
2	8980	772213.417394675367	1
2	8982	772213.417394675367	0
2	8989	773468.532372393342	1
2	8991	773468.532372393342	0
2	8998	775088.138861524117	1
2	9000	775088.138861524117	0
2	9020	776374.814185255941	1
2	9026	777176.822171836393	0
2	9032	778280.254236759561	1
2	9034	778280.254236759561	0
2	9042	780058.244632191244	1
2	9044	780058.244632191244	0
2	9050	780237.532836883442	1
2	9052	780237.532836883442	0
2	9071	781185.064659298336	1
2	9077	781541.481981832552	0
2	9099	782529.704644399603	1
2	9101	782529.704644399603	0
2	9113	783496.428258311295	1
2	9118	783525.791126858847	0
2	9141	785579.771240336499	1
2	9143	785579.771240336499	0
2	9146	785654.253772501733	1
2	9151	785693.967426268921	0
2	9158	786001.541067022626	1
2	9160	786001.541067022626	0
2	9200	789972.048426834252	1
2	9202	789972.048426834252	0
2	9217	791190.149759394315	1
2	9219	791190.149759394315	0
2	9222	791879.272781568918	1
2	9226	792040.692761973242	2
2	9229	792215.868554913029	3
2	9234	792228.65865583808	2
2	9239	792491.645711398763	1
2	9244	792578.772262346976	0
2	9250	793196.432780610899	1
2	9252	793196.432780610899	0
2	9267	793834.796213027056	1
2	9269	793834.796213027056	0
2	9275	794215.291911683239	1
2	9277	794215.291911683239	0
2	9300	795182.465170153711	1
2	9305	795359.445307163757	0
2	9316	795990.126894042029	1
2	9319	796119.415578351413	2
2	9322	796458.046453763068	3
2	9328	796777.941014374302	2
2	9336	797410.138319636375	1
2	9341	797463.25615496642	0
2	9389	801948.707911623584	1
2	9393	803292.13996799617	2
2	9396	803423.405069625748	3
2	9399	803559.442120665423	4
2	9402	803620.660496631566	5
2	9405	803797.859123847798	6
2	9411	804085.222817749662	5
2	9416	804232.323018797401	4
2	9419	804342.412112906902	5
2	9424	804377.623173889855	4
2	9430	804524.941279681734	5
2	9433	805066.365871446026	6
2	9438	805321.881767565391	5
2	9450	805722.51205590849	4
2	9453	805802.479724788157	5
2	9458	805925.097659508246	4
2	9463	806010.062245626654	3
2	9468	806220.547695611853	2
2	9473	806267.663604557687	1
2	9478	806282.624896453779	0
2	9534	810544.628649748211	1
2	9536	810544.628649748211	0
2	9542	810685.193647222075	1
2	9544	810685.193647222075	0
2	9597	813475.0415128743	1
2	9602	814122.528772333042	0
2	9608	814202.607225460469	1
2	9610	814202.607225460469	0
2	9625	815479.084226227773	1
2	9627	815479.084226227773	0
2	9643	818205.229334639381	1
2	9645	818205.229334639381	0
2	9668	820171.095415926445	1
2	9670	820171.095415926445	0
2	9690	828895.109975985509	1
2	9692	828895.109975985509	0
2	9700	831814.177637586825	1
2	9702	831814.177637586825	0
2	9708	832483.458578587123	1
2	9710	832483.458578587123	0
2	9734	835308.686343517694	1
2	9736	835308.686343517694	0
2	9739	835389.018387761497	1
2	9745	835577.65380088009	0
2	9752	837770.980269415641	1
2	9754	837770.980269415641	0
2	9768	838403.089960131411	1
2	9770	838403.089960131411	0
2	9786	840209.83679589738	1
2	9788	840209.83679589738	0
2	9804	843617.524972546498	1
2	9806	843617.524972546498	0
2	9813	844933.828048088402	1
2	9815	844933.828048088402	0
2	9829	845598.161870603972	1
2	9831	845598.161870603972	0
2	9843	846445.173618900803	1
2	9852	847338.202961012269	2
2	9858	848001.135128655312	1
2	9863	848999.596683655458	0
2	9878	849807.96166501654	1
2	9883	849944.467225887482	0
2	9914	852343.478814449125	1
[...]
7	5348	485182.967436186398	3
7	5352	485238.265857520082	4
7	5364	485545.283626275834	3
7	5373	485747.427302904509	4
7	5381	486603.063471133675	3
7	5386	486982.676784706264	2
7	5398	487949.511277983853	1
7	5406	488467.296046123123	0
7	5421	489745.13933809258	1
7	5429	490113.135259515648	2
7	5441	491892.606793025863	3
7	5447	492011.765376644103	4
7	5449	492282.153911813208	3
7	5454	492361.319914740237	2
7	5462	493217.165398819606	1
7	5478	494960.09338747763	2
7	5487	495920.482160402393	3
7	5495	496078.621534417337	4
7	5500	496320.656766363013	5
7	5508	496517.083574451628	4
7	5513	496582.980342422422	3
7	5524	497160.231896337616	2
7	5528	497163.812753342235	3
7	5553	498046.830291541157	4
7	5557	498373.969318463563	3
7	5563	498455.644085874943	2
7	5567	498921.786178608806	3
7	5572	499025.383723752352	4
7	5578	499655.733794135016	5
7	5582	499686.692441908593	4
7	5598	500633.217623508201	3
7	5613	501013.244944318845	4
7	5620	501432.111827704506	3
7	5623	501556.222630795687	2
7	5627	501718.436660947242	3
7	5631	501789.391711666985	2
7	5647	502431.847376858492	1
7	5657	505351.359094809551	0
7	5672	506333.355894915283	1
7	5682	509291.492300467058	2
7	5690	509976.034790170202	3
7	5694	511563.789417657484	2
7	5714	512801.226102647025	3
7	5719	512852.501701918294	4
7	5723	512896.319880893696	3
7	5728	513184.519723131053	4
7	5732	513186.783801036817	3
7	5743	514296.824550784191	2
7	5747	514444.004485713318	3
7	5760	515006.15699356405	2
7	5774	515866.173070000682	3
7	5778	517769.291158459962	2
7	5786	518258.04147926352	1
7	5804	519313.99937286459	2
7	5809	520195.585910386964	3
7	5812	521031.972498097537	2
7	5820	521830.866874362852	1
7	5836	523532.642704671714	2
7	5844	524165.991236282276	3
7	5846	524812.799279418443	2
7	5852	525090.953063435498	1
7	5871	526351.311340994381	0
7	5876	526609.050222561079	1
7	5881	526745.013111783917	2
7	5894	527282.502179441505	3
7	5897	529494.92332290356	2
7	5906	529775.353038963997	1
7	5920	530287.235022577119	2
7	5928	530663.047779766088	3
7	5930	530928.939349751278	2
7	5939	531861.899252000049	1
7	5957	533116.589754599205	2
7	5967	533256.437010779598	1
7	5974	533743.472002249087	2
7	5979	533772.46921647575	3
7	5984	533944.338349446107	4
7	5990	534072.053917776675	5
7	5997	534142.01463350033	4
7	6005	534546.15373565574	3
7	6010	534608.898779255201	2
7	6022	536627.101348170918	1
7	6037	538039.85045597729	2
7	6049	538951.460357428841	3
7	6053	539069.084668628607	2
7	6057	539251.059916131971	3
7	6071	540695.860671314257	4
7	6073	541066.880845370386	3
7	6087	541491.978557248248	4
7	6090	541637.650083526197	3
7	6095	541895.830308868417	2
7	6098	542043.712245553476	1
7	6101	542289.633785897075	0
7	6113	542851.28499911868	1
7	6138	545140.731332348086	2
7	6146	545763.340040922129	3
7	6154	546537.594396481184	2
7	6158	546754.318423452402	3
7	6172	548008.613515206231	4
7	6180	548163.870303349416	5
7	6188	549003.306458875794	4
7	6191	549317.098187015541	3
7	6195	549374.992299549861	4
7	6204	549420.053309780793	3
7	6212	549490.028488495242	2
7	6230	551031.802848165355	3
7	6232	551462.977511481659	2
7	6237	551803.593757270883	1
7	6256	554048.919952554081	2
7	6258	554535.265082155389	1
7	6275	554846.041774309956	2
7	6280	554999.256862450514	3
7	6289	555304.423606806017	4
7	6291	555972.277660264151	3
7	6296	556154.443419231491	2
7	6308	556729.824837470151	1
7	6326	558844.468825702258	2
7	6331	558943.159804001163	3
7	6333	559066.319413385085	2
7	6341	559314.484625930832	1
7	6356	559722.395675716633	2
7	6359	561285.30562653731	1
7	6368	563703.684659624118	0
7	6383	564586.020611520653	1
7	6391	565571.77642280275	0
7	6395	565641.326314145582	1
7	6408	566126.512901272634	2
7	6410	566743.294654382676	1
7	6426	568913.423287112011	2
7	6428	569602.27672648839	1
7	6443	570067.902836318084	2
7	6451	570797.188496600466	3
7	6459	570955.387081463709	4
7	6462	571633.298499089909	3
7	6467	571784.19434485706	2
7	6484	572537.567424332319	3
7	6486	572943.168765096722	2
7	6492	573131.135194470669	1
7	6495	573280.932997874637	0
7	6517	574268.795863087974	1
7	6525	574469.456739608108	2
7	6534	574793.045691465217	3
7	6542	575069.148862062768	4
7	6544	575326.694259636946	3
7	6552	575482.906477740694	2
7	6557	575892.87676711675	1
7	6575	576736.376223828678	2
7	6577	576841.446038265045	1
7	6586	577814.261243415656	0
7	6614	581498.844957044044	1
7	6619	581794.605359389736	2
7	6627	582140.881700394448	1
7	6631	582490.316527426146	2
7	6638	583466.611173215131	1
7	6642	583499.867140932096	2
7	6648	583688.061564948482	3
7	6653	583704.956471995442	4
7	6658	584204.534032387511	5
7	6662	584451.55888877304	4
7	6680	585060.448191212448	5
7	6687	585732.572221412805	4
7	6696	586984.79904568684	3
7	6704	587953.641527448092	2
7	6714	589676.821957833166	1
7	6731	591435.390770623988	0
7	6735	591476.041516874878	1
7	6739	591646.868583953658	0
7	6743	591683.091572292371	1
7	6762	592772.339737256261	2
7	6770	593890.815197789613	3
7	6773	594875.634307173216	2
7	6778	595138.358744426954	1
7	6796	598343.716626422579	0
7	6801	598829.540680362297	1
7	6815	600223.668426800967	2
7	6817	600802.89517668157	1
7	6831	601423.563068323073	2
7	6833	601443.74754205508	1
7	6848	602025.562515623474	2
7	6857	603476.105426454606	3
7	6859	603931.64049664546	2
7	6864	603932.265549701132	1
7	6881	605781.078839285885	0
7	6889	606425.201317281734	1
7	6897	607146.222299906346	2
7	6902	607252.155272131588	3
7	6916	608017.993260930272	4
7	6918	608207.581954377703	3
7	6927	609211.752976438486	2
7	6935	609652.733204709905	1
7	6953	611060.975989388794	2
7	6961	611664.279417508928	3
7	6966	611763.093356961654	4
7	6969	612227.17428426204	3
7	6974	612303.880784683906	2
7	6985	612507.226012080056	1
7	6993	612986.480855038693	0
7	6997	613057.660073244006	1
7	7010	613784.501611171096	0
7	7025	615619.760791486105	1
7	7027	615693.672951925475	0
7	7042	617195.424350227659	1
7	7050	617847.361448866058	2
7	7053	618070.439233728464	1
7	7069	621029.310576588441	2
7	7077	621902.619445249655	3
7	7086	623517.714675815565	4
7	7089	624068.166784310413	3
7	7094	624303.952098965259	2
7	7097	624357.034198366392	1
7	7109	625157.906715073876	2
7	7128	625879.425142330217	3
7	7130	625981.043849992935	2
7	7144	627033.554433527888	1
7	7148	627430.828541156408	2
7	7155	627906.329049763007	1
7	7164	628760.148856657039	0
7	7183	632687.52800952021	1
7	7188	632793.496909251767	2
7	7191	633700.187918015343	1
7	7200	635299.889097229449	0
7	7215	636175.102221543227	1
7	7226	637364.880652325877	2
7	7231	637567.699642371939	1
7	7237	638102.46609278196	0
7	7244	638350.211511495317	1
7	7249	638468.321091856727	2
7	7254	638814.068592891771	3
7	7267	639735.171130890889	2
7	7272	639904.764825047352	1
7	7283	640322.776758125697	0
7	7301	645679.241035692762	1
7	7311	648002.79203134758	2
7	7319	648768.051609174792	3
7	7328	649814.955277110367	4
7	7330	649881.947837772226	3
7	7343	650126.07032999773	2
7	7347	650694.573879403144	3
7	7361	651135.243988563783	4
7	7363	651773.124472595631	3
7	7376	652273.407517025929	2
7	7380	652321.419728103051	3
7	7394	652571.261701824793	4
7	7396	652949.450930989703	3
7	7404	653485.460087520768	2
7	7412	653612.913306847706	1
7	7420	653947.307732041399	0
7	7435	654826.666116988243	1
7	7438	656401.831297206425	0
7	7453	657264.476659138544	1
7	7460	658091.962653403648	0
7	7467	658212.01916727847	1
7	7472	658252.59923579123	2
7	7487	660273.301363154146	3
7	7489	660544.151250900852	2
7	7508	663325.655173681112	3
7	7513	663704.57170074939	4
7	7521	663878.489178960474	5
7	7524	664672.55535870745	4
7	7532	665285.135152515685	3
7	7548	665966.008577560822	2
7	7552	666084.585348539836	1
7	7556	666767.206737664441	2
7	7571	667833.592409604459	3
7	7576	667991.238209866063	4
7	7584	668254.180581198826	5
7	7588	668444.599704067692	4
7	7598	668803.124393718736	5
7	7602	668863.606053210067	4
7	7606	669013.01192702939	3
7	7609	669015.364218361392	2
7	7613	669682.573261312945	3
7	7621	669913.202463779448	4
7	7626	670042.162297632845	5
7	7632	670518.880486833134	6
7	7641	670714.467828888276	5
7	7652	670861.786321416545	4
7	7655	670940.674745745218	3
7	7667	671499.904897254081	4
7	7672	671777.876087470867	5
7	7676	671991.382350440045	4
7	7690	672385.498339130826	3
7	7693	672454.158177615187	2
7	7711	673189.90095260463	1
7	7714	673259.500472606268	0
7	7740	674689.913678870593	1
7	7745	674700.017239929731	2
7	7749	674802.938828006439	1
7	7762	675442.42819111211	2
7	7766	675444.386879611085	1
7	7794	677513.957750737383	2
7	7801	677854.261617053932	1
7	7806	678220.522998738614	2
7	7819	678983.505654477943	3
7	7821	679427.776671725477	2
7	7838	680689.359851908156	1
7	7842	680718.620403673684	2
7	7848	681107.37181777794	3
7	7855	681562.237652038169	2
7	7864	681711.333497265893	3
7	7868	681950.891800089578	2
7	7886	682825.437695651724	3
7	7888	683338.033336725667	2
7	7896	683419.764408134389	1
7	7905	684904.247713692461	0
7	7919	685278.792372117557	1
7	7932	687094.244489856925	2
7	7937	687327.055266770737	3
7	7945	687772.140722696531	4
7	7947	688254.001941182345	3
7	7961	688603.347470248073	2
7	7965	688685.018500757837	3
7	7969	689404.173098544896	2
7	7977	689751.487834483404	1
7	7986	690649.790876596667	0
7	8007	691682.148487434929	1
7	8012	691803.266621973418	2
7	8020	692146.047182841212	3
7	8023	693261.34610555993	2
7	8031	693338.748208312253	1
7	8045	693916.084587414897	2
7	8053	694136.750594126889	3
7	8056	694580.88400950896	2
7	8065	697247.362681390088	1
7	8074	698061.99022738464	0
7	8090	700712.067810577202	1
7	8099	702967.900191865867	2
7	8108	704169.610442042735	3
7	8110	704577.97037618051	2
7	8119	705539.562903281616	1
7	8133	706109.715232563883	2
7	8136	707321.726063276408	1
7	8144	707704.979517862461	0
7	8159	709084.49784850939	1
7	8168	709824.533615993487	2
7	8176	710280.23499390279	3
7	8178	710770.613592646556	2
7	8187	711474.370629314965	1
7	8202	713385.279853504405	2
7	8205	714593.644438852697	1
7	8220	715788.489335247123	2
7	8228	718336.075393390635	1
7	8236	718778.002052290136	2
7	8241	719044.693137674753	3
7	8245	719147.1928718622	2
7	8270	721590.339833915396	3
7	8275	721729.84118136861	4
7	8283	722092.729556461824	5
7	8288	722206.436303859123	6
7	8290	722259.006640568394	5
7	8304	722585.803300595992	6
7	8307	723041.052094069593	5
7	8315	723210.971932472408	4
7	8330	724611.348011798681	5
7	8338	725014.557201960866	6
7	8345	725158.905068024264	5
7	8348	725206.128673854998	4
7	8352	725690.706497528162	5
7	8356	725754.176421748143	4
7	8363	726171.089560587324	3
7	8372	726722.939636517176	4
7	8376	726797.038496777147	3
7	8398	728203.820756652438	2
7	8406	728995.911976418219	1
7	8417	732837.387140739081	0
7	8431	733260.08698329016	1
7	8433	733319.244505747375	0
7	8448	734971.645509182466	1
7	8457	735367.864353602931	2
7	8466	737455.90529154302	3
7	8475	738218.185728041628	4
7	8483	738892.974328687944	5
7	8485	738909.511096618928	4
7	8490	739142.553384029578	3
7	8512	741139.523042973323	2
7	8524	741501.82517533702	3
7	8528	741520.396287535613	2
7	8532	741583.612075694051	3
7	8537	741932.809077810972	4
7	8542	742033.197762013206	5
7	8546	742096.467592817922	4
7	8553	742250.931548480582	5
7	8564	742690.875780554526	4
7	8568	742796.485005726757	5
7	8576	742843.883722883838	6
7	8581	743015.581258753939	7
7	8585	743166.525362495897	6
7	8589	743291.41700599393	7
7	8593	743554.728267912649	6
7	8596	743656.644780524704	5
7	8600	744039.107523218712	4
7	8603	744089.639428803976	3
7	8611	744370.347515007301	2
7	8624	744897.926642917676	1
7	8645	746377.833201010012	2
7	8651	747158.153198535265	3
7	8670	747467.801433666449	2
7	8684	748553.1443593366	1
7	8706	749647.368141521452	2
7	8714	749944.142218885542	3
7	8723	750271.375239389349	4
7	8731	751331.199952264152	5
7	8734	752191.633116406459	4
7	8747	752376.286309799919	3
7	8751	752421.268695062293	4
7	8755	752660.969042797296	3
7	8758	752818.872057210988	2
7	8775	753645.380548334326	1
7	8789	754323.289923060443	2
7	8792	755218.694174397721	1
7	8808	757817.801277941823	2
7	8815	758494.124161168341	1
7	8819	758544.941103857919	2
7	8833	759375.287394358934	3
7	8840	760475.406902681061	2
7	8845	760806.125529796481	3
7	8852	761160.099541301202	2
7	8868	763531.436295409992	3
7	8871	765031.133049763209	2
7	8884	765476.151058002493	1
7	8888	765540.15162447122	2
7	8895	765781.444066608732	1
7	8909	766431.307863751509	2
7	8918	767154.025044376122	3
7	8920	767751.280604440113	2
7	8928	767853.036512809436	1
7	8943	768207.639802422441	2
7	8951	769140.535040234096	3
7	8953	769151.08792128695	2
7	8958	769244.631276907198	1
7	8962	769714.887181734445	0
7	8986	772542.112283461213	1
7	8994	773619.769097630653	2
7	9003	775258.293957146373	3
7	9005	775432.745388337454	2
7	9014	775556.928035640451	1
7	9029	777535.79920405646	2
7	9037	778383.450459441193	3
7	9047	780088.506870942628	4
7	9054	780316.183728416904	3
7	9058	780328.990143824333	4
7	9065	781007.758658545765	3
7	9079	781554.996701831544	2
7	9083	781790.942089368312	3
7	9090	781881.169180455421	2
7	9104	782625.188844782626	3
7	9107	783430.525307897567	2
7	9121	783645.926536438039	3
7	9123	783829.043024565007	2
7	9131	784036.267695371163	1
7	9149	785693.967426268921	2
7	9154	785973.891774795531	3
7	9163	786200.298575780917	4
7	9165	786914.87559740848	3
7	9173	787022.629265438446	2
7	9181	787262.779772583968	1
7	9189	787423.298683602601	0
7	9206	790547.056367340313	1
7	9208	790965.605372341418	0
7	9232	792228.65865583808	1
7	9237	792491.645711398763	2
7	9242	792578.772262346976	3
7	9247	792844.206004033745	4
7	9255	793224.466048347564	5
7	9257	793240.928362875596	4
7	9272	794114.35031901735	5
7	9280	794237.701491586974	6
7	9282	794371.893127046853	5
7	9287	794413.675022913245	4
7	9296	795018.542203132677	3
7	9308	795448.193774215324	4
7	9312	795889.561377287632	3
7	9330	797400.11997797136	2
7	9334	797410.138319636375	3
7	9339	797463.25615496642	4
7	9343	797530.728292046507	3
7	9347	797556.936986275097	4
7	9357	798191.17342609981	3
7	9370	798876.916969290654	2
7	9383	801760.537709000569	1
7	9414	804232.323018797401	2
7	9422	804377.623173889855	3
7	9426	804454.658876068545	2
7	9436	805321.881767565391	3
7	9440	805401.994971528189	2
7	9444	805648.756222194219	1
7	9448	805722.51205590849	2
7	9456	805925.097659508246	3
7	9461	806010.062245626654	4
7	9466	806220.547695611853	5
7	9471	806267.663604557687	6
7	9476	806282.624896453779	7
7	9481	806341.537378831224	8
7	9485	806983.101700645979	7
7	9489	807010.225547429308	6
7	9492	807048.998111940212	5
7	9500	807405.252056881148	4
7	9539	810652.006575893125	5
7	9546	810704.652479826789	4
7	9550	811250.977555495649	5
7	9554	811285.67705029493	4
7	9563	811749.620752896736	3
7	9574	812215.884377768065	2
7	9579	812448.204620524036	1
7	9591	813389.862780650068	0
7	9605	814130.752315601995	1
7	9613	814276.712506468597	2
7	9616	815045.036039001959	1
7	9630	815480.295403745163	2
7	9633	816393.824869886546	1
7	9648	818621.433685320754	2
7	9650	818931.826579775987	1
7	9659	819043.168609353802	0
7	9673	820233.026687816714	1
7	9677	823008.65137035441	0
7	9695	828984.555956624076	1
7	9705	831925.6274911555	2
7	9714	832641.438535490322	3
7	9716	832684.463646330245	2
7	9725	835029.506455951389	1
7	9743	835577.65380088009	2
7	9748	835590.022790246867	3
7	9757	837886.230255238519	4
7	9759	838248.245401292928	3
7	9774	839172.813656592996	4
7	9776	839548.048485080156	3
7	9791	840391.817963063485	4
7	9793	841265.482177661498	3
7	9809	843731.197439758276	4
7	9818	845156.459236526701	5
7	9820	845374.664126875434	4
7	9834	845634.216054418597	5
7	9837	846236.039767435017	4
7	9845	846474.93300493058	3
7	9848	846521.090090023159	2
7	9861	848999.596683655458	3
7	9867	849316.9781370173	4
7	9871	849430.216401967996	3
7	9874	849747.832894812903	2
7	9886	850019.702683205291	3
7	9901	850801.513330079123	2
7	9919	852585.671224345163	3
7	9921	853159.24884033073	2
7	9930	853671.389394706253	1
7	9935	853898.084835615716	0
7	9954	856638.8426829054	1
7	9962	857696.167411719571	2
7	9971	858590.215462720049	3
7	9973	858937.868439267837	2
7	9981	859190.480240809648	1
7	9986	859364.557385354604	0
7	10004	860515.125876673634	1
7	10006	860606.399363169362	0
7	10021	861761.937469888056	1
7	10029	862284.323953590535	2
7	10031	862499.054908802685	1
7	10046	863611.912504357031	2
7	10055	864438.442111917238	3
7	10057	864637.05896221979	2
7	10071	864852.877917312492	3
7	10074	865502.848050798517	2
7	10082	866279.169125341565	1
7	10096	866950.973437906389	2
7	10099	867160.977127959252	1
7	10113	867633.660696757637	2
7	10115	868384.065542143398	1
7	10130	869163.900880207911	2
7	10132	869242.813007557398	1
7	10147	870571.986278752748	2
7	10159	871715.696019355808	3
7	10164	871783.747707467462	4
7	10172	872114.984520044604	5
7	10175	873028.106009891538	4
7	10183	873608.127234773615	3
7	10196	874316.646333887912	2
7	10200	875196.757495788586	1
7	10204	875325.689994074277	2
7	10216	875732.142751677926	1
7	10221	876052.082201221903	2
7	10237	876833.087182002359	3
7	10242	877045.337540828853	4
7	10255	877963.385445225656	3
7	10259	878023.331792844779	4
7	10263	878151.886524535074	3
7	10275	878282.386654839817	4
7	10279	878363.955043740165	3
7	10290	878444.083135536328	2
7	10298	878858.550617585809	1
7	10304	879205.728684081171	0
7	10324	880234.584960480659	1
7	10332	880641.807766078031	0
7	10336	881078.854074124979	1
7	10341	881112.479707053354	2
7	10358	882138.514496990962	3
7	10363	882213.702738649431	4
7	10365	883353.800700201237	3
7	10383	883820.887051582821	4
7	10388	884032.344687073849	5
7	10390	884179.431989739776	4
7	10395	884365.363901195489	3
7	10407	885146.275431746275	2
7	10420	885805.607625920779	1
7	10424	886024.781742463613	2
7	10438	886992.086632336507	3
7	10440	887718.799324576303	2
7	10456	890657.149732782952	3
7	10458	890722.685268344287	2
7	10473	891694.509347280891	3
7	10475	892278.707851760569	2
7	10491	894025.273067278481	3
7	10493	894168.402516264775	2
7	10502	895971.720397495362	1
7	10510	896217.331063564654	0
7	10525	897497.363308881296	1
7	10533	897546.334477748105	2
7	10535	898004.532982078954	1
7	10550	899530.080810877708	2
7	10552	899620.825360334606	1
7	10560	899639.095518283601	0
7	10576	902667.093043545038	1
7	10585	903383.029355992977	2
7	10587	903760.250922186942	1
7	10595	904259.136871506422	0
7	10610	905311.065477667479	1
7	10620	907932.344410680491	2
7	10631	908833.96036351586	3
7	10635	908844.886812067295	2
7	10638	908919.709890308248	1
7	10643	909359.459759862213	2
7	10655	910331.520378049691	1
7	10673	911506.279467240867	2
7	10678	911731.888785868446	3
7	10680	911910.668551089169	2
7	10699	913975.745093573225	3
7	10703	914173.887818834653	2
7	10707	914655.821809153977	3
7	10721	915438.129274554952	4
7	10723	915684.05641595401	3
7	10728	915727.689259682573	2
7	10741	916728.495653253574	3
7	10745	916795.409075846126	2
7	10756	917997.364607649554	1
7	10771	918725.349151864147	2
7	10773	919437.257271080143	1
7	10788	920589.044089108204	2
7	10791	922167.812172704539	1
7	10801	924212.120239192542	0
7	10815	925394.025956970536	1
7	10824	925681.626155472478	2
7	10832	926633.188472665632	3
7	10844	927323.454758020785	4
7	10849	927553.667461396061	5
7	10851	927923.893162493633	4
7	10860	928925.922708610105	3
7	10868	929933.59913021184	2
7	10883	930356.592239360453	3
7	10891	931848.658110074862	2
7	10895	932027.54145044119	3
7	10902	932886.754034474116	2
7	10911	933850.963337612618	1
7	10925	934237.401430075757	2
7	10933	934548.823195753087	1
7	10937	935073.848271630652	2
7	10941	935104.813710569642	1
7	10953	936032.646000390959	0
7	10967	936474.261831258973	1
7	10975	937370.634408823917	2
7	10983	937713.933304094102	1
7	10990	938206.803292983556	2
7	10998	938432.57596079348	3
7	11002	938440.102509887083	2
7	11006	938841.869278175659	3
7	11010	938940.393401623646	2
7	11023	940302.92930932654	3
7	11043	942234.301170867013	4
7	11050	942919.567860940752	3
7	11053	943013.566051167386	2
7	11059	943155.956118458071	1
7	11064	943896.238501567051	2
7	11072	944206.625759243213	3
7	11077	944347.658858648264	4
7	11081	944510.658949067521	3
7	11108	945577.804738754181	2
7	11112	945660.819740810249	3
7	11120	946690.786963815378	2
7	11128	947374.524171356783	1
7	11144	950020.269496556821	2
7	11146	950335.273371844676	1
