file 194373 1483968272                                          
version 2
run QueueMeasurement-122-20170109-14:24:32-6858
attr configname QueueMeasurement
attr datetime 20170109-14:24:32
attr experiment QueueMeasurement
attr inifile queueStudy.ini
attr iterationvars ""
attr iterationvars2 $repetition=122
attr measurement ""
attr network controltower.SimNetwork
attr processid 6858
attr repetition 122
attr replication #122
attr resultdir results
attr runnumber 122
attr seedset 122
param SimNetwork.a.parkingLot.parkingDelay exponential(45min)
param SimNetwork.a.runway.landingTime exponential(5min)
param SimNetwork.a.runway.takeoffTime exponential(5min)
param SimNetwork.a.runway.throughputCheckInterval 25min
param SimNetwork.wg.interArrivalTime exponential(25min)

vector 7  SimNetwork.a.parkingLot  parkingOccupancy:vector  ETV
attr source  parkingOccupancy
vector 4  SimNetwork.a.takeoffQueue  queueLength:vector  ETV
attr source  queueLengthSignal
vector 3  SimNetwork.a.takeoffQueue  queueTime:vector  ETV
attr source  queueTimeSignal
vector 5  SimNetwork.a.runway  landedThroughput:vector  ETV
attr source  landedThroughputSignal
vector 6  SimNetwork.a.runway  tookoffThroughput:vector  ETV
attr source  tookoffThroughputSignal
vector 0  SimNetwork.wg  responseTime:vector  ETV
attr source  responseTimeSignal
vector 2  SimNetwork.a.landingQueue  queueLength:vector  ETV
attr source  queueLengthSignal
vector 1  SimNetwork.a.landingQueue  queueTime:vector  ETV
attr source  queueTimeSignal
0	1437 26190 855 11168 80155.960688026501 950218.183446793471 611 595.45262818279 21334.07000803 3199876.3690932 22362738488.576
1	27627 20987 877 11155 81897.889540984735 949578.447126397666 607 0 1781.5723670861 93335.740532847 62822807.78866
2	48614 35151 872 11155 81785.15138733564 949578.447126397666 1214 0 4 723 883
3	83765 21263 848 11165 79380.950333458407 950107.609865023635 611 0 2819.5195180428 161814.30125254 199510253.67466
4	105028 35380 846 11165 79380.950333458407 950107.609865023635 1222 0 4 829 1159
5	140408 9350 853 11151 79500 949500 581 0 5 607 1259
6	149758 9350 853 11151 79500 949500 581 0 5 608 1218
7	159108 35265 845 11158 79380.950333458407 949724.896833217874 1218 0 7 2895 9293
