file 196121 1483968284                                          
version 2
run QueueMeasurement-144-20170109-14:24:44-6880
attr configname QueueMeasurement
attr datetime 20170109-14:24:44
attr experiment QueueMeasurement
attr inifile queueStudy.ini
attr iterationvars ""
attr iterationvars2 $repetition=144
attr measurement ""
attr network controltower.SimNetwork
attr processid 6880
attr repetition 144
attr replication #144
attr resultdir results
attr runnumber 144
attr seedset 144
param SimNetwork.a.parkingLot.parkingDelay exponential(45min)
param SimNetwork.a.runway.landingTime exponential(5min)
param SimNetwork.a.runway.takeoffTime exponential(5min)
param SimNetwork.a.runway.throughputCheckInterval 25min
param SimNetwork.wg.interArrivalTime exponential(25min)

vector 2  SimNetwork.a.landingQueue  queueLength:vector  ETV
attr source  queueLengthSignal
vector 1  SimNetwork.a.landingQueue  queueTime:vector  ETV
attr source  queueTimeSignal
vector 5  SimNetwork.a.runway  landedThroughput:vector  ETV
attr source  landedThroughputSignal
vector 6  SimNetwork.a.runway  tookoffThroughput:vector  ETV
attr source  tookoffThroughputSignal
vector 7  SimNetwork.a.parkingLot  parkingOccupancy:vector  ETV
attr source  parkingOccupancy
vector 4  SimNetwork.a.takeoffQueue  queueLength:vector  ETV
attr source  queueLengthSignal
vector 3  SimNetwork.a.takeoffQueue  queueTime:vector  ETV
attr source  queueTimeSignal
vector 0  SimNetwork.wg  responseTime:vector  ETV
attr source  responseTimeSignal
0	1437 26255 684 11076 80285.3758762653 950057.462832222422 613 687.0364164107 17902.28847943 3060583.3280504 20058168192.149
1	27692 21539 672 11083 79378.816179624709 950086.375118027372 616 0 2164.2600130423 96353.62690994 67603179.27681
2	49231 35635 670 11083 79378.816179624709 950086.375118027372 1232 0 4 742 908
3	84866 21477 681 11061 79873.016588859061 949728.731812232913 613 0 3805.9257930371 149613.94650777 186005365.61025
4	106343 35522 679 11070 79873.016588859061 950011.920688737653 1228 0 6 806 1142
5	141865 9330 674 11057 79500 949500 581 0 5 614 1280
6	151195 9330 674 11057 79500 949500 581 0 6 616 1270
7	160525 35596 676 11081 79584.981376399077 950086.375118027372 1230 0 7 2799 8471
