file 190412 1483968273                                          
version 2
run QueueMeasurement-124-20170109-14:24:33-6860
attr configname QueueMeasurement
attr datetime 20170109-14:24:33
attr experiment QueueMeasurement
attr inifile queueStudy.ini
attr iterationvars ""
attr iterationvars2 $repetition=124
attr measurement ""
attr network controltower.SimNetwork
attr processid 6860
attr repetition 124
attr replication #124
attr resultdir results
attr runnumber 124
attr seedset 124
param SimNetwork.a.parkingLot.parkingDelay exponential(45min)
param SimNetwork.a.runway.landingTime exponential(5min)
param SimNetwork.a.runway.takeoffTime exponential(5min)
param SimNetwork.a.runway.throughputCheckInterval 25min
param SimNetwork.wg.interArrivalTime exponential(25min)

vector 5  SimNetwork.a.runway  landedThroughput:vector  ETV
attr source  landedThroughputSignal
vector 6  SimNetwork.a.runway  tookoffThroughput:vector  ETV
attr source  tookoffThroughputSignal
vector 7  SimNetwork.a.parkingLot  parkingOccupancy:vector  ETV
attr source  parkingOccupancy
vector 4  SimNetwork.a.takeoffQueue  queueLength:vector  ETV
attr source  queueLengthSignal
vector 3  SimNetwork.a.takeoffQueue  queueTime:vector  ETV
attr source  queueTimeSignal
vector 0  SimNetwork.wg  responseTime:vector  ETV
attr source  responseTimeSignal
vector 2  SimNetwork.a.landingQueue  queueLength:vector  ETV
attr source  queueLengthSignal
vector 1  SimNetwork.a.landingQueue  queueTime:vector  ETV
attr source  queueTimeSignal
0	1437 25544 900 10999 80057.062431166523 949129.101232854345 596 483.94514138445 30194.418871927 3086275.8389791 22209677996.122
1	26981 20681 923 10988 82855.872661205558 948508.016504347163 595 0 1374.9910161693 89571.574329268 57799447.287548
2	47662 34500 918 11008 82751.783295615603 950265.993234587214 1191 0 4 692 824
3	82162 20549 897 11005 79656.641960959679 950117.730239579143 597 0 3516.8653867406 146516.87325743 208371769.57691
4	102711 34541 895 11005 79656.641960959679 950117.730239579143 1194 0 6 803 1281
5	137252 9337 893 11001 79500 949500 581 0 6 598 1132
6	146589 9337 893 11001 79500 949500 581 0 5 597 1163
7	155926 34486 894 11002 79656.641960959679 950117.730239579143 1192 0 7 2796 8996
