version 2
run QueueMeasurement-45-20170105-15:39:30-5420
attr configname QueueMeasurement
attr datetime 20170105-15:39:30
attr experiment QueueMeasurement
attr inifile queueStudy.ini
attr iterationvars ""
attr iterationvars2 $repetition=45
attr measurement ""
attr network SimNetwork
attr processid 5420
attr repetition 45
attr replication #45
attr resultdir results
attr runnumber 45
attr seedset 45
param SimNetwork.a.parkingLot.parkingDelay exponential(45min)
param SimNetwork.a.runway.landingTime exponential(5min)
param SimNetwork.a.runway.takeoffTime exponential(5min)
param SimNetwork.a.runway.throughputCheckInterval 25min
param SimNetwork.wg.interArrivalTime exponential(25min)

statistic SimNetwork.wg 	responseTime:stats
field count 608
field mean 5257.5549418534
field stddev 3159.127139298
field sum 3196593.4046469
field sqrsum 22864176611.022
field min 600.69913537688
field max 25086.17944534
attr source  responseTimeSignal
scalar SimNetwork.a.landingQueue 	queueLength:timeavg 	0.13597467756305
attr source  queueLengthSignal
statistic SimNetwork.a.landingQueue 	queueLength:stats
field count 1210
field mean 0.6404958677686
field stddev 0.67116906172155
field sum 775
field sqrsum 1041
field min 0
field max 5
attr source  queueLengthSignal
statistic SimNetwork.a.landingQueue 	queueTime:stats
field count 605
field mean 195.3862692454
field stddev 387.01750446081
field sum 118208.69289347
field sqrsum 113565014.94731
field min 0
field max 3490.1081716851
attr source  queueTimeSignal
scalar SimNetwork.a.takeoffQueue 	queueLength:timeavg 	0.27472980750585
attr source  queueLengthSignal
statistic SimNetwork.a.takeoffQueue 	queueLength:stats
field count 1216
field mean 0.86677631578947
field stddev 1.3536774369923
field sum 1054
field sqrsum 3140
field min 0
field max 11
attr source  queueLengthSignal
statistic SimNetwork.a.takeoffQueue 	queueTime:stats
field count 608
field mean 393.3536796091
field stddev 952.33011742873
field sum 239159.03720233
field sqrsum 644582207.40033
field min 0
field max 6427.3041358369
attr source  queueTimeSignal
scalar SimNetwork.a.parkingLot 	parkingOccupancy:timeavg 	1.8359524511679
attr source  parkingOccupancy
statistic SimNetwork.a.parkingLot 	parkingOccupancy:stats
field count 1213
field mean 2.320692497939
field stddev 1.4403000404498
field sum 2815
field sqrsum 9047
field min 0
field max 8
attr source  parkingOccupancy
