version 2
run QueueMeasurement-128-20170109-14:24:35-6864
attr configname QueueMeasurement
attr datetime 20170109-14:24:35
attr experiment QueueMeasurement
attr inifile queueStudy.ini
attr iterationvars ""
attr iterationvars2 $repetition=128
attr measurement ""
attr network controltower.SimNetwork
attr processid 6864
attr repetition 128
attr replication #128
attr resultdir results
attr runnumber 128
attr seedset 128
param SimNetwork.a.parkingLot.parkingDelay exponential(45min)
param SimNetwork.a.runway.landingTime exponential(5min)
param SimNetwork.a.runway.takeoffTime exponential(5min)
param SimNetwork.a.runway.throughputCheckInterval 25min
param SimNetwork.wg.interArrivalTime exponential(25min)

vector 5  SimNetwork.a.runway  landedThroughput:vector  ETV
attr source  landedThroughputSignal
vector 6  SimNetwork.a.runway  tookoffThroughput:vector  ETV
attr source  tookoffThroughputSignal
vector 7  SimNetwork.a.parkingLot  parkingOccupancy:vector  ETV
attr source  parkingOccupancy
vector 4  SimNetwork.a.takeoffQueue  queueLength:vector  ETV
attr source  queueLengthSignal
vector 3  SimNetwork.a.takeoffQueue  queueTime:vector  ETV
attr source  queueTimeSignal
vector 0  SimNetwork.wg  responseTime:vector  ETV
attr source  responseTimeSignal
vector 2  SimNetwork.a.landingQueue  queueLength:vector  ETV
attr source  queueLengthSignal
vector 1  SimNetwork.a.landingQueue  queueTime:vector  ETV
attr source  queueTimeSignal
0	828	80942.051108893016	9028.1147426355
0	840	81795.114462097364	9297.7717403712
0	854	83929.639327458715	8235.9326916737
0	882	89072.571734892644	4230.8988734302
0	908	91633.083145581197	9942.9489852154
0	916	91868.99733308387	4324.1487862026
0	946	101239.412374556113	11250.275918033
0	994	103663.055894616709	13357.648417202
0	1002	103948.262920542219	7183.5626543427
0	1007	104184.695259939588	2296.2025595859
0	1012	104311.196067094478	3028.7068314751
0	1020	104618.688670095123	3087.3229752933
0	1033	106533.942511025537	5982.3375839925
0	1066	108723.045327934667	6732.0163090169
0	1088	109726.550510505307	4049.765842526
0	1105	111996.655546579739	2887.4707486544
0	1123	114737.084668711999	7647.5251726132
0	1140	115854.46878147935	2480.1172633195
0	1151	116567.468554794844	5581.320968062
0	1165	117555.767671893473	2602.3567596687
0	1173	118093.943554805033	9510.4129968028
0	1182	119091.247389099211	12283.641444135
0	1255	123100.042107446327	3199.5381012458
0	1260	123139.55192730023	6668.1407391664
0	1265	123327.953481876262	3536.3817746404
0	1290	125391.470181671198	2956.9990244458
0	1298	125966.688700227162	5167.6691065195
0	1319	127904.484387783444	5855.0413345611
0	1327	128232.462716729228	4510.3389155037
0	1332	128424.082849421401	3342.4996988583
0	1357	129495.089727630753	7044.8396430927
0	1368	129940.721982109637	3412.6645609633
0	1396	130850.707116082617	1912.2365598854
0	1406	131425.291583896689	2594.9194723959
0	1415	132286.108752499703	1827.8959911652
0	1423	132962.169994459465	3380.593446608
0	1432	133835.238850380882	13727.621912499
0	1450	137153.201367545959	6560.24134854
0	1478	138725.054647829816	3674.9271154789
0	1492	140488.804732625736	2501.9675116006
0	1529	143534.053077850258	5072.0293783859
0	1549	144383.77759650259	6541.9655349304
0	1559	144678.885216953894	3327.6302046339
0	1574	145972.485044437014	4069.9139763945
0	1593	147721.036913830339	4824.9306716933
0	1611	150220.183736352015	6856.94003048
0	1627	151049.507139942306	1363.4443342446
0	1639	151724.430685636614	7438.770404978
0	1667	153255.146169391677	7303.5793391689
0	1680	154412.176104878086	3607.0980052191
0	1685	154413.542154079174	8521.099622811
0	1706	156086.396155293779	4313.5057947106
0	1719	157454.924844158097	2644.997010178
0	1728	158243.933886448508	6834.7305127783
0	1754	160850.861778815678	8011.3333440269
0	1771	163162.663981249364	7096.2190319574
0	1780	163762.747280065223	3181.4340516856
0	1797	165875.248395533738	2973.4311841914
0	1831	168737.194518539639	10451.81405121
0	1842	169305.857033044968	3134.9718103214
0	1847	169326.624299134003	3324.4546225198
0	1856	169919.979531386929	4319.6652995296
0	1873	171280.35106649224	3930.5679319852
0	1899	175445.206349811006	2962.7861214831
0	1922	175987.814710649425	5304.702794426
0	1963	178164.415855550867	2484.7551001922
0	1968	178462.622310553562	2540.0295622843
0	1974	178948.822213672943	1847.6287269072
0	1985	179543.700483270892	4006.6986416016
0	1990	179824.623479063174	5681.3403464725
0	2011	186324.613801112693	9165.6423128892
0	2036	187925.051504337118	1568.6260253653
0	2061	189855.534880569204	2668.6497843596
0	2069	190109.874380506513	4285.7807009265
0	2095	192413.481049347844	3306.9288415557
0	2106	193093.87436697377	4782.9381744887
0	2140	196211.739285231588	3602.1568234393
0	2148	196446.585631256903	2722.5981562082
0	2154	196528.438091151306	5156.3325459187
0	2171	198401.471123903422	8069.6749325497
0	2208	201088.957375386538	5968.5933079669
0	2213	201142.340832673195	2415.3685457763
0	2223	204746.315484228572	8206.805005411
0	2232	205919.726821535458	6884.0095564156
0	2269	208907.115055867661	9840.3448810226
0	2274	209273.161157232306	1951.1837463516
0	2312	213579.580829574087	1348.181363339
0	2326	215126.851451793147	6928.3671957918
0	2337	215830.486553728202	9474.3395428731
0	2360	218049.852489611716	5783.2898273949
0	2394	221065.298895670191	7829.8011435917
0	2411	222612.407623634941	3208.1623738691
0	2427	222972.525704885437	7604.7650067274
0	2444	224785.987788730514	11252.342533497
0	2462	226737.326401358512	8324.8241408278
0	2478	227672.914332279303	5485.4861743264
0	2486	227723.344495481443	11056.798679788
0	2494	227799.602937870044	5183.539861792
0	2511	228509.949626736082	9987.2201788238
0	2519	229157.828755946143	5976.9470203547
0	2531	230378.241073753101	4354.9750354544
0	2537	231311.284831290583	4065.167291405
0	2567	235871.45841388302	2525.5740958704
0	2572	236216.381226960011	7978.6380357774
0	2641	241836.548881111719	7795.8208614693
0	2659	242310.120867793611	4168.7515502974
0	2671	243148.959130308722	4846.2159334631
0	2681	243642.397190154132	2788.5935492991
0	2700	244446.679018478322	2654.4478531817
0	2706	244741.56299507054	2726.8865803573
0	2714	245036.709169117591	5082.3796141716
0	2722	245343.505225752848	2836.9958385634
0	2746	248204.173501511679	7592.2366416875
0	2759	248371.579010454039	7901.3214853883
0	2773	250229.397221664905	3320.7748247567
0	2808	253971.458630761475	9850.2321652385
0	2827	254669.59787085275	7214.6587621804
0	2832	254715.813766416883	2632.7061692746
0	2841	255857.323448052243	5085.7953666669
0	2850	257652.101533288923	9304.8327566624
0	2865	258321.709625719339	5934.9763792624
0	2883	258779.125543135951	928.30260855189
0	2926	262642.64969168188	1161.7418239985
0	2935	264918.49050571634	10886.26475369
0	2964	268095.85005500091	8023.6451268982
0	2969	268347.55707252348	1767.5021111685
0	2978	268713.984890009243	10532.161421473
0	3023	271721.123400302074	11189.146176926
0	3028	271849.987892469111	1947.5633799136
0	3037	273338.895118711289	6532.4120747496
0	3062	274953.636620037152	13339.865008431
0	3071	276459.08528924653	7555.9092455081
0	3087	276978.6414903399	3353.6993168802
0	3101	280539.585637092951	10715.623401271
0	3117	281300.568246018769	11326.28631182
0	3122	281695.755204492591	5199.7164283041
0	3131	282243.259617000433	8568.72492576
0	3149	286075.399064774192	5597.2501577846
0	3176	290681.082129785156	6952.9565706978
0	3201	294494.738550005465	6017.728498267
0	3219	295075.31200447378	4460.7630458697
0	3228	296389.239932630999	2820.9781513833
0	3245	297081.485863083024	2768.8161730583
0	3292	299577.147556917351	5346.9834219418
0	3298	300015.470884406172	2150.7180206314
0	3303	300806.316715634916	2697.2241621686
0	3311	301067.02569721919	4635.7891100388
0	3356	303843.63847523899	4981.5035327091
0	3361	304303.787091472518	1271.9982636409
0	3373	304527.533185283257	2870.4127095692
0	3394	305422.074347361127	911.07846803137
0	3426	307369.475375585452	3901.1099411382
0	3445	307734.202760160354	2786.5695238505
0	3455	308039.009056520853	6212.5362282047
0	3466	308306.551393389296	9368.0015751455
0	3471	308452.442581227218	2756.3992042132
0	3476	308718.681066288497	1660.5547463484
0	3493	310492.089293268127	2769.261874969
0	3503	312266.751894351601	4982.7991509147
0	3539	318354.271721429996	8387.9599142016
0	3567	319572.652633838261	2979.75535217
0	3572	319939.055092115342	1336.2311826955
0	3581	322134.2606140395	4683.0521702568
0	3618	324845.523754237958	6948.9635308929
0	3623	325034.764289066824	6206.9509258104
0	3641	328179.302140982946	4209.792800841
0	3651	330050.432644772109	6433.8183617007
0	3670	331348.274770410845	7476.9555749458
0	3703	332973.509675648787	2062.1164392718
0	3745	335601.890392997037	4547.5634597786
0	3750	335645.633660837404	2567.6184877731
0	3767	336354.327555807321	3072.3179852422
0	3807	338752.148426987715	3039.0501690544
0	3821	339289.56851950217	13359.700042444
0	3826	339401.431055544527	7518.9352113519
0	3831	340249.023917449876	7373.7967157017
0	3840	341093.684723302001	4055.3203767662
0	3850	341454.388107937065	7570.833558514
0	3868	344627.987416975536	7152.6139719679
0	3885	345634.331117450463	7917.2219725493
0	3896	346183.640348175631	2584.1618036078
0	3902	346547.210039994812	6008.9878307162
0	3910	346899.307265820487	14532.903622817
0	3927	348356.151722961814	3217.7834967305
0	3955	354599.105573010263	7372.2250675575
0	3968	358074.383336316495	6114.2686107315
0	3990	359823.132176218309	2133.3066032595
0	4016	362067.025921057875	731.60486660712
0	4033	363915.293957896283	10466.22787235
0	4042	364709.469624898542	3214.3919746749
0	4051	366995.152489927982	8675.4438366013
0	4069	369631.435615080234	7010.6251205315
0	4087	372785.421340749735	5598.743913387
0	4104	374672.215654131046	3766.0148939404
0	4142	378096.584702819282	1821.5672262983
0	4172	379970.276845020367	3425.437438608
0	4180	380216.233865936534	7177.2978730164
0	4189	381046.587204884119	2972.7424434965
0	4197	381313.010744336044	4186.3938321904
0	4220	383422.887604328623	5087.9929421346
0	4230	383760.503424823127	5511.4500500765
0	4239	384698.990520758252	2172.5802462257
0	4266	389303.448485958109	1390.4219055128
0	4291	390512.864697716779	1575.0111588657
0	4319	391972.348673621117	8648.9030698745
0	4330	392530.965525186071	1889.8926780155
0	4365	393776.790987987318	3465.9827496049
0	4373	394111.842940574414	4496.6308638219
0	4397	396924.837985255115	5753.1501030877
0	4407	397006.844908493693	3849.6543375186
0	4426	397225.136007324615	5115.2813047592
0	4431	397444.074441993102	4554.8857865036
0	4440	397770.09890310869	1953.8507432582
0	4449	399051.56644340946	6783.596036937
0	4460	399705.008831695457	5020.4659964868
0	4473	399934.99779652934	2924.5233437409
0	4533	406425.691761912286	1834.9248482733
0	4553	407904.012478653324	2159.6364832478
0	4586	408896.385087481488	6317.1523669252
0	4595	409761.914149644634	3299.3888851416
0	4603	409859.600963970184	5618.0581520031
0	4608	409943.34575166524	1827.9764125272
0	4625	411578.053747935183	4127.8788840278
0	4637	412635.450835181234	13239.585404544
0	4642	412912.313351683763	6787.5220805594
0	4676	419551.446596151655	16945.421836341
0	4686	419902.766362530596	11504.414665548
0	4706	421290.126119477718	2900.693154017
0	4712	421781.280950920676	2424.1172393806
0	4720	422274.637620524668	4223.2047443436
0	4746	424878.119066581363	4858.9169775513
0	4758	426278.4537391122	15139.139008335
0	4794	428670.493795044347	4080.6558032865
0	4813	429418.337527573926	5519.9297492153
0	4825	431071.289914194939	4941.169154123
0	4830	431074.268159844626	2460.935220051
0	4847	433070.642156749767	6624.0276355051
0	4889	435665.84154879292	6974.4352548191
0	4900	436308.329816665135	2166.0813710526
0	4909	436820.233717072498	3115.3082348889
0	4930	437784.67114235687	5520.4775906859
0	4939	438858.720647856259	4458.0395703323
0	4948	439504.2611553317	11952.115114823
0	4974	442895.602932251538	2006.3665440495
0	4982	443343.679663419121	8304.2377021514
0	5008	445539.057712753473	4231.5868264287
0	5016	445799.578282369962	8686.1954577475
0	5024	446815.462008778291	10148.930675432
0	5034	448581.527301037518	4697.5736664715
0	5069	454454.155279648984	9739.7800398569
0	5095	456640.369169371192	1398.6444188344
0	5119	457390.943183748333	5235.4901425985
0	5130	457485.432003694007	4829.6223424581
0	5136	457891.558909467053	1164.632275556
0	5144	458123.274589679654	4192.4125828786
0	5184	460674.17979556945	4939.0930725077
0	5198	462215.296427166692	5455.5283906495
0	5209	462988.851741560961	3769.9991564547
0	5219	463401.98833377238	3735.3588786919
0	5228	464592.564323682289	3985.2833796557
0	5246	467710.094828720621	8850.971454588
0	5280	470050.684891997412	7814.8982687957
0	5288	470528.72943935344	1696.3448828938
0	5305	471481.689965820887	3630.8170993346
0	5316	471782.873497379373	5543.5152479279
0	5338	473343.456522112832	3580.3737496925
0	5356	475532.698245681344	3077.1178098133
0	5374	479769.834162782655	9049.116318333
0	5391	481149.337092737159	9509.410392832
0	5411	482759.00563279099	3952.9966833978
0	5446	485354.302383358288	5109.0584919693
0	5502	486558.614942774974	3810.4974157719
0	5507	487015.000801502702	12025.996132082
0	5522	488522.761402069247	3016.4783571259
0	5527	488598.811251993687	5112.5529620978
0	5532	488664.353318032364	3459.9983060942
0	5544	490277.272047841338	5059.5908569518
0	5549	490285.049470945197	4709.2590335652
0	5558	490851.960601260346	5479.2787873028
0	5574	491852.526691382563	6657.0340713663
0	5594	492832.129293499322	7208.7544939665
0	5599	492863.362786369052	11308.154274304
0	5608	493864.241239557705	2912.6392789879
0	5626	497899.342132222533	5655.3921346301
0	5661	502028.449838400087	7194.6709720312
0	5684	503092.529322740198	2014.2464759665
0	5689	503183.848129548282	3301.8640991907
0	5694	503518.553427707613	1845.8567643747
0	5747	511200.502870610208	8560.9313545852
0	5756	512632.808203609926	2765.7024380168
0	5784	514067.607111841831	4031.7618601164
0	5789	514084.535882182825	5535.11110429
0	5820	514871.434828422932	2159.9634786121
0	5825	514922.932638474864	5425.2237292789
0	5830	515025.333346216143	1745.5610686899
0	5838	515768.507137075157	6654.788230854
0	5850	516132.099229344017	1909.3026484952
0	5872	517912.94948575867	3643.1262783576
0	5916	519008.772714488893	3030.1479546111
0	5921	519050.050645835998	1465.2262511953
0	5930	520736.521041795781	2652.7230531111
0	5962	524146.914753817044	6087.8294071643
0	5972	524181.618871785675	5513.507372279
0	5992	526256.877057976603	8249.2146082773
0	5997	526337.834392256564	4281.8767360144
0	6014	527965.822510237315	4734.9611704495
0	6056	530163.440362364412	1040.9331965754
0	6065	531918.735824217475	6713.4240961862
0	6077	532782.000790892788	8742.0631542235
0	6088	532925.693796928093	5781.7653823153
0	6110	534440.074495473311	5081.3364058767
0	6124	535828.611817706189	5939.8286925298
0	6140	536682.96719373935	2875.2244055797
0	6157	538459.502762694806	2329.7788202509
0	6182	539201.727002163089	2459.2396957336
0	6199	540317.949234500674	1541.6150538958
0	6207	540711.833503869937	10731.44920182
0	6216	541975.202149661617	9062.5596580601
0	6233	543522.01496170239	3808.5901219653
0	6242	545059.810977557267	6356.7489060046
0	6262	551110.413930039058	8112.5534665406
0	6293	557876.076116732123	10081.189136688
0	6299	558233.308624639455	3174.0890238938
0	6317	561083.483973901758	5953.8167323106
0	6334	563178.519934016525	3575.8173259111
0	6352	565969.635914679432	4328.2619316671
0	6369	567447.252179611272	2439.7369497113
0	6402	569834.299101400145	1976.5960897314
0	6417	570536.587543488601	37682.47419333
0	6422	570750.000058769753	3031.6670531598
0	6427	570756.662056760547	4127.220628151
0	6444	572412.442261304742	3431.1298129432
0	6488	577937.593169791627	2285.1330864883
0	6500	579436.178449998009	8320.1726927774
0	6522	580764.687776320937	5683.124240025
0	6530	580896.715480290252	7765.929153461
0	6552	581441.710588108703	4556.6807264163
0	6605	584685.311896630098	3596.7849279073
0	6621	584948.307301622616	3576.030880132
0	6635	585638.050972438722	3534.0126057618
0	6640	585667.63433052887	6491.8894370852
0	6645	585735.60438335347	5671.5005321655
0	6654	586628.964643159857	5431.0281422268
0	6663	588096.648919669852	4393.0694652268
0	6682	589248.502434652954	4489.9022511694
0	6687	589448.304110836173	4881.5532056933
0	6696	590687.98101509188	8580.7959461149
0	6718	594134.852593349708	5647.9431930932
0	6732	596318.406459977998	4486.9564533765
0	6766	601722.175354991654	2700.5887201894
0	6795	602954.838402515135	1337.8286579637
0	6800	602989.19286841073	9366.0694274801
0	6837	605182.639723027795	3790.5743880138
0	6845	605417.711554854017	3301.6661946139
0	6850	605981.528162008312	6847.5721489501
0	6867	607138.711399067441	3106.5280279059
0	6885	609319.809625566477	4766.7722386277
0	6894	610554.485309518767	6140.7069624545
0	6902	611980.967236613648	4926.820929415
0	6939	618144.100291036416	1226.3314812885
0	6984	621020.658687063642	5586.0413641438
0	6989	621063.484718162822	2272.8164777628
0	7017	622644.772306283134	2954.0136075124
0	7025	622988.84971323562	1830.1437541754
0	7030	622992.298892148056	4518.0032060792
0	7058	625487.297409717155	8375.1443406487
0	7064	625616.744525926782	1893.3753083049
0	7072	625980.430947436914	4641.7378155584
0	7083	626675.476211756282	18028.504856749
0	7091	626971.643431851387	6633.8536200769
0	7122	629265.796747979153	4154.8281845798
0	7139	630950.673380085473	2922.0265692509
0	7148	631918.493283561548	5048.5485762484
0	7168	633372.122103426815	3501.0246984826
0	7181	634494.375092405685	2214.3305190011
0	7190	635634.500925085232	7756.7544575028
0	7219	637589.745440304431	4431.0580878757
0	7232	637642.485642741198	984.18319023941
0	7240	637874.592318319521	810.73565954102
0	7292	644190.091440538098	1599.9903864867
0	7300	644369.141164374262	4832.19125577
0	7315	646318.353529574108	9073.9784994651
0	7326	646668.266689384856	5216.2167992203
0	7337	647298.532053953948	4738.6266831084
0	7342	647844.850314254848	4976.3100437231
0	7359	649354.75084265894	3187.1546102404
0	7398	654746.578560408577	5842.8075618597
0	7403	655024.727975770077	1977.6424681761
0	7420	656768.544738393745	2971.8081533729
0	7438	658594.570743981978	3321.6819147296
0	7454	658928.611839355532	6150.2465187368
0	7470	659585.714362780859	858.33496095002
0	7505	663747.060566887514	6772.2098782036
0	7522	664646.913583178394	1362.7109753661
0	7546	665723.036806342856	2594.8235470018
0	7566	666950.192794838196	2879.5621037603
0	7579	667354.107826337818	8106.723473546
0	7596	668576.647213182255	2615.3649000075
0	7605	669005.26839981216	4265.2730976925
0	7613	669994.074249190559	8990.5497913125
0	7633	671312.127848731117	6099.368780807
0	7649	671947.496693524338	5738.4974176077
0	7658	672664.191588172455	4535.9480920337
0	7675	673987.209068168835	2851.5752463152
0	7680	673993.568852124671	3525.9077112635
0	7705	675985.458028401471	3459.8276989138
0	7739	678844.466604791495	1657.9811787759
0	7747	679203.074119321221	4067.1328099174
0	7756	680529.177556947522	5758.8714197256
0	7774	682874.218056131611	6472.8317271405
0	7791	684698.870513871487	6291.6724094511
0	7799	685140.454615117261	3429.2091101875
0	7861	689539.691697484164	1429.0543846638
0	7883	691393.265091646436	4504.4851981396
0	7898	691663.009112152527	2313.5137304003
0	7934	693483.499630960897	6406.998727277
0	7939	693521.49286672944	9199.2642575322
0	7944	693642.552145362339	2162.9512118377
0	7949	693745.051339575687	2216.6202571318
0	7961	694847.613927653875	6627.1430243485
0	7980	695670.075836508853	7481.4296354188
0	7989	696071.878866423386	3779.0679069932
0	7997	696699.030893429394	6208.7521847245
0	8008	697509.234423600313	10377.433982634
0	8025	699401.069047048005	3298.5308393707
0	8065	702123.691706101581	4517.2106410098
0	8075	702343.959182466041	2012.6422343929
0	8083	702755.856858162978	1639.1035460581
0	8100	704832.279282178893	10222.675784533
0	8109	706482.18212700675	4389.7822611207
0	8135	708906.968804856763	8192.6304264228
0	8160	710246.287522317571	3048.0683221761
0	8169	711987.38092041647	8806.9136937646
0	8186	713494.771504384416	5787.7537323069
0	8195	714117.880977920858	4844.6314365742
0	8231	716777.88228754849	7144.7034226489
0	8245	718273.871211998555	4010.2887268774
0	8254	718897.462429951448	6841.1356496812
0	8269	721354.713824595618	5321.8776508849
0	8280	721670.960828802648	6254.4686456362
0	8297	723127.158922196695	2208.382453567
0	8339	727402.718494331381	5486.8844657728
0	8354	728225.677722504795	3024.8068075721
0	8382	729359.113237799553	12859.429500315
0	8387	729387.810419081959	1264.5303672631
0	8392	729421.740132156251	3148.1487116673
0	8397	729922.290451154549	3374.5227072783
0	8414	731525.696920954906	5328.7501502705
0	8431	733358.494509128908	4980.18534754
0	8466	737564.444183096374	2507.8838800298
0	8477	737945.256590610387	7344.7322113744
0	8499	739396.028170612307	5997.3137247524
0	8511	740983.392081909032	9129.0180605783
0	8517	741316.859488846779	3525.6801643887
0	8529	743799.073846460418	8650.0605380542
0	8551	744762.019743441748	6814.2208988175
0	8560	745677.393483634296	1955.304163681
0	8607	752662.339765888907	8408.4775494496
0	8616	753470.705414771774	3860.2990406251
0	8621	753505.565137983265	4153.7315813407
0	8629	753915.138982579641	2805.8130419108
0	8646	755620.799265509563	3882.6086199624
0	8674	761844.800503442512	4267.0546496012
0	8701	765002.971609663133	4005.191277032
0	8709	766218.387589098323	11173.307986943
0	8719	768088.145836144789	5028.8740962919
0	8739	770078.198058875641	6247.1274659155
0	8764	771419.359136623497	1897.0242832629
0	8786	772690.527636802459	3675.3930657149
0	8794	772825.646750616095	2689.9751566564
0	8816	778361.079036517446	6605.4607160817
0	8838	779010.955750450672	956.81904178744
0	8846	779525.723854521947	8392.7975050907
0	8873	783056.788838945298	2644.2796539587
0	8881	783553.511243914142	9309.5255347664
0	8938	787806.894568683935	2942.2331162164
0	8948	788192.670016238332	9629.469352345
0	8956	788426.092079458983	2185.1515725414
0	8965	789731.666988022232	3487.5366516251
0	8973	790213.312537926062	5093.2761040528
0	8998	791345.901171752805	9925.809678924
0	9009	791953.103695071037	1555.5842417749
0	9015	792013.616352347694	5636.0047067423
0	9041	803074.498892403735	15326.278010605
0	9046	803565.789844586299	12868.530289511
0	9063	805076.805717151917	6874.5943502689
0	9090	809342.488975283556	5057.0354271717
0	9101	813902.700653006864	6600.388361417
0	9119	816918.331327300841	8005.2706523049
0	9146	821953.187144945882	2085.004303035
0	9197	829222.400049893842	4227.4652444151
0	9214	830438.755516515581	9551.3990912694
0	9223	831406.382565591485	15893.29110089
0	9228	831425.627112301062	4812.824331878
0	9236	831952.376772500343	4337.3968303184
0	9258	833446.357377020317	9190.5540611735
0	9278	835211.863068259944	6462.3492840177
0	9283	835286.444930667339	3810.4205898664
0	9310	839354.14254325003	6736.1593202995
0	9318	839744.015309587943	3557.0631994097
0	9327	840357.345226274972	5658.828523973
0	9353	843635.765634638967	4801.5160534615
0	9363	846460.821761073044	4352.9307261489
0	9408	856567.224968790258	5110.0543353589
0	9418	857117.962574318046	4809.2027567517
0	9452	859853.238299380828	16996.023523477
0	9460	860787.062034438366	7954.6646906181
0	9477	861485.366634639376	3805.6188140893
0	9485	862394.19978515805	4715.5045183074
0	9497	862668.328251598823	4073.8511115517
0	9510	863339.857813997684	2209.4480262447
0	9519	864229.019763801172	7922.5061786161
0	9536	866127.839181724618	3661.4555308984
0	9561	867100.779904180773	2042.3363129681
0	9570	869887.398583544096	3389.1961795695
0	9596	872605.104340391724	1504.4457760381
0	9611	873896.592820777023	7302.726584861
0	9633	874729.658126595627	1519.1547562411
0	9658	877390.206288740634	2667.7992347237
0	9664	877841.884396340499	4443.1792464321
0	9672	878733.036772475968	6727.9819306667
0	9694	887279.157678603435	11768.089996049
0	9711	889339.573302049207	3423.9061569022
0	9737	892376.922294527444	4056.6545486928
0	9763	895036.513707336102	5690.6132183094
0	9800	898172.476751971163	2710.5822389727
0	9809	899148.024174838875	3890.3254012861
0	9814	899314.030381935288	8681.8654626381
0	9823	900027.020033017715	5977.5598684364
0	9839	901421.95755387683	5038.3961501385
0	9866	905826.264227309705	2918.0405905435
0	9875	906080.72032454311	5778.7068316978
0	9916	908800.962376592235	1389.8995975052
0	9933	909775.920898444326	3509.2674913016
0	9941	909929.542905892247	1311.9919479317
0	9950	911075.187682972294	2731.1331864303
0	9959	912027.413897793281	18932.979878556
0	9986	913186.213517122147	7653.3860766056
0	10006	913923.989008535152	1611.7605028133
0	10016	914084.414839267609	4806.9504836629
0	10024	914493.664655168329	2114.4872531088
0	10050	917808.372982646724	1577.2949768095
0	10087	920516.412672551905	6789.8466521654
0	10092	920546.734587998093	7623.1188780844
0	10100	920757.142984340274	3759.7582424088
0	10108	920990.969505170723	3120.8156140609
0	10118	923634.077608749285	5057.968517544
0	10136	926642.087935344133	7031.1979144777
0	10163	930589.041343675314	5642.6287358845
0	10171	930990.839748508076	3760.5447051378
0	10189	933369.905746442528	5280.6445519466
0	10215	937292.331516852379	5110.3334941539
0	10225	940398.43399294904	7018.1618958199
0	10246	943422.105774360178	7924.607357737
0	10260	944690.278322982171	1873.6651111473
0	10295	948570.244254008406	2377.9205144698
0	10304	950354.309094316473	6948.9251523094
1	842	81795.114462097364	104.98030173152
1	860	84841.672861462402	0
1	870	87544.848546881221	0
1	887	89989.136456522693	0
1	896	91330.732701177114	1025.3252237624
1	924	96764.700266199525	0
1	935	100551.60492703308	0
1	951	101282.489235619348	0
1	972	102031.316602509993	499.95090770816
1	977	102440.403748463394	551.91104810968
1	982	103195.157054664706	1204.128035747
1	1035	106533.942511025537	857.15784304626
1	1043	106842.529433553033	34.923488588611
1	1051	107089.559496098755	0
1	1068	108723.045327934667	139.5147699324
1	1079	109206.949808825607	97.765010900228
1	1093	110986.147586732883	0
1	1111	113374.351518159832	0
1	1128	114953.410912224767	0
1	1153	116567.468554794844	96.057366661024
1	1187	119791.571707235814	0
1	1195	119900.504006200494	0
1	1204	120332.038923600148	224.42198571868
1	1212	121303.44484833678	504.42525462914
1	1221	122049.443053222337	0
1	1229	122434.471157225355	0
1	1243	122726.099116390638	275.84903185258
1	1270	123722.12380122551	0
1	1279	125081.583150563072	0
1	1304	126528.057421146363	0
1	1337	128830.372111500835	0
1	1345	128980.080450640174	41.609894442921
1	1370	129940.721982109637	359.14543425813
1	1378	130458.212761334487	0
1	1398	130850.707116082617	257.74709707666
1	1438	135050.127532350939	0
1	1455	137841.812061572192	0
1	1463	137986.837221025121	0
1	1480	138725.054647829816	263.0309483655
1	1498	141351.255012319999	0
1	1506	141962.778671403916	60.207603361393
1	1515	142896.106242137064	0
1	1531	143534.053077850258	170.80937197823
1	1551	144383.77759650259	98.117315843973
1	1576	145972.485044437014	80.042513168884
1	1581	146019.217756181796	67.650925958983
1	1599	149686.062805697726	0
1	1616	150805.078099658952	0
1	1641	151724.430685636614	315.22731196638
1	1649	151790.379785114114	17.489424530971
1	1669	153255.146169391677	415.61773460291
1	1691	154809.927833980099	0
1	1708	156086.396155293779	19.951206001792
1	1733	158285.380467329474	0
1	1743	160581.313228379651	0
1	1760	162901.817211342327	0
1	1786	165600.314231857354	0
1	1802	166002.169676614173	0
1	1810	166266.42506743177	95.539844708218
1	1819	167349.783134507017	0
1	1861	170683.111916223392	0
1	1878	172482.420228327929	0
1	1888	174143.283132590695	0
1	1905	175537.001841669279	0
1	1924	175987.814710649425	308.15395529072
1	1929	176034.808066005314	112.2153177361
1	1938	177101.193486765789	0
1	1946	177183.230860510504	24.259372287039
1	1999	185824.093679579989	0
1	2016	186356.425478971844	0
1	2024	187186.88509620965	0
1	2041	188310.936192485037	0
1	2050	189106.552207792103	0
1	2074	190331.796191353696	0
1	2083	191372.105545232648	0
1	2108	193093.87436697377	484.29190518153
1	2117	194299.789310468337	575.80183541968
1	2126	195764.521054843124	644.15698742347
1	2159	196539.510478817602	0
1	2176	198726.972286896875	0
1	2187	199337.720600070536	302.00333495064
1	2193	199735.337898295981	668.56772345093
1	2237	206356.147010855079	0
1	2246	207321.977410880706	0
1	2254	208198.484256001351	0
1	2281	212231.399466235059	0
1	2289	212502.127583835336	235.56492161851
1	2298	213235.497752078525	0
1	2314	213579.580829574087	45.93557434086
1	2339	215830.486553728202	462.72585557019
1	2348	216666.545815693237	0
1	2365	218412.502260530694	0
1	2373	218522.72944791226	0
1	2382	219404.245249765841	0
1	2400	222187.42815795294	0
1	2416	222616.063076078071	0
1	2432	223180.881735591403	0
1	2450	226023.266038298735	0
1	2467	227246.117539885596	0
1	2500	228237.743191182569	0
1	2543	233345.884318012613	0
1	2552	234040.728019642378	0
1	2578	238141.369317496197	0
1	2586	238389.646544623614	86.903347777977
1	2595	239954.329554945952	0
1	2610	240577.350683374648	107.09315830895
1	2624	241066.991968105587	455.05510828137
1	2629	241348.04525059356	494.24160973857
1	2643	241836.548881111719	44.317715815121
1	2651	242190.408081132601	175.73166641933
1	2673	243148.959130308722	642.44974311932
1	2686	244121.226465522987	0
1	2728	246908.622396908247	0
1	2748	248204.173501511679	749.23439283928
1	2761	248371.579010454039	24.310233827536
1	2779	250771.528081385345	0
1	2788	252083.107597142307	0
1	2796	252426.827260955352	40.094014498404
1	2813	254032.225752026751	0
1	2867	258321.709625719339	470.88669113528
1	2872	258438.416029810155	256.59256127403
1	2889	260072.204928102714	0
1	2897	260531.97722337568	0
1	2906	261480.907867683367	0
1	2914	261613.771611606328	0
1	2941	266580.054961355002	0
1	2949	266806.483043961669	0
1	2983	268903.176043738462	0
1	2991	269823.962235821693	0
1	2999	269902.424512555544	0
1	3011	270302.020598619731	327.73866442049
1	3042	273624.942173459734	0
1	3050	274040.172438961598	365.63774772118
1	3076	276496.038776188452	0
1	3103	280539.585637092951	61.436730103342
1	3137	283728.125559087362	0
1	3156	288477.010051738512	0
1	3165	290614.548958604128	0
1	3183	293568.261781247708	0
1	3203	294494.738550005465	264.57441502993
1	3211	294939.826221973553	627.15653194886
1	3233	296431.236587180382	0
1	3250	297864.752863774808	0
1	3259	298700.970380818393	591.87782735212
1	3267	298862.134942529863	0
1	3275	299338.711035157154	400.16121691331
1	3317	301657.120475714042	0
1	3325	302134.567357286021	308.09452896992
1	3334	303031.788827831587	0
1	3345	303636.284799097144	167.91936464991
1	3375	304527.533185283257	16.537305953497
1	3383	304947.633236309889	0
1	3399	305696.043377014053	0
1	3428	307369.475375585452	311.34905564534
1	3434	307556.295552684763	272.34280924789
1	3447	307734.202760160354	11.375341861195
1	3482	309966.311807228367	0
1	3511	316592.897281668263	0
1	3519	317451.208443782678	0
1	3531	318164.484526026122	267.92430268105
1	3544	318602.823909419801	0
1	3552	318827.813363256462	0
1	3587	323616.614283071372	0
1	3595	323871.319195465003	0
1	3604	324178.509440162307	209.00010002033
1	3629	325929.868477057935	0
1	3656	330911.393236377013	0
1	3672	331348.274770410845	293.9478371924
1	3681	331882.495844192637	0
1	3689	332366.403643003119	0
1	3705	332973.509675648787	98.282473900634
1	3714	333177.17282066955	99.157647605212
1	3728	334263.313809972127	981.30423940703
1	3734	335031.160681819073	1147.606132396
1	3755	335713.098257933354	0
1	3772	337038.364346535836	0
1	3780	337475.373445007682	0
1	3809	338752.148426987715	1035.0392820865
1	3842	341093.684723302001	555.46251402337
1	3857	343599.478544567832	0
1	3874	345138.368226231315	0
1	3915	347226.880505452757	0
1	3934	351960.114725584965	0
1	3943	353449.066085546032	0
1	3970	358074.383336316495	384.5577633577
1	3979	358774.338715864298	454.63006253764
1	3996	361335.421054450756	0
1	4004	361495.07765022368	0
1	4021	362620.810494548701	0
1	4056	367186.677427362711	0
1	4075	370906.200760190685	0
1	4092	373038.935992920137	0
1	4110	376275.017476520997	0
1	4119	376544.839406412385	0
1	4127	377126.616912145596	0
1	4144	378096.584702819282	22.739941431615
1	4155	379235.045442670015	985.99206792335
1	4160	379481.750077125283	1146.8554149312
1	4203	382526.410274532509	0
1	4222	383422.887604328623	99.442000582023
1	4246	387913.026580445276	0
1	4255	388937.853538851061	0
1	4271	389615.212076752486	0
1	4280	390310.808238382378	0
1	4296	390641.072847170549	0
1	4307	391284.756939699421	113.06905753201
1	4332	392530.965525186071	421.11082262065
1	4337	392556.772980150359	288.8025736779
1	4348	392952.086251680787	62.897596191315
1	4357	393324.410813044785	167.22024206973
1	4379	394684.542835208653	0
1	4399	396924.837985255115	1108.5898254046
1	4412	397010.474452788468	0
1	4462	399705.008831695457	309.14340105801
1	4480	402579.23272055625	0
1	4488	402686.305236246446	80.280476435599
1	4497	404241.54281196705	0
1	4505	404590.766913638996	0
1	4514	405744.375995405572	0
1	4522	406124.79127112434	0
1	4538	406462.525264502997	0
1	4555	407904.012478653324	453.83761474593
1	4567	408137.174829392334	21.805490254309
1	4578	408692.786679020131	294.43498203763
1	4614	411139.314730777169	0
1	4650	418051.432876181089	0
1	4658	418389.432965460745	0
1	4678	419551.446596151655	194.28288461154
1	4692	420019.202089030058	0
1	4726	423898.407778358597	0
1	4735	424589.837991757849	0
1	4760	426278.4537391122	148.33297904027
1	4768	426517.043527568222	70.429006323571
1	4777	427552.146040508992	0
1	4796	428670.493795044347	57.160855250719
1	4805	429352.70907068527	661.30277671149
1	4836	432264.193551670988	0
1	4853	433704.925482183561	0
1	4861	434142.248445612529	0
1	4869	434598.862798966567	198.1817214426
1	4881	435256.181331675354	216.7393704076
1	4911	436820.233717072498	153.70238372592
1	4919	437113.382824622463	0
1	4953	440889.23638820201	0
1	4962	442041.457693951322	733.98680762658
1	4987	443883.953634565984	0
1	4996	444714.375239792112	0
1	5041	452155.453041149816	0
1	5049	452655.809661235875	0
1	5058	453930.862006801016	0
1	5075	455241.724750536773	0
1	5083	455735.086723061711	0
1	5100	456726.926633911071	0
1	5108	456759.768036517215	0
1	5149	458859.12337413267	0
1	5161	459543.187338506038	324.33475339975
1	5169	459807.594974417263	140.96551933674
1	5186	460674.17979556945	66.898851542894
1	5211	462988.851741560961	753.06511835921
1	5234	466239.358249451494	0
1	5251	467850.872866486262	0
1	5260	468832.384556459661	0
1	5269	469763.082772420297	0
1	5293	470720.717844449675	0
1	5318	471782.873497379373	142.94679747424
1	5326	472455.580435868014	0
1	5344	474989.004669420422	0
1	5363	478806.008949393157	0
1	5380	480245.24389138898	0
1	5397	481555.208512065085	0
1	5413	482759.00563279099	10.888105787956
1	5422	483486.258289895838	0
1	5448	485354.302383358288	158.80976334199
1	5468	485814.131096267414	609.77608432926
1	5473	485835.88926770866	618.20807681913
1	5479	486163.405336141166	790.72352218364
1	5484	486241.648715761303	735.36567081797
1	5489	486365.708077447437	789.91764006744
1	5494	486370.57913713092	747.20433759807
1	5563	490951.601960569801	0
1	5580	492243.949997592425	0
1	5613	494833.77886636885	0
1	5633	499881.98403035757	0
1	5642	501078.282846773664	0
1	5650	501672.696663332957	0
1	5667	502639.571516025041	0
1	5703	508549.424777892801	0
1	5711	509113.718906221173	0
1	5719	509497.708909195923	0
1	5727	509867.105765593151	0
1	5739	510581.217357665417	545.37210593999
1	5761	512711.471349810815	0
1	5770	513279.772277526203	0
1	5794	514222.796580848801	0
1	5805	514429.433038068262	159.60983066719
1	5852	516132.099229344017	153.47446946626
1	5861	517584.824394640664	0
1	5877	518007.662449699316	0
1	5888	518200.366875227031	141.28152857424
1	5902	518707.571780035789	623.77379135111
1	5907	518914.752912073718	246.64141256709
1	5936	522055.957656242158	0
1	5944	523230.861339787788	0
1	5964	524146.914753817044	106.97711714772
1	5978	525205.311728031263	0
1	6003	527143.928414612777	0
1	6020	529122.507165789048	0
1	6029	529572.302920277385	213.56483068081
1	6037	529943.767600066802	54.984474890394
1	6045	529980.38430204967	0
1	6090	532925.693796928093	71.580446768996
1	6095	533292.639050807938	379.99655920641
1	6112	534440.074495473311	632.33170731367
1	6129	536129.723942443939	0
1	6145	536742.487306429493	0
1	6163	538703.062071552717	0
1	6171	538850.851337162435	74.517156557525
1	6187	539713.424839737082	0
1	6221	542997.860463498463	0
1	6249	547794.886980043837	0
1	6270	555059.219600745661	0
1	6278	555129.667241591203	0
1	6305	559602.702608105425	0
1	6322	561641.373983012321	0
1	6340	565007.515229899972	0
1	6357	566629.441428609562	0
1	6374	567718.333005609979	0
1	6382	568053.218577439221	195.51556577045
1	6391	568981.312448361586	0
1	6432	571116.005757220562	0
1	6450	573130.786326829256	0
1	6459	575081.563536295923	0
1	6467	575652.460083303339	0
1	6476	576885.029861692433	0
1	6502	579436.178449998009	260.43355655431
1	6510	580064.103851187923	0
1	6535	581088.526968722818	0
1	6554	581441.710588108703	243.77408717565
1	6559	581908.838157431277	536.56173594066
1	6571	582611.296963594263	507.25859691731
1	6576	582653.850513053856	546.66544407685
1	6585	583703.579454443008	0
1	6607	584685.311896630098	118.56099148719
1	6623	584948.307301622616	189.70711813901
1	6668	588486.909400256514	0
1	6702	591831.450006601472	0
1	6720	594134.852593349708	511.72915241907
1	6739	599021.586634802254	0
1	6747	599454.301636600709	320.34562354255
1	6768	601722.175354991654	330.11001997768
1	6773	601901.100420849078	284.09067629769
1	6781	602188.504490145054	72.459129904902
1	6806	604032.183371161501	0
1	6814	604413.77834706427	0
1	6823	604553.037386938731	0
1	6856	607054.146307198664	0
1	6873	608646.97135500708	0
1	6910	615434.617322919854	0
1	6919	616917.768809747927	0
1	6927	617464.620172270409	352.46710320192
1	6944	618474.295686068808	0
1	6952	618790.668240399979	0
1	6961	619690.758698770784	0
1	6969	620337.789811774526	0
1	6994	621158.705959060181	0
1	7005	621518.43545218258	179.74232030409
1	7035	623723.369217621885	0
1	7044	625110.968563399344	0
1	7093	626971.643431851387	101.69872453828
1	7102	627877.746467582409	0
1	7110	628028.64681083456	0
1	7127	629871.097404944188	0
1	7153	632280.044573404553	0
1	7170	633372.122103426815	213.43475099808
1	7196	636658.302452501791	0
1	7204	637090.784215272568	26.927556494067
1	7221	637589.745440304431	345.3704101954
1	7246	639536.949908604232	0
1	7255	641452.049890164517	0
1	7264	642559.90537084555	0
1	7272	642798.839593830447	208.73853977906
1	7280	643026.892315828342	158.35204529661
1	7317	646318.353529574108	150.75729715557
1	7348	648903.770998548873	0
1	7367	652778.365320618743	0
1	7375	653047.085507593989	0
1	7383	653796.736585020835	0
1	7408	655272.888829252348	0
1	7425	656974.850688683941	0
1	7443	658727.379401830834	0
1	7459	659247.384352791811	0
1	7476	661003.524457878038	0
1	7486	663128.213259341059	0
1	7497	663680.285405414961	396.08279760264
1	7510	664070.630691077874	0
1	7527	664739.99530211966	0
1	7535	665212.759067924114	0
1	7551	665961.282313174744	0
1	7568	666950.192794838196	741.19351892154
1	7585	668128.243496138733	0
1	7618	670467.66114086116	0
1	7635	671312.127848731117	176.49402687749
1	7660	672664.191588172455	138.56125868477
1	7685	674770.306137221948	0
1	7694	675135.941309403823	0
1	7710	676401.386328991082	0
1	7719	677186.485426015592	0
1	7728	678407.198104420344	0
1	7762	681711.245504929803	0
1	7780	684322.228609197238	0
1	7805	686888.779893506836	0
1	7814	687076.500903683879	0
1	7822	687210.683037127295	78.88259616113
1	7830	688110.637312820355	0
1	7838	688210.4098133214	21.763612231371
1	7847	688527.447486349316	306.9765830439
1	7863	689539.691697484164	190.19631573194
1	7872	690490.278708704894	0
1	7900	691663.009112152527	183.40817862789
1	7905	691870.328660543646	341.89757809978
1	7919	692620.995858262839	328.18489883265
1	7963	694847.613927653875	238.01043000763
1	7999	696699.030893429394	596.49268575205
1	8013	697606.481065091815	0
1	8030	700331.316948073149	0
1	8039	700714.338378433924	0
1	8047	701116.753312104833	0
1	8067	702123.691706101581	31.291840215532
1	8088	703180.467226651871	0
1	8115	707198.219200141477	0
1	8123	707707.017772077523	0
1	8140	709273.249541346634	0
1	8152	709763.313884856748	130.13501995713
1	8174	712056.326780270215	0
1	8200	714263.58248512114	0
1	8208	715416.492183166463	0
1	8217	716032.83617371076	0
1	8233	716777.88228754849	278.19855006427
1	8271	721354.713824595618	435.9373559659
1	8285	721915.834028558558	0
1	8303	725200.870914932659	0
1	8312	726196.946770684366	0
1	8323	726600.365746007914	326.77432551895
1	8328	726674.387122011274	126.61937813501
1	8356	728225.677722504795	102.39767068598
1	8364	728423.051987875239	44.742826286321
1	8403	730600.524379235965	0
1	8419	731854.374021330714	0
1	8436	733398.714445859955	0
1	8446	735056.560303066576	0
1	8454	735703.888723262262	554.87541485608
1	8479	737945.256590610387	154.07726615236
1	8488	738265.417372210564	317.61852758631
1	8531	743799.073846460418	76.984526507144
1	8540	744253.862216439352	0
1	8567	749351.833556642578	0
1	8575	749759.828271664007	149.42189751737
1	8584	751109.325940668804	0
1	8593	751738.190645547177	0
1	8635	755045.079602154871	0
1	8653	757577.745853841264	0
1	8663	760997.78033263117	0
1	8680	763059.271739852921	0
1	8689	763831.070592960188	0
1	8724	769015.134571087578	0
1	8741	770078.198058875641	555.86320551503
1	8749	770138.274114230274	2.602520270562
1	8766	771419.359136623497	286.43278719228
1	8774	771924.163996438237	168.54567600248
1	8800	774243.985709147759	0
1	8818	778361.079036517446	306.94232785421
1	8827	778620.164768121619	56.964104228322
1	8852	780412.509184986581	0
1	8860	781420.091492828773	0
1	8887	784864.661452467488	0
1	8895	785120.036433873267	0
1	8910	786572.339997429318	331.39949051174
1	8918	787020.088660436589	775.9583240395
1	8927	787558.722867371384	1181.111221766
1	8940	787806.894568683935	58.673686885437
1	8978	790397.519453296127	0
1	8987	790835.827922256383	138.56836718106
1	9024	798202.211366882981	0
1	9052	804285.453548111843	0
1	9070	807302.312291589852	0
1	9079	808913.060674995915	0
1	9107	815513.091464701651	0
1	9126	819868.1828419109	0
1	9135	820887.356425246199	0
1	9153	824255.803315846866	0
1	9161	824994.934805478745	0
1	9171	826612.802780423089	0
1	9179	827614.97994218195	0
1	9199	829222.400049893842	472.88626565155
1	9238	831952.376772500343	476.35243169936
1	9247	832617.98322295053	0
1	9264	834698.516702302002	0
1	9289	836186.952110178269	0
1	9299	838834.249581177485	0
1	9333	842107.891034924146	0
1	9341	842857.214775904145	0
1	9371	851457.170633431367	0
1	9380	852493.096109876976	184.33629231063
1	9388	852832.397343820304	0
1	9410	856567.224968790258	260.71138360515
1	9423	857678.695266850648	0
1	9432	858463.146700946716	783.39888039659
1	9440	858825.26732029895	230.79018025185
1	9466	861130.409787752974	0
1	9499	862668.328251598823	201.94460077259
1	9524	865058.443591212676	0
1	9541	866498.202403974643	0
1	9549	866664.973834831093	71.10759891505
1	9576	871100.658564353641	0
1	9585	872005.054841809297	0
1	9613	873896.592820777023	686.08945042249
1	9618	874225.049879733671	826.34472982529
1	9635	874729.658126595627	7.251072578703
1	9643	875511.067682554851	0
1	9682	885915.667145147047	0
1	9700	888320.26774583467	0
1	9716	889345.900489026748	0
1	9725	890632.164919297182	0
1	9743	893094.434019236941	0
1	9752	894049.46016458128	0
1	9768	895257.698773552792	0
1	9777	895942.588916452055	480.69440345363
1	9785	896383.561403738338	0
1	9828	900302.013492845305	0
1	9845	902908.2236367662	0
1	9855	905532.827440516563	0
1	9880	906266.653407142678	0
1	9888	907411.062779087053	0
1	9897	908344.054496541988	0
1	9905	908617.55095796055	0
1	9922	909277.464355604738	0
1	9964	912312.228505721862	0
1	9972	912467.150022229476	87.972620169996
1	9988	913186.213517122147	262.59780720844
1	10008	913923.989008535152	197.42298814866
1	10030	916231.078005837245	0
1	10039	916997.384741931447	0
1	10055	917870.153891109808	0
1	10074	919736.480523613314	1160.371432408
1	10079	919929.422052124784	318.5320312583
1	10124	924946.412607790772	0
1	10142	927230.295043370233	0
1	10150	928089.261194495958	0
1	10177	932181.998022698485	0
1	10194	933380.272097129093	0
1	10203	935497.498416623151	0
1	10232	942816.613211834901	0
1	10248	943422.105774360178	16.721832353113
1	10266	946192.323739538594	0
1	10278	947019.08218285152	763.26492905911
1	10283	947524.532281833687	867.82167511396
2	837	81690.134160365843	1
2	842	81795.114462097364	0
2	858	84841.672861462402	1
2	860	84841.672861462402	0
2	868	87544.848546881221	1
2	870	87544.848546881221	0
2	885	89989.136456522693	1
2	887	89989.136456522693	0
2	891	90305.407477414739	1
2	896	91330.732701177114	0
2	922	96764.700266199525	1
2	924	96764.700266199525	0
2	933	100551.60492703308	1
2	935	100551.60492703308	0
2	949	101282.489235619348	1
2	951	101282.489235619348	0
2	954	101531.365694801829	1
2	960	101888.492700353718	2
2	963	101991.029018917724	3
2	972	102031.316602509993	2
2	977	102440.403748463394	1
2	982	103195.157054664706	0
2	1029	105676.784667979276	1
2	1035	106533.942511025537	0
2	1038	106807.605944964422	1
2	1043	106842.529433553033	0
2	1049	107089.559496098755	1
2	1051	107089.559496098755	0
2	1063	108583.530558002266	1
2	1068	108723.045327934667	0
2	1074	109109.184797925379	1
2	1079	109206.949808825607	0
2	1091	110986.147586732883	1
2	1093	110986.147586732883	0
2	1109	113374.351518159832	1
2	1111	113374.351518159832	0
2	1126	114953.410912224767	1
2	1128	114953.410912224767	0
2	1148	116471.41118813382	1
2	1153	116567.468554794844	0
2	1185	119791.571707235814	1
2	1187	119791.571707235814	0
2	1193	119900.504006200494	1
2	1195	119900.504006200494	0
2	1199	120107.616937881465	1
2	1204	120332.038923600148	0
2	1207	120799.019593707642	1
2	1212	121303.44484833678	0
2	1219	122049.443053222337	1
2	1221	122049.443053222337	0
2	1227	122434.471157225355	1
2	1229	122434.471157225355	0
2	1235	122450.250084538058	1
2	1243	122726.099116390638	0
2	1268	123722.12380122551	1
2	1270	123722.12380122551	0
2	1277	125081.583150563072	1
2	1279	125081.583150563072	0
2	1302	126528.057421146363	1
2	1304	126528.057421146363	0
2	1335	128830.372111500835	1
2	1337	128830.372111500835	0
2	1340	128938.470556197253	1
2	1345	128980.080450640174	0
2	1365	129581.576547851505	1
2	1370	129940.721982109637	0
2	1376	130458.212761334487	1
2	1378	130458.212761334487	0
2	1390	130592.960019005957	1
2	1398	130850.707116082617	0
2	1436	135050.127532350939	1
2	1438	135050.127532350939	0
2	1453	137841.812061572192	1
2	1455	137841.812061572192	0
2	1461	137986.837221025121	1
2	1463	137986.837221025121	0
2	1475	138462.023699464321	1
2	1480	138725.054647829816	0
2	1496	141351.255012319999	1
2	1498	141351.255012319999	0
2	1501	141902.571068042523	1
2	1506	141962.778671403916	0
2	1513	142896.106242137064	1
2	1515	142896.106242137064	0
2	1526	143363.243705872032	1
2	1531	143534.053077850258	0
2	1546	144285.660280658617	1
2	1551	144383.77759650259	0
2	1568	145892.44253126813	1
2	1571	145951.566830222813	2
2	1576	145972.485044437014	1
2	1581	146019.217756181796	0
2	1597	149686.062805697726	1
2	1599	149686.062805697726	0
2	1614	150805.078099658952	1
2	1616	150805.078099658952	0
2	1635	151409.203373670231	1
2	1641	151724.430685636614	0
2	1644	151772.890360583143	1
2	1649	151790.379785114114	0
2	1663	152839.52843478877	1
2	1669	153255.146169391677	0
2	1689	154809.927833980099	1
2	1691	154809.927833980099	0
2	1703	156066.444949291987	1
2	1708	156086.396155293779	0
2	1731	158285.380467329474	1
2	1733	158285.380467329474	0
2	1741	160581.313228379651	1
2	1743	160581.313228379651	0
2	1758	162901.817211342327	1
2	1760	162901.817211342327	0
2	1784	165600.314231857354	1
2	1786	165600.314231857354	0
2	1800	166002.169676614173	1
2	1802	166002.169676614173	0
2	1805	166170.885222723552	1
2	1810	166266.42506743177	0
2	1817	167349.783134507017	1
2	1819	167349.783134507017	0
2	1859	170683.111916223392	1
2	1861	170683.111916223392	0
2	1876	172482.420228327929	1
2	1878	172482.420228327929	0
2	1886	174143.283132590695	1
2	1888	174143.283132590695	0
2	1903	175537.001841669279	1
2	1905	175537.001841669279	0
2	1916	175679.660755358703	1
2	1919	175922.592748269213	2
2	1924	175987.814710649425	1
2	1929	176034.808066005314	0
2	1936	177101.193486765789	1
2	1938	177101.193486765789	0
2	1941	177158.971488223465	1
2	1946	177183.230860510504	0
2	1997	185824.093679579989	1
2	1999	185824.093679579989	0
2	2014	186356.425478971844	1
2	2016	186356.425478971844	0
2	2022	187186.88509620965	1
2	2024	187186.88509620965	0
2	2039	188310.936192485037	1
2	2041	188310.936192485037	0
2	2048	189106.552207792103	1
2	2050	189106.552207792103	0
2	2072	190331.796191353696	1
2	2074	190331.796191353696	0
2	2081	191372.105545232648	1
2	2083	191372.105545232648	0
2	2103	192609.582461792239	1
2	2108	193093.87436697377	0
2	2112	193723.98747504866	1
2	2117	194299.789310468337	0
2	2121	195120.364067419658	1
2	2126	195764.521054843124	0
2	2157	196539.510478817602	1
2	2159	196539.510478817602	0
2	2174	198726.972286896875	1
2	2176	198726.972286896875	0
2	2179	199035.7172651199	1
2	2182	199066.770174845053	2
2	2187	199337.720600070536	1
2	2193	199735.337898295981	0
2	2235	206356.147010855079	1
2	2237	206356.147010855079	0
2	2244	207321.977410880706	1
2	2246	207321.977410880706	0
2	2252	208198.484256001351	1
2	2254	208198.484256001351	0
2	2279	212231.399466235059	1
2	2281	212231.399466235059	0
2	2284	212266.562662216822	1
2	2289	212502.127583835336	0
2	2296	213235.497752078525	1
2	2298	213235.497752078525	0
2	2309	213533.645255233227	1
2	2314	213579.580829574087	0
2	2334	215367.760698158014	1
2	2339	215830.486553728202	0
2	2346	216666.545815693237	1
2	2348	216666.545815693237	0
2	2363	218412.502260530694	1
2	2365	218412.502260530694	0
2	2371	218522.72944791226	1
2	2373	218522.72944791226	0
2	2380	219404.245249765841	1
2	2382	219404.245249765841	0
2	2398	222187.42815795294	1
2	2400	222187.42815795294	0
2	2414	222616.063076078071	1
2	2416	222616.063076078071	0
2	2430	223180.881735591403	1
2	2432	223180.881735591403	0
2	2448	226023.266038298735	1
2	2450	226023.266038298735	0
2	2465	227246.117539885596	1
2	2467	227246.117539885596	0
2	2498	228237.743191182569	1
2	2500	228237.743191182569	0
2	2541	233345.884318012613	1
2	2543	233345.884318012613	0
2	2550	234040.728019642378	1
2	2552	234040.728019642378	0
2	2576	238141.369317496197	1
2	2578	238141.369317496197	0
2	2581	238302.743196845637	1
2	2586	238389.646544623614	0
2	2593	239954.329554945952	1
2	2595	239954.329554945952	0
2	2605	240470.257525065693	1
2	2610	240577.350683374648	0
2	2613	240611.936859824218	1
2	2619	240853.803640854993	2
2	2624	241066.991968105587	1
2	2629	241348.04525059356	0
2	2638	241792.231165296598	1
2	2643	241836.548881111719	0
2	2646	242014.676414713268	1
2	2651	242190.408081132601	0
2	2667	242506.509387189403	1
2	2673	243148.959130308722	0
2	2684	244121.226465522987	1
2	2686	244121.226465522987	0
2	2726	246908.622396908247	1
2	2728	246908.622396908247	0
2	2742	247454.939108672398	1
2	2748	248204.173501511679	0
2	2756	248347.268776626503	1
2	2761	248371.579010454039	0
2	2777	250771.528081385345	1
2	2779	250771.528081385345	0
2	2786	252083.107597142307	1
2	2788	252083.107597142307	0
2	2791	252386.733246456948	1
2	2796	252426.827260955352	0
2	2811	254032.225752026751	1
2	2813	254032.225752026751	0
2	2858	257850.82293458406	1
2	2862	258181.823468536123	2
2	2867	258321.709625719339	1
2	2872	258438.416029810155	0
2	2887	260072.204928102714	1
2	2889	260072.204928102714	0
2	2895	260531.97722337568	1
2	2897	260531.97722337568	0
2	2904	261480.907867683367	1
2	2906	261480.907867683367	0
2	2912	261613.771611606328	1
2	2914	261613.771611606328	0
2	2939	266580.054961355002	1
2	2941	266580.054961355002	0
2	2947	266806.483043961669	1
2	2949	266806.483043961669	0
2	2981	268903.176043738462	1
2	2983	268903.176043738462	0
2	2989	269823.962235821693	1
2	2991	269823.962235821693	0
2	2997	269902.424512555544	1
2	2999	269902.424512555544	0
2	3002	269974.281934199246	1
2	3011	270302.020598619731	0
2	3040	273624.942173459734	1
2	3042	273624.942173459734	0
2	3045	273674.53469124042	1
2	3050	274040.172438961598	0
2	3074	276496.038776188452	1
2	3076	276496.038776188452	0
2	3097	280478.148906989609	1
2	3103	280539.585637092951	0
2	3135	283728.125559087362	1
2	3137	283728.125559087362	0
2	3154	288477.010051738512	1
2	3156	288477.010051738512	0
2	3163	290614.548958604128	1
2	3165	290614.548958604128	0
2	3181	293568.261781247708	1
2	3183	293568.261781247708	0
2	3195	294230.164134975538	1
2	3198	294312.669690024689	2
2	3203	294494.738550005465	1
2	3211	294939.826221973553	0
2	3231	296431.236587180382	1
2	3233	296431.236587180382	0
2	3248	297864.752863774808	1
2	3250	297864.752863774808	0
2	3253	298109.092553466272	1
2	3259	298700.970380818393	0
2	3265	298862.134942529863	1
2	3267	298862.134942529863	0
2	3270	298938.549818243846	1
2	3275	299338.711035157154	0
2	3315	301657.120475714042	1
2	3317	301657.120475714042	0
2	3320	301826.472828316104	1
2	3325	302134.567357286021	0
2	3332	303031.788827831587	1
2	3334	303031.788827831587	0
2	3340	303468.365434447235	1
2	3345	303636.284799097144	0
2	3370	304510.99587932976	1
2	3375	304527.533185283257	0
2	3381	304947.633236309889	1
2	3383	304947.633236309889	0
2	3397	305696.043377014053	1
2	3399	305696.043377014053	0
2	3417	307058.12631994011	1
2	3423	307283.952743436876	2
2	3428	307369.475375585452	1
2	3434	307556.295552684763	0
2	3442	307722.827418299159	1
2	3447	307734.202760160354	0
2	3480	309966.311807228367	1
2	3482	309966.311807228367	0
2	3509	316592.897281668263	1
2	3511	316592.897281668263	0
2	3517	317451.208443782678	1
2	3519	317451.208443782678	0
2	3525	317896.560223345067	1
2	3531	318164.484526026122	0
2	3542	318602.823909419801	1
2	3544	318602.823909419801	0
2	3550	318827.813363256462	1
2	3552	318827.813363256462	0
2	3585	323616.614283071372	1
2	3587	323616.614283071372	0
2	3593	323871.319195465003	1
2	3595	323871.319195465003	0
2	3598	323969.509340141973	1
2	3604	324178.509440162307	0
2	3627	325929.868477057935	1
2	3629	325929.868477057935	0
2	3654	330911.393236377013	1
2	3656	330911.393236377013	0
2	3667	331054.326933218446	1
2	3672	331348.274770410845	0
2	3679	331882.495844192637	1
2	3681	331882.495844192637	0
2	3687	332366.403643003119	1
2	3689	332366.403643003119	0
2	3700	332875.227201748153	1
2	3705	332973.509675648787	0
2	3709	333078.015173064338	1
2	3714	333177.17282066955	0
2	3717	333282.009570565095	1
2	3720	333883.554549423109	2
2	3728	334263.313809972127	1
2	3734	335031.160681819073	0
2	3753	335713.098257933354	1
2	3755	335713.098257933354	0
2	3770	337038.364346535836	1
2	3772	337038.364346535836	0
2	3778	337475.373445007682	1
2	3780	337475.373445007682	0
2	3792	337717.109144901172	1
2	3809	338752.148426987715	0
2	3837	340538.222209278633	1
2	3842	341093.684723302001	0
2	3855	343599.478544567832	1
2	3857	343599.478544567832	0
2	3872	345138.368226231315	1
2	3874	345138.368226231315	0
2	3913	347226.880505452757	1
2	3915	347226.880505452757	0
2	3932	351960.114725584965	1
2	3934	351960.114725584965	0
2	3941	353449.066085546032	1
2	3943	353449.066085546032	0
2	3965	357689.825572958791	1
2	3970	358074.383336316495	0
2	3973	358319.708653326655	1
2	3979	358774.338715864298	0
2	3994	361335.421054450756	1
2	3996	361335.421054450756	0
2	4002	361495.07765022368	1
2	4004	361495.07765022368	0
2	4019	362620.810494548701	1
2	4021	362620.810494548701	0
2	4054	367186.677427362711	1
2	4056	367186.677427362711	0
2	4073	370906.200760190685	1
2	4075	370906.200760190685	0
2	4090	373038.935992920137	1
2	4092	373038.935992920137	0
2	4108	376275.017476520997	1
2	4110	376275.017476520997	0
2	4117	376544.839406412385	1
2	4119	376544.839406412385	0
2	4125	377126.616912145596	1
2	4127	377126.616912145596	0
2	4139	378073.844761387667	1
2	4144	378096.584702819282	0
2	4147	378249.053374746664	1
2	4150	378334.894662194064	2
2	4155	379235.045442670015	1
2	4160	379481.750077125283	0
2	4201	382526.410274532509	1
2	4203	382526.410274532509	0
2	4214	383323.4456037466	1
2	4222	383422.887604328623	0
2	4244	387913.026580445276	1
2	4246	387913.026580445276	0
2	4253	388937.853538851061	1
2	4255	388937.853538851061	0
2	4269	389615.212076752486	1
2	4271	389615.212076752486	0
2	4278	390310.808238382378	1
2	4280	390310.808238382378	0
2	4294	390641.072847170549	1
2	4296	390641.072847170549	0
2	4302	391171.687882167415	1
2	4307	391284.756939699421	0
2	4324	392109.85470256542	1
2	4327	392267.970406472459	2
2	4332	392530.965525186071	1
2	4337	392556.772980150359	0
2	4340	392889.188655489472	1
2	4348	392952.086251680787	0
2	4352	393157.190570975056	1
2	4357	393324.410813044785	0
2	4377	394684.542835208653	1
2	4379	394684.542835208653	0
2	4390	395816.24815985054	1
2	4399	396924.837985255115	0
2	4410	397010.474452788468	1
2	4412	397010.474452788468	0
2	4457	399395.865430637446	1
2	4462	399705.008831695457	0
2	4478	402579.23272055625	1
2	4480	402579.23272055625	0
2	4483	402606.024759810847	1
2	4488	402686.305236246446	0
2	4495	404241.54281196705	1
2	4497	404241.54281196705	0
2	4503	404590.766913638996	1
2	4505	404590.766913638996	0
2	4512	405744.375995405572	1
2	4514	405744.375995405572	0
2	4520	406124.79127112434	1
2	4522	406124.79127112434	0
2	4536	406462.525264502997	1
2	4538	406462.525264502997	0
2	4550	407450.174863907392	1
2	4555	407904.012478653324	0
2	4562	408115.369339138025	1
2	4567	408137.174829392334	0
2	4570	408398.351696982501	1
2	4578	408692.786679020131	0
2	4612	411139.314730777169	1
2	4614	411139.314730777169	0
2	4648	418051.432876181089	1
2	4650	418051.432876181089	0
2	4656	418389.432965460745	1
2	4658	418389.432965460745	0
2	4673	419357.163711540116	1
2	4678	419551.446596151655	0
2	4690	420019.202089030058	1
2	4692	420019.202089030058	0
2	4724	423898.407778358597	1
2	4726	423898.407778358597	0
2	4733	424589.837991757849	1
2	4735	424589.837991757849	0
2	4755	426130.120760071927	1
2	4760	426278.4537391122	0
2	4763	426446.614521244651	1
2	4768	426517.043527568222	0
2	4775	427552.146040508992	1
2	4777	427552.146040508992	0
2	4791	428613.332939793628	1
2	4796	428670.493795044347	0
2	4799	428691.406293973775	1
2	4805	429352.70907068527	0
2	4834	432264.193551670988	1
2	4836	432264.193551670988	0
2	4851	433704.925482183561	1
2	4853	433704.925482183561	0
2	4859	434142.248445612529	1
2	4861	434142.248445612529	0
2	4864	434400.681077523972	1
2	4869	434598.862798966567	0
2	4876	435039.441961267751	1
2	4881	435256.181331675354	0
2	4906	436666.531333346574	1
2	4911	436820.233717072498	0
2	4917	437113.382824622463	1
2	4919	437113.382824622463	0
2	4951	440889.23638820201	1
2	4953	440889.23638820201	0
2	4957	441307.470886324744	1
2	4962	442041.457693951322	0
2	4985	443883.953634565984	1
2	4987	443883.953634565984	0
2	4994	444714.375239792112	1
2	4996	444714.375239792112	0
2	5039	452155.453041149816	1
2	5041	452155.453041149816	0
2	5047	452655.809661235875	1
2	5049	452655.809661235875	0
2	5056	453930.862006801016	1
2	5058	453930.862006801016	0
2	5073	455241.724750536773	1
2	5075	455241.724750536773	0
2	5081	455735.086723061711	1
2	5083	455735.086723061711	0
2	5098	456726.926633911071	1
2	5100	456726.926633911071	0
2	5106	456759.768036517215	1
2	5108	456759.768036517215	0
2	5147	458859.12337413267	1
2	5149	458859.12337413267	0
2	5156	459218.852585106288	1
2	5161	459543.187338506038	0
2	5164	459666.629455080524	1
2	5169	459807.594974417263	0
2	5181	460607.280944026556	1
2	5186	460674.17979556945	0
2	5203	462235.786623201754	1
2	5211	462988.851741560961	0
2	5232	466239.358249451494	1
2	5234	466239.358249451494	0
2	5249	467850.872866486262	1
2	5251	467850.872866486262	0
2	5258	468832.384556459661	1
2	5260	468832.384556459661	0
2	5267	469763.082772420297	1
2	5269	469763.082772420297	0
2	5291	470720.717844449675	1
2	5293	470720.717844449675	0
2	5313	471639.926699905136	1
2	5318	471782.873497379373	0
2	5324	472455.580435868014	1
2	5326	472455.580435868014	0
2	5342	474989.004669420422	1
2	5344	474989.004669420422	0
2	5361	478806.008949393157	1
2	5363	478806.008949393157	0
2	5378	480245.24389138898	1
2	5380	480245.24389138898	0
2	5395	481555.208512065085	1
2	5397	481555.208512065085	0
2	5408	482748.117527003034	1
2	5413	482759.00563279099	0
2	5420	483486.258289895838	1
2	5422	483486.258289895838	0
2	5434	485195.492620016301	1
2	5437	485204.35501193815	2
2	5440	485217.681190889528	3
2	5448	485354.302383358288	2
2	5451	485372.681813957528	3
2	5454	485506.283044943331	4
2	5457	485575.790437379995	5
2	5460	485623.374799532849	6
2	5468	485814.131096267414	5
2	5473	485835.88926770866	4
2	5479	486163.405336141166	3
2	5484	486241.648715761303	2
2	5489	486365.708077447437	1
2	5494	486370.57913713092	0
2	5561	490951.601960569801	1
2	5563	490951.601960569801	0
2	5578	492243.949997592425	1
2	5580	492243.949997592425	0
2	5611	494833.77886636885	1
2	5613	494833.77886636885	0
2	5631	499881.98403035757	1
2	5633	499881.98403035757	0
2	5640	501078.282846773664	1
2	5642	501078.282846773664	0
2	5648	501672.696663332957	1
2	5650	501672.696663332957	0
2	5665	502639.571516025041	1
2	5667	502639.571516025041	0
2	5701	508549.424777892801	1
2	5703	508549.424777892801	0
2	5709	509113.718906221173	1
2	5711	509113.718906221173	0
2	5717	509497.708909195923	1
2	5719	509497.708909195923	0
2	5725	509867.105765593151	1
2	5727	509867.105765593151	0
2	5731	510035.845251725429	1
2	5739	510581.217357665417	0
2	5759	512711.471349810815	1
2	5761	512711.471349810815	0
2	5768	513279.772277526203	1
2	5770	513279.772277526203	0
2	5792	514222.796580848801	1
2	5794	514222.796580848801	0
2	5797	514269.823207401076	1
2	5805	514429.433038068262	0
2	5846	515978.624759877753	1
2	5852	516132.099229344017	0
2	5859	517584.824394640664	1
2	5861	517584.824394640664	0
2	5875	518007.662449699316	1
2	5877	518007.662449699316	0
2	5880	518059.085346652786	1
2	5883	518083.797988684681	2
2	5888	518200.366875227031	1
2	5894	518668.111499506631	2
2	5902	518707.571780035789	1
2	5907	518914.752912073718	0
2	5934	522055.957656242158	1
2	5936	522055.957656242158	0
2	5942	523230.861339787788	1
2	5944	523230.861339787788	0
2	5956	524039.937636669319	1
2	5964	524146.914753817044	0
2	5976	525205.311728031263	1
2	5978	525205.311728031263	0
2	6001	527143.928414612777	1
2	6003	527143.928414612777	0
2	6018	529122.507165789048	1
2	6020	529122.507165789048	0
2	6023	529358.738089596572	1
2	6029	529572.302920277385	0
2	6032	529888.783125176408	1
2	6037	529943.767600066802	0
2	6043	529980.38430204967	1
2	6045	529980.38430204967	0
2	6082	532854.113350159097	1
2	6085	532912.642491601527	2
2	6090	532925.693796928093	1
2	6095	533292.639050807938	0
2	6106	533807.742788159639	1
2	6112	534440.074495473311	0
2	6127	536129.723942443939	1
2	6129	536129.723942443939	0
2	6143	536742.487306429493	1
2	6145	536742.487306429493	0
2	6161	538703.062071552717	1
2	6163	538703.062071552717	0
2	6166	538776.33418060491	1
2	6171	538850.851337162435	0
2	6185	539713.424839737082	1
2	6187	539713.424839737082	0
2	6219	542997.860463498463	1
2	6221	542997.860463498463	0
2	6247	547794.886980043837	1
2	6249	547794.886980043837	0
2	6268	555059.219600745661	1
2	6270	555059.219600745661	0
2	6276	555129.667241591203	1
2	6278	555129.667241591203	0
2	6303	559602.702608105425	1
2	6305	559602.702608105425	0
2	6320	561641.373983012321	1
2	6322	561641.373983012321	0
2	6338	565007.515229899972	1
2	6340	565007.515229899972	0
2	6355	566629.441428609562	1
2	6357	566629.441428609562	0
2	6372	567718.333005609979	1
2	6374	567718.333005609979	0
2	6377	567857.70301166877	1
2	6382	568053.218577439221	0
2	6389	568981.312448361586	1
2	6391	568981.312448361586	0
2	6430	571116.005757220562	1
2	6432	571116.005757220562	0
2	6448	573130.786326829256	1
2	6450	573130.786326829256	0
2	6457	575081.563536295923	1
2	6459	575081.563536295923	0
2	6465	575652.460083303339	1
2	6467	575652.460083303339	0
2	6474	576885.029861692433	1
2	6476	576885.029861692433	0
2	6497	579175.7448934437	1
2	6502	579436.178449998009	0
2	6508	580064.103851187923	1
2	6510	580064.103851187923	0
2	6533	581088.526968722818	1
2	6535	581088.526968722818	0
2	6546	581197.936500933049	1
2	6549	581372.276421490613	2
2	6554	581441.710588108703	1
2	6559	581908.838157431277	0
2	6563	582104.038366676954	1
2	6566	582107.185068977011	2
2	6571	582611.296963594263	1
2	6576	582653.850513053856	0
2	6583	583703.579454443008	1
2	6585	583703.579454443008	0
2	6599	584566.750905142912	1
2	6607	584685.311896630098	0
2	6618	584758.600183483602	1
2	6623	584948.307301622616	0
2	6666	588486.909400256514	1
2	6668	588486.909400256514	0
2	6700	591831.450006601472	1
2	6702	591831.450006601472	0
2	6714	593623.123440930634	1
2	6720	594134.852593349708	0
2	6737	599021.586634802254	1
2	6739	599021.586634802254	0
2	6742	599133.956013058163	1
2	6747	599454.301636600709	0
2	6759	601392.065335013973	1
2	6763	601617.009744551392	2
2	6768	601722.175354991654	1
2	6773	601901.100420849078	0
2	6776	602116.045360240152	1
2	6781	602188.504490145054	0
2	6804	604032.183371161501	1
2	6806	604032.183371161501	0
2	6812	604413.77834706427	1
2	6814	604413.77834706427	0
2	6821	604553.037386938731	1
2	6823	604553.037386938731	0
2	6854	607054.146307198664	1
2	6856	607054.146307198664	0
2	6871	608646.97135500708	1
2	6873	608646.97135500708	0
2	6908	615434.617322919854	1
2	6910	615434.617322919854	0
2	6917	616917.768809747927	1
2	6919	616917.768809747927	0
2	6922	617112.153069068491	1
2	6927	617464.620172270409	0
2	6942	618474.295686068808	1
2	6944	618474.295686068808	0
2	6950	618790.668240399979	1
2	6952	618790.668240399979	0
2	6959	619690.758698770784	1
2	6961	619690.758698770784	0
2	6967	620337.789811774526	1
2	6969	620337.789811774526	0
2	6992	621158.705959060181	1
2	6994	621158.705959060181	0
2	6997	621338.693131878485	1
2	7005	621518.43545218258	0
2	7033	623723.369217621885	1
2	7035	623723.369217621885	0
2	7042	625110.968563399344	1
2	7044	625110.968563399344	0
2	7088	626869.944707313108	1
2	7093	626971.643431851387	0
2	7100	627877.746467582409	1
2	7102	627877.746467582409	0
2	7108	628028.64681083456	1
2	7110	628028.64681083456	0
2	7125	629871.097404944188	1
2	7127	629871.097404944188	0
2	7151	632280.044573404553	1
2	7153	632280.044573404553	0
2	7165	633158.68735242874	1
2	7170	633372.122103426815	0
2	7194	636658.302452501791	1
2	7196	636658.302452501791	0
2	7199	637063.856658778501	1
2	7204	637090.784215272568	0
2	7215	637244.375030109033	1
2	7221	637589.745440304431	0
2	7244	639536.949908604232	1
2	7246	639536.949908604232	0
2	7253	641452.049890164517	1
2	7255	641452.049890164517	0
2	7262	642559.90537084555	1
2	7264	642559.90537084555	0
2	7267	642590.101054051389	1
2	7272	642798.839593830447	0
2	7275	642868.540270531732	1
2	7280	643026.892315828342	0
2	7312	646167.596232418535	1
2	7317	646318.353529574108	0
2	7346	648903.770998548873	1
2	7348	648903.770998548873	0
2	7365	652778.365320618743	1
2	7367	652778.365320618743	0
2	7373	653047.085507593989	1
2	7375	653047.085507593989	0
2	7381	653796.736585020835	1
2	7383	653796.736585020835	0
2	7406	655272.888829252348	1
2	7408	655272.888829252348	0
2	7423	656974.850688683941	1
2	7425	656974.850688683941	0
2	7441	658727.379401830834	1
2	7443	658727.379401830834	0
2	7457	659247.384352791811	1
2	7459	659247.384352791811	0
2	7474	661003.524457878038	1
2	7476	661003.524457878038	0
2	7484	663128.213259341059	1
2	7486	663128.213259341059	0
2	7489	663284.20260781232	1
2	7497	663680.285405414961	0
2	7508	664070.630691077874	1
2	7510	664070.630691077874	0
2	7525	664739.99530211966	1
2	7527	664739.99530211966	0
2	7533	665212.759067924114	1
2	7535	665212.759067924114	0
2	7549	665961.282313174744	1
2	7551	665961.282313174744	0
2	7563	666208.999275916653	1
2	7568	666950.192794838196	0
2	7583	668128.243496138733	1
2	7585	668128.243496138733	0
2	7616	670467.66114086116	1
2	7618	670467.66114086116	0
2	7630	671135.633821853626	1
2	7635	671312.127848731117	0
2	7655	672525.630329487685	1
2	7660	672664.191588172455	0
2	7683	674770.306137221948	1
2	7685	674770.306137221948	0
2	7692	675135.941309403823	1
2	7694	675135.941309403823	0
2	7708	676401.386328991082	1
2	7710	676401.386328991082	0
2	7717	677186.485426015592	1
2	7719	677186.485426015592	0
2	7726	678407.198104420344	1
2	7728	678407.198104420344	0
2	7760	681711.245504929803	1
2	7762	681711.245504929803	0
2	7778	684322.228609197238	1
2	7780	684322.228609197238	0
2	7803	686888.779893506836	1
2	7805	686888.779893506836	0
2	7812	687076.500903683879	1
2	7814	687076.500903683879	0
2	7817	687131.800440966165	1
2	7822	687210.683037127295	0
2	7828	688110.637312820355	1
2	7830	688110.637312820355	0
2	7833	688188.646201090029	1
2	7838	688210.4098133214	0
2	7841	688220.470903305412	1
2	7847	688527.447486349316	0
2	7858	689349.495381752227	1
2	7863	689539.691697484164	0
2	7870	690490.278708704894	1
2	7872	690490.278708704894	0
2	7891	691479.600933524637	1
2	7895	691528.431082443867	2
2	7900	691663.009112152527	1
2	7905	691870.328660543646	0
2	7911	692292.810959430185	1
2	7919	692620.995858262839	0
2	7958	694609.603497646242	1
2	7963	694847.613927653875	0
2	7994	696102.538207677341	1
2	7999	696699.030893429394	0
2	8011	697606.481065091815	1
2	8013	697606.481065091815	0
2	8028	700331.316948073149	1
2	8030	700331.316948073149	0
2	8037	700714.338378433924	1
2	8039	700714.338378433924	0
2	8045	701116.753312104833	1
2	8047	701116.753312104833	0
2	8062	702092.399865886049	1
2	8067	702123.691706101581	0
2	8086	703180.467226651871	1
2	8088	703180.467226651871	0
2	8113	707198.219200141477	1
2	8115	707198.219200141477	0
2	8121	707707.017772077523	1
2	8123	707707.017772077523	0
2	8138	709273.249541346634	1
2	8140	709273.249541346634	0
2	8147	709633.178864899621	1
2	8152	709763.313884856748	0
2	8172	712056.326780270215	1
2	8174	712056.326780270215	0
2	8198	714263.58248512114	1
2	8200	714263.58248512114	0
2	8206	715416.492183166463	1
2	8208	715416.492183166463	0
2	8215	716032.83617371076	1
2	8217	716032.83617371076	0
2	8228	716499.683737484223	1
2	8233	716777.88228754849	0
2	8263	720918.776468629718	1
2	8271	721354.713824595618	0
2	8283	721915.834028558558	1
2	8285	721915.834028558558	0
2	8301	725200.870914932659	1
2	8303	725200.870914932659	0
2	8310	726196.946770684366	1
2	8312	726196.946770684366	0
2	8315	726273.591420488968	1
2	8318	726547.76774387626	2
2	8323	726600.365746007914	1
2	8328	726674.387122011274	0
2	8351	728123.280051818818	1
2	8356	728225.677722504795	0
2	8359	728378.309161588918	1
2	8364	728423.051987875239	0
2	8401	730600.524379235965	1
2	8403	730600.524379235965	0
2	8417	731854.374021330714	1
2	8419	731854.374021330714	0
2	8434	733398.714445859955	1
2	8436	733398.714445859955	0
2	8444	735056.560303066576	1
2	8446	735056.560303066576	0
2	8449	735149.013308406177	1
2	8454	735703.888723262262	0
2	8474	737791.17932445803	1
2	8479	737945.256590610387	0
2	8482	737947.798844624254	1
2	8488	738265.417372210564	0
2	8526	743722.089319953274	1
2	8531	743799.073846460418	0
2	8538	744253.862216439352	1
2	8540	744253.862216439352	0
2	8565	749351.833556642578	1
2	8567	749351.833556642578	0
2	8570	749610.406374146634	1
2	8575	749759.828271664007	0
2	8582	751109.325940668804	1
2	8584	751109.325940668804	0
2	8591	751738.190645547177	1
2	8593	751738.190645547177	0
2	8633	755045.079602154871	1
2	8635	755045.079602154871	0
2	8651	757577.745853841264	1
2	8653	757577.745853841264	0
2	8661	760997.78033263117	1
2	8663	760997.78033263117	0
2	8678	763059.271739852921	1
2	8680	763059.271739852921	0
2	8687	763831.070592960188	1
2	8689	763831.070592960188	0
2	8722	769015.134571087578	1
2	8724	769015.134571087578	0
2	8736	769522.334853360608	1
2	8741	770078.198058875641	0
2	8744	770135.671593959712	1
2	8749	770138.274114230274	0
2	8761	771132.92634943122	1
2	8766	771419.359136623497	0
2	8769	771755.618320435762	1
2	8774	771924.163996438237	0
2	8798	774243.985709147759	1
2	8800	774243.985709147759	0
2	8813	778054.136708663232	1
2	8818	778361.079036517446	0
2	8822	778563.200663893297	1
2	8827	778620.164768121619	0
2	8850	780412.509184986581	1
2	8852	780412.509184986581	0
2	8858	781420.091492828773	1
2	8860	781420.091492828773	0
2	8885	784864.661452467488	1
2	8887	784864.661452467488	0
2	8893	785120.036433873267	1
2	8895	785120.036433873267	0
2	8899	786240.940506917579	1
2	8902	786244.130336397091	2
2	8905	786377.611645605387	3
2	8910	786572.339997429318	2
2	8918	787020.088660436589	1
2	8927	787558.722867371384	0
2	8935	787748.220881798498	1
2	8940	787806.894568683935	0
2	8976	790397.519453296127	1
2	8978	790397.519453296127	0
2	8982	790697.259555075325	1
2	8987	790835.827922256383	0
2	9022	798202.211366882981	1
2	9024	798202.211366882981	0
2	9050	804285.453548111843	1
2	9052	804285.453548111843	0
2	9068	807302.312291589852	1
2	9070	807302.312291589852	0
2	9077	808913.060674995915	1
2	9079	808913.060674995915	0
2	9105	815513.091464701651	1
2	9107	815513.091464701651	0
2	9124	819868.1828419109	1
2	9126	819868.1828419109	0
2	9133	820887.356425246199	1
2	9135	820887.356425246199	0
2	9151	824255.803315846866	1
2	9153	824255.803315846866	0
2	9159	824994.934805478745	1
2	9161	824994.934805478745	0
2	9169	826612.802780423089	1
2	9171	826612.802780423089	0
2	9177	827614.97994218195	1
2	9179	827614.97994218195	0
2	9191	828749.513784242292	1
2	9199	829222.400049893842	0
2	9233	831476.024340800986	1
2	9238	831952.376772500343	0
2	9245	832617.98322295053	1
2	9247	832617.98322295053	0
2	9262	834698.516702302002	1
2	9264	834698.516702302002	0
2	9287	836186.952110178269	1
2	9289	836186.952110178269	0
2	9297	838834.249581177485	1
2	9299	838834.249581177485	0
2	9331	842107.891034924146	1
2	9333	842107.891034924146	0
2	9339	842857.214775904145	1
2	9341	842857.214775904145	0
2	9369	851457.170633431367	1
2	9371	851457.170633431367	0
2	9375	852308.759817566346	1
2	9380	852493.096109876976	0
2	9386	852832.397343820304	1
2	9388	852832.397343820304	0
2	9401	856306.513585185111	1
2	9410	856567.224968790258	0
2	9421	857678.695266850648	1
2	9423	857678.695266850648	0
2	9426	857679.747820550124	1
2	9432	858463.146700946716	0
2	9435	858594.477140047103	1
2	9440	858825.26732029895	0
2	9464	861130.409787752974	1
2	9466	861130.409787752974	0
2	9493	862466.383650826238	1
2	9499	862668.328251598823	0
2	9522	865058.443591212676	1
2	9524	865058.443591212676	0
2	9539	866498.202403974643	1
2	9541	866498.202403974643	0
2	9544	866593.866235916043	1
2	9549	866664.973834831093	0
2	9574	871100.658564353641	1
2	9576	871100.658564353641	0
2	9583	872005.054841809297	1
2	9585	872005.054841809297	0
2	9605	873210.503370354534	1
2	9608	873398.705149908379	2
2	9613	873896.592820777023	1
2	9618	874225.049879733671	0
2	9630	874722.407054016924	1
2	9635	874729.658126595627	0
2	9641	875511.067682554851	1
2	9643	875511.067682554851	0
2	9680	885915.667145147047	1
2	9682	885915.667145147047	0
2	9698	888320.26774583467	1
2	9700	888320.26774583467	0
2	9714	889345.900489026748	1
2	9716	889345.900489026748	0
2	9723	890632.164919297182	1
2	9725	890632.164919297182	0
2	9741	893094.434019236941	1
2	9743	893094.434019236941	0
2	9750	894049.46016458128	1
2	9752	894049.46016458128	0
2	9766	895257.698773552792	1
2	9768	895257.698773552792	0
2	9771	895461.894512998422	1
2	9777	895942.588916452055	0
2	9783	896383.561403738338	1
2	9785	896383.561403738338	0
2	9826	900302.013492845305	1
2	9828	900302.013492845305	0
2	9843	902908.2236367662	1
2	9845	902908.2236367662	0
2	9853	905532.827440516563	1
2	9855	905532.827440516563	0
2	9878	906266.653407142678	1
2	9880	906266.653407142678	0
2	9886	907411.062779087053	1
2	9888	907411.062779087053	0
2	9895	908344.054496541988	1
2	9897	908344.054496541988	0
2	9903	908617.55095796055	1
2	9905	908617.55095796055	0
2	9920	909277.464355604738	1
2	9922	909277.464355604738	0
2	9962	912312.228505721862	1
2	9964	912312.228505721862	0
2	9967	912379.17740205948	1
2	9972	912467.150022229476	0
2	9983	912923.615709913703	1
2	9988	913186.213517122147	0
2	10000	913726.56602038649	1
2	10008	913923.989008535152	0
2	10028	916231.078005837245	1
2	10030	916231.078005837245	0
2	10037	916997.384741931447	1
2	10039	916997.384741931447	0
2	10053	917870.153891109808	1
2	10055	917870.153891109808	0
2	10065	918576.109091205332	1
2	10069	919610.89002086648	2
2	10074	919736.480523613314	1
2	10079	919929.422052124784	0
2	10122	924946.412607790772	1
2	10124	924946.412607790772	0
2	10140	927230.295043370233	1
2	10142	927230.295043370233	0
2	10148	928089.261194495958	1
2	10150	928089.261194495958	0
2	10175	932181.998022698485	1
2	10177	932181.998022698485	0
2	10192	933380.272097129093	1
2	10194	933380.272097129093	0
2	10201	935497.498416623151	1
2	10203	935497.498416623151	0
2	10230	942816.613211834901	1
2	10232	942816.613211834901	0
2	10243	943405.383942007065	1
2	10248	943422.105774360178	0
2	10264	946192.323739538594	1
2	10266	946192.323739538594	0
2	10269	946255.817253792411	1
2	10273	946656.710606719727	2
2	10278	947019.08218285152	1
2	10283	947524.532281833687	0
3	825	80567.177889380387	0
3	834	81183.092789873819	0
3	851	83829.251958336734	0
3	879	88540.270378021879	0
3	904	91470.290024967113	4.4726654009
3	913	91759.817084686886	0
3	943	101228.197390946951	0
3	987	103339.386453438743	1525.1268182857
3	996	103663.055894616709	1634.2353133294
3	1004	103948.262920542219	493.87258421205
3	1009	104184.695259939588	473.29409688268
3	1017	104411.490907782278	0
3	1025	104721.886380044759	0
3	1060	108386.079123513246	0
3	1084	109398.512635543868	310.62424067577
3	1102	111520.997600568281	0
3	1120	114384.758539776189	0
3	1137	115749.172495383461	0
3	1145	116443.73273779403	0
3	1162	117215.978887924795	0
3	1170	118053.069258752082	0
3	1178	118256.110325460153	0
3	1248	122763.451501165764	313.38674484286
3	1257	123100.042107446327	508.28718982389
3	1262	123139.55192730023	202.57504720044
3	1287	125372.945090242443	0
3	1295	125819.343183707065	0
3	1312	127042.496679608086	0
3	1321	127904.484387783444	298.68773264006
3	1329	128232.462716729228	140.35128398974
3	1354	129309.285536078646	279.73052013007
3	1362	129498.811437823016	0
3	1387	130520.128167941896	39.010508864961
3	1403	131071.107095948033	287.98591291808
3	1411	131767.808508775615	0
3	1420	132911.486207942851	0
3	1428	133482.829757081923	0
3	1446	136314.478305580498	0
3	1472	138423.468243548521	371.97893486241
3	1489	140278.318687252347	0
3	1523	143274.590568408161	0
3	1539	143866.510959073229	295.4181481181
3	1556	144513.525603040794	259.00106494409
3	1565	145830.004006300862	0
3	1590	147400.156010738629	0
3	1607	149829.472117450072	0
3	1624	150958.791507336145	0
3	1632	151347.287758968618	0
3	1657	152351.995802720185	0
3	1674	153495.988985526946	851.41268843613
3	1682	154412.176104878086	878.04499453339
3	1699	155913.199076676227	0
3	1716	157434.678461008828	0
3	1725	158111.236102584104	0
3	1751	160835.54938109518	72.550345836117
3	1768	163125.843245345988	13.865199506641
3	1777	163699.02546915055	0
3	1794	165830.056006641529	0
3	1828	168121.356299929952	0
3	1836	169017.54167524232	0
3	1844	169305.857033044968	2.972299017858
3	1853	169511.578759616231	0
3	1870	171128.757934906139	0
3	1896	175166.164519463142	0
3	1913	175593.056354335177	0
3	1954	177709.092576518419	0
3	1965	178164.415855550867	346.50071208715
3	1970	178462.622310553562	323.97407522026
3	1979	179481.43088540242	0
3	1987	179543.700483270892	42.719648138095
3	2008	186295.736731115585	0
3	2033	187896.38887137189	0
3	2058	189629.800859439864	0
3	2066	190023.452929175503	0
3	2092	192192.708927194615	0
3	2100	192529.760889557131	0
3	2134	195976.428843039916	0
3	2142	196211.739285231588	170.30146549011
3	2150	196446.585631256903	84.643176620071
3	2167	197259.133530531408	0
3	2201	200968.21584848808	0
3	2210	201088.957375386538	9.400281387885
3	2220	204300.511241937076	0
3	2228	205030.603951959042	0
3	2262	208259.96394686088	0
3	2271	208907.115055867661	622.86681014357
3	2306	213467.050717306428	75.92651306083
3	2323	214742.299560696187	0
3	2331	215257.252392422377	0
3	2357	217695.517484296751	0
3	2391	220625.722386291404	0
3	2408	222513.679236763886	0
3	2424	222865.486256610588	151.62792780761
3	2441	224054.523200432579	0
3	2459	226688.130159465394	0
3	2475	227647.180894190738	0
3	2483	227687.7004854497	0
3	2491	227748.821727719634	0
3	2508	228482.613053848048	0
3	2516	228845.591224733627	0
3	2525	230043.158861685704	0
3	2533	230378.241073753101	243.61097058651
3	2560	235441.351127072592	0
3	2569	235871.45841388302	119.80440831333
3	2635	241654.163896371724	1691.924221738
3	2656	242231.326693006806	1771.8723493029
3	2661	242310.120867793611	1574.4293150054
3	2678	243476.661621615352	1119.4751979078
3	2694	244368.037597162507	71.273029222293
3	2702	244446.679018478322	3.713478474897
[...]
7	4415	397076.900377869761	5
7	4417	397155.937517668711	4
7	4422	397194.712249178359	3
7	4434	397721.410183952218	2
7	4442	397776.316699596842	1
7	4451	399084.020819723288	0
7	4465	399823.631697461109	1
7	4467	399913.405668861078	0
7	4486	402686.305236246446	1
7	4491	402904.262277893674	2
7	4500	404532.757935664206	3
7	4508	404761.691964821506	4
7	4517	405876.421944511727	5
7	4524	406256.027638897498	4
7	4528	406395.658008634791	5
7	4542	406573.462894552001	6
7	4544	407287.305325885782	5
7	4557	407964.878630934824	4
7	4565	408137.174829392334	5
7	4572	408612.239710668745	4
7	4576	408692.786679020131	5
7	4581	408800.95203627907	6
7	4591	409739.797181051876	5
7	4599	409833.62843409539	4
7	4616	411257.943916621695	3
7	4620	411345.46300961511	4
7	4627	412155.165404342178	3
7	4633	412609.433902413861	2
7	4653	418360.932808209636	3
7	4661	418530.346239809698	2
7	4665	418609.203731993036	3
7	4669	419116.306264551454	2
7	4681	419901.798221720097	3
7	4695	420707.937716740615	4
7	4697	420708.449496167109	3
7	4702	421112.5183696442	2
7	4714	422230.560766322499	1
7	4729	424262.933991674313	2
7	4738	424632.854853038064	3
7	4740	424769.956753637323	2
7	4749	426018.161722503748	1
7	4766	426517.043527568222	2
7	4771	426917.994837696676	3
7	4780	427909.954385511151	4
7	4782	428454.32385343205	3
7	4787	428612.582253115321	2
7	4803	429352.70907068527	3
7	4808	429362.676495391398	4
7	4816	430560.766799228018	3
7	4821	431070.341220859431	2
7	4839	432611.34940152512	3
7	4841	432795.343397416487	2
7	4856	433714.423930321204	3
7	4867	434598.862798966567	4
7	4871	434818.787744888236	3
7	4879	435256.181331675354	4
7	4884	435601.700965224556	5
7	4891	436138.714665013565	4
7	4896	436296.817842783077	3
7	4914	437025.524467646098	4
7	4922	437307.674251874595	5
7	4924	437760.890811472796	4
7	4933	438756.061884164774	3
7	4941	439474.172322919664	2
7	4960	442041.457693951322	3
7	4965	442354.352566689512	4
7	4968	442683.017135265167	3
7	4976	443093.861825013598	2
7	4991	444529.572147661267	3
7	4999	445188.50907061067	4
7	5002	445534.416461869012	3
7	5010	445791.248684616779	2
7	5018	446732.486813820839	1
7	5027	448320.189206870582	0
7	5044	452297.131556182644	1
7	5052	452725.664593969878	2
7	5060	454180.17841336736	1
7	5064	454433.428703352127	2
7	5078	455340.040718561875	3
7	5086	455970.442332313553	4
7	5089	456560.823610930929	3
7	5103	456755.369484623663	4
7	5110	456946.874592608735	3
7	5114	456991.423767057145	4
7	5121	457435.714304068189	3
7	5126	457451.64312964377	2
7	5138	458103.488318266952	1
7	5151	458956.418764291982	0
7	5159	459543.187338506038	1
7	5167	459807.594974417263	2
7	5172	460077.727201234167	3
7	5176	460444.415226058396	2
7	5188	460919.299965173151	1
7	5192	461049.935409434212	2
7	5205	462527.08334242752	1
7	5214	463350.309372622176	2
7	5222	464183.491359328047	1
7	5237	466319.29354242613	2
7	5240	467217.178927130075	1
7	5255	468183.944536382282	2
7	5263	468899.690708112679	3
7	5272	469776.415128562724	4
7	5274	469964.336523130414	3
7	5282	470485.190393232472	2
7	5296	470835.729824213183	3
7	5299	471077.638200260277	2
7	5307	471555.545249507395	1
7	5321	472014.054687354853	2
7	5330	473077.960368209344	3
7	5332	473265.549096880115	2
7	5347	475063.771038720997	3
7	5349	475386.906599464896	2
7	5365	479279.392606693265	1
7	5369	479625.195122889535	2
7	5383	480844.403724576857	3
7	5385	480860.94233508072	2
7	5400	481858.048331177715	3
7	5402	482464.507001026254	2
7	5416	482863.622451711929	3
7	5425	483506.447811442101	4
7	5428	485071.131081245806	3
7	5442	485329.999359361251	2
7	5462	485789.319668086317	1
7	5466	485814.131096267414	2
7	5471	485835.88926770866	3
7	5477	486163.405336141166	4
7	5482	486241.648715761303	5
7	5487	486365.708077447437	6
7	5492	486370.57913713092	7
7	5497	486521.959899488208	8
7	5510	487937.260067270151	7
7	5515	488057.833869755499	6
7	5518	488294.557049917913	5
7	5535	489547.376370035634	4
7	5540	490005.904259060994	3
7	5552	490502.896245489136	2
7	5566	491001.266045290695	3
7	5568	491775.206362629594	2
7	5582	492316.502721727299	1
7	5585	492681.941772122751	0
7	5589	492766.621987412713	1
7	5602	493687.908953554528	0
7	5616	494843.207581092919	1
7	5620	497720.447899510915	0
7	5636	500116.72883629979	1
7	5645	501377.02346916955	2
7	5652	501677.810395774161	1
7	5656	501891.307745253719	2
7	5670	502723.158407054152	3
7	5672	502740.270711821641	2
7	5677	503045.250265179653	1
7	5680	503087.662033140967	0
7	5706	508826.85198633875	1
7	5714	509365.230155401723	2
7	5722	509598.649401814744	3
7	5733	510178.158996173038	2
7	5737	510581.217357665417	3
7	5742	511185.580281987506	4
7	5750	512390.97971078813	3
7	5765	513082.141128605386	4
7	5772	513337.251908121979	3
7	5775	513652.523895629369	2
7	5779	513755.560580803095	3
7	5799	514388.174485225877	2
7	5803	514429.433038068262	3
7	5808	514452.608532591662	4
7	5813	514582.433021552343	3
7	5816	514639.849969650839	2
7	5832	515753.112338517612	1
7	5840	515940.075419232596	0
7	5855	516464.357735514417	1
7	5863	517880.915712352593	0
7	5867	517903.90051194783	1
7	5886	518200.366875227031	2
7	5890	518479.581832566935	1
7	5896	518698.791863625372	0
7	5900	518707.571780035789	1
7	5905	518914.752912073718	2
7	5910	518924.125318289077	3
7	5923	520334.791848146606	2
7	5939	522174.711227816506	3
7	5947	523232.67895450888	4
7	5950	523819.02090164651	3
7	5958	524123.75496236146	2
7	5967	524178.365618126651	3
7	5980	525458.513530487217	2
7	5983	525831.993166944466	1
7	5987	525940.631065179123	2
7	6006	527339.214869402625	3
7	6008	527714.60173502589	2
7	6027	529572.302920277385	3
7	6035	529943.767600066802	4
7	6040	529957.799756281879	5
7	6048	530038.921936698086	6
7	6050	530044.438360387425	5
7	6059	531821.661925673132	4
7	6067	532109.411566661401	3
7	6073	532565.263616027015	2
7	6093	533292.639050807938	3
7	6098	533322.012442512385	4
7	6100	533716.344500522929	3
7	6115	534551.644992243178	4
7	6118	535564.94063368625	3
7	6132	536281.76608944407	4
7	6134	536657.086794833265	3
7	6148	536903.754105239553	4
7	6151	538441.273528129445	3
7	6169	538850.851337162435	4
7	6173	538869.318118291162	3
7	6177	539135.411916475117	4
7	6190	539774.727058246901	5
7	6193	540105.677172182408	4
7	6201	540640.513136362516	3
7	6210	541523.745011108952	2
7	6225	543385.779320152419	3
7	6227	543411.228223020315	2
7	6236	544994.092115789075	1
7	6252	547863.185407667844	2
7	6256	550702.75414778151	1
7	6273	555103.797934111208	2
7	6281	555350.469320143221	3
7	6284	557467.697214435281	2
7	6289	557674.197441333048	1
7	6308	559732.668795870437	2
7	6311	561081.599947495017	1
7	6325	561749.992578777621	2
7	6328	562835.990254602669	1
7	6343	565049.996877459326	2
7	6345	565441.89806635768	1
7	6361	567057.142977232722	2
7	6363	567057.879448395423	1
7	6380	568053.218577439221	2
7	6385	568412.948543226879	3
7	6394	569178.296833796379	4
7	6396	569762.954056747166	3
7	6404	569946.858541605001	2
7	6409	569987.822957436201	1
7	6413	570425.851013920864	0
7	6435	571169.412009470538	1
7	6437	571201.806579137968	0
7	6453	573493.50853114121	1
7	6462	575229.735309398745	2
7	6471	576745.6772545874	3
7	6479	577101.755581989583	4
7	6482	577532.270149262621	3
7	6490	578970.485442437648	2
7	6505	579986.196093147798	3
7	6513	580226.723135787499	4
7	6516	580553.505767601995	3
7	6524	580829.886523909495	2
7	6537	581186.252437165576	1
7	6541	581194.48109998487	2
7	6557	581908.838157431277	3
7	6569	582611.296963594263	4
7	6574	582653.850513053856	5
7	6579	582978.166469870255	6
7	6588	584202.582175504574	7
7	6590	584482.093730037475	6
7	6595	584500.710694136553	5
7	6601	584601.607999046604	4
7	6610	584693.759370133946	5
7	6614	584695.277709075068	4
7	6626	585570.433293446179	3
7	6630	585614.55198196364	4
7	6647	586058.795747375302	3
7	6656	587422.373833597449	2
7	6671	588567.329591730904	3
7	6673	588682.829153207352	2
7	6678	589227.883422264952	1
7	6690	590370.561526542582	0
7	6705	591974.26118046498	1
7	6708	593425.247832040091	0
7	6723	594299.374387038404	1
7	6726	595993.968327976547	0
7	6745	599454.301636600709	1
7	6751	600583.290898515482	2
7	6753	600779.294403180775	1
7	6771	601901.100420849078	2
7	6779	602188.504490145054	3
7	6784	602436.366548447606	4
7	6786	602469.892577006673	3
7	6791	602721.95498071535	2
7	6809	604272.124173177654	3
7	6818	604531.617273098902	4
7	6825	604744.002651391668	3
7	6828	604752.447284263244	2
7	6832	605099.140312043143	3
7	6841	605345.317380576673	2
7	6859	607089.028910534957	3
7	6861	607128.813793901477	2
7	6876	608867.716466183341	3
7	6878	608969.338895285078	2
7	6887	610132.977354821883	1
7	6896	611195.240484315621	0
7	6913	615776.277612929687	1
7	6925	617464.620172270409	2
7	6930	617722.060744389764	3
7	6932	617722.361278118218	2
7	6947	618601.02883251348	3
7	6955	618831.381393172154	4
7	6964	620127.837321283716	5
7	6971	620475.028206735541	4
7	6974	620491.17166565925	3
7	6978	620987.42304083569	4
7	6999	621505.189857316059	3
7	7003	621518.43545218258	4
7	7008	621575.724832707881	5
7	7012	621812.606427511353	4
7	7021	622971.250486365826	3
7	7039	624093.763607198394	4
7	7046	625156.051791331496	3
7	7050	625338.95259659592	4
7	7054	625431.090080314642	3
7	7066	625792.039437840436	2
7	7074	626577.387324324599	1
7	7079	626655.689348469436	0
7	7097	627322.850653637477	1
7	7105	627961.818200604472	2
7	7113	628263.785362106569	3
7	7116	629223.903044696589	2
7	7131	630158.603739453877	3
7	7133	630883.150021687007	2
7	7142	631637.39426863612	1
7	7156	632720.714238008581	2
7	7158	632913.036707833196	1
7	7173	633531.966289015049	2
7	7175	634433.606992019916	1
7	7184	635497.232182402023	0
7	7202	637090.784215272568	1
7	7207	637168.788874196881	2
7	7209	637183.759514568134	1
7	7223	637617.872275909727	0
7	7227	637632.621587841537	1
7	7234	637856.300477462282	0
7	7249	639772.081114529111	1
7	7258	641803.461683701843	2
7	7270	642798.839593830447	3
7	7278	643026.892315828342	4
7	7283	643057.995651715689	5
7	7286	643961.058124352567	4
7	7294	644351.253876959948	3
7	7303	645823.661963893747	2
7	7308	645864.382670645677	1
7	7321	646658.165491269301	2
7	7328	647103.823128431063	1
7	7333	647287.227086454723	0
7	7351	649216.836529898992	1
7	7353	649353.367900533088	0
7	7370	652920.544744193949	1
7	7378	653708.750923961767	2
7	7386	654092.199655539589	1
7	7390	654655.360633701204	2
7	7394	654695.505632625341	1
7	7411	655374.382356199088	2
7	7414	656698.692326496168	1
7	7429	657420.645125140718	2
7	7431	658486.151511243012	1
7	7445	658798.435793026093	0
7	7449	658805.161042134254	1
7	7462	659296.073651239132	2
7	7464	659430.366561944779	1
7	7479	661214.217319966686	2
7	7491	663385.88280229229	1
7	7495	663680.285405414961	2
7	7500	663704.166089181769	3
7	7513	664464.361640651745	4
7	7516	664551.73863003982	3
7	7530	665000.693731460028	4
7	7538	665568.616297139013	5
7	7540	665697.07886059789	4
7	7554	666015.986368061478	3
7	7558	666162.725948928392	4
7	7571	667044.515711621998	5
7	7573	667271.322988770312	4
7	7588	668247.090441016309	5
7	7590	668371.544062339695	4
7	7599	669001.936182962716	3
7	7607	669756.184738706769	2
7	7622	670638.639344654449	3
7	7624	671053.02671600516	2
7	7638	671555.449179718111	3
7	7640	671749.722837234918	2
7	7645	671907.65162600352	1
7	7663	673149.18377416233	2
7	7666	673677.301420100401	1
7	7671	673692.723314054678	0
7	7688	674924.658150193339	1
7	7697	675162.575110667332	2
7	7699	675952.983417977536	1
7	7713	676413.507076782658	2
7	7722	677322.761934159903	3
7	7731	678436.581629301209	4
7	7733	678643.884189659204	3
7	7741	679126.938312115903	2
7	7750	680494.005312833742	1
7	7765	681993.108251459263	2
7	7768	682542.969650751911	1
7	7782	684339.096014051592	0
7	7786	684488.776426595508	1
7	7793	684905.132030550069	0
7	7808	686899.504448156605	1
7	7820	687210.683037127295	2
7	7825	687424.405115538849	3
7	7836	688210.4098133214	4
7	7845	688527.447486349316	5
7	7850	688814.730973604388	6
7	7852	689226.721105343756	5
7	7866	689749.792474423994	6
7	7875	690510.039707180921	7
7	7877	691261.371598773719	6
7	7885	691443.776354910402	5
7	7903	691870.328660543646	6
7	7907	692059.231131627063	5
7	7913	692501.089199558483	4
7	7917	692620.995858262839	5
7	7922	692715.75784294073	6
7	7926	692887.240994185329	5
7	7929	692949.190836524731	4
7	7952	694543.616225932488	3
7	7965	694899.0111590479	2
7	7969	695023.019500516679	3
7	7973	695067.400238331088	2
7	7976	695368.550606380441	1
7	7984	695889.315122225476	0
7	8002	697482.351286629864	1
7	8016	697915.121180074468	2
7	8019	699173.678570186717	1
7	8033	700485.902611019047	2
7	8042	700757.076160390466	3
7	8049	701280.102948715954	2
7	8052	701615.101805893165	1
7	8056	701796.0560291632	2
7	8070	702172.064844655887	3
7	8077	702504.445446567318	2
7	8091	703256.64771681147	3
7	8094	704477.544848215994	2
7	8103	706425.826730658276	1
7	8118	707393.550527247172	2
7	8126	707863.680650565947	3
7	8129	708661.963548334202	2
7	8142	709482.370417888451	1
7	8150	709763.313884856748	2
7	8155	710153.134029582858	3
7	8163	711960.708575357338	2
7	8177	712075.729841526055	3
7	8180	713476.12586551102	2
7	8188	713685.033013664661	1
7	8203	714368.847482258302	2
7	8212	715943.398384383426	3
7	8219	716084.101728392493	2
7	8223	716109.915358616142	3
7	8237	717583.241245733783	4
7	8239	717836.297246524977	3
7	8247	718483.165847757304	2
7	8257	720770.365793152644	1
7	8265	721237.684433505536	0
7	8274	721420.734199073409	1
7	8288	721934.443954700335	2
7	8291	723056.499710666206	1
7	8306	725513.935070330192	2
7	8321	726600.365746007914	3
7	8326	726674.387122011274	4
7	8331	726744.70055347426	5
7	8333	726938.259408056017	4
7	8341	727447.528746889475	3
7	8347	727634.629646189607	2
7	8362	728423.051987875239	3
7	8367	728520.779870377578	4
7	8371	728618.971588374806	3
7	8375	729242.189796492827	2
7	8378	729284.521151700669	1
7	8406	730843.870282834864	2
7	8408	731420.235596470808	1
7	8422	732747.753283174405	0
7	8426	732861.875485188639	1
7	8440	733663.033744302824	2
7	8452	735703.888723262262	3
7	8457	735875.973883161193	4
7	8459	736427.988917893942	3
7	8468	737621.346537219185	2
7	8486	738265.417372210564	3
7	8490	738514.56601881042	2
7	8494	739183.966699214419	3
7	8502	740756.559576421748	2
7	8507	740855.270347345106	1
7	8520	743606.8673583876	0
7	8535	744030.510919826489	1
7	8543	744709.435976294158	2
7	8545	744718.051750126644	1
7	8553	745095.480694695054	0
7	8573	749759.828271664007	1
7	8578	749995.419786750165	2
7	8587	751236.337442088197	3
7	8596	751820.002149729486	4
7	8598	751902.057244081979	3
7	8603	752294.31955862373	2
7	8611	752754.106233790284	1
7	8623	753869.212952648001	0
7	8638	755290.195356730637	1
7	8640	755556.179495110959	0
7	8656	757888.89146791477	1
7	8666	761079.973088510436	2
7	8668	761659.371119201301	1
7	8683	763084.084940688141	2
7	8692	763929.732740700026	3
7	8694	764786.234523283934	2
7	8703	765606.075193935226	1
7	8712	767968.314705584162	0
7	8727	769482.311398614725	1
7	8730	769518.2896724138	0
7	8747	770138.274114230274	1
7	8752	770467.657337144674	2
7	8755	771002.946809562133	1
7	8772	771924.163996438237	2
7	8777	772263.917796824399	3
7	8780	772618.806479161027	2
7	8788	772694.546241206655	1
7	8803	774385.284420477551	2
7	8807	777295.933380111442	1
7	8825	778620.164768121619	2
7	8830	778845.090379692274	3
7	8832	778883.011505466916	2
7	8840	779507.533726401123	1
7	8855	780454.438520555631	2
7	8864	782519.881135726791	3
7	8867	783021.361035631818	2
7	8875	783393.169380430833	1
7	8890	784932.389447155625	2
7	8908	786572.339997429318	3
7	8912	786709.782185031049	2
7	8916	787020.088660436589	3
7	8920	787112.146327412575	2
7	8925	787558.722867371384	3
7	8930	787605.825934001363	4
7	8943	787904.313707850971	5
7	8950	788364.717088227986	4
7	8959	789429.476754469996	3
7	8967	790146.841385717787	2
7	8985	790835.827922256383	3
7	8989	790847.664618028175	2
7	8993	791037.371918196456	3
7	9000	791731.850335639186	2
7	9005	791760.176614683288	1
7	9027	798584.796756584803	2
7	9031	802330.674895672819	1
7	9037	802849.529741829483	0
7	9055	804449.88196524029	1
7	9057	804887.88424849685	0
7	9073	807421.190737872792	1
7	9082	808944.061609150158	2
7	9084	809056.500759435453	1
7	9095	813223.830439822727	0
7	9110	815600.012569420157	1
7	9113	816799.382429087111	0
7	9129	819893.617627872444	1
7	9138	821131.741853332971	2
7	9140	821591.423792337087	1
7	9156	824375.469133295532	2
7	9165	825113.901009882363	3
7	9174	826854.272184368561	4
7	9183	828190.683258593117	5
7	9185	828528.663315066805	4
7	9193	828917.087368914452	3
7	9201	829384.994486598536	2
7	9205	829479.792011330543	3
7	9210	829755.432735825032	2
7	9219	831334.062605278202	1
7	9241	832458.258240812606	2
7	9250	832939.439865138351	3
7	9252	833419.172569486225	2
7	9266	834891.687455163048	1
7	9270	835100.286285501757	2
7	9274	835142.354452461274	1
7	9292	836209.383528215609	2
7	9302	839103.835632357347	3
7	9304	839343.704702628889	2
7	9312	839614.630552709888	1
7	9320	839868.176821456184	0
7	9336	842586.080437750812	1
7	9344	843271.408879704259	0
7	9348	843494.92693134595	1
7	9357	846390.596945918814	0
7	9378	852493.096109876976	1
7	9383	852749.926680221582	2
7	9392	853715.59876554204	3
7	9395	855953.894356723754	2
7	9403	856435.01940884438	1
7	9413	856870.406832499977	2
7	9430	858463.146700946716	3
7	9438	858825.26732029895	4
7	9443	859179.28188135195	5
7	9446	859759.399436664306	4
7	9454	860512.510076929542	3
7	9469	861277.402159575908	4
7	9471	861481.524220254361	3
7	9479	862165.783877086592	2
7	9487	862457.481036924792	1
7	9502	862862.504370079331	2
7	9504	862902.689914802479	1
7	9513	864105.429404549614	0
7	9527	865288.720532121657	1
7	9530	865970.537663581341	0
7	9547	866664.973834831093	1
7	9552	866799.089480645841	2
7	9555	867052.675897509152	1
7	9564	869252.064861018664	0
7	9579	871300.180612689421	1
7	9588	872173.998382766332	2
7	9590	872507.923462582813	1
7	9599	873150.189538486677	0
7	9616	874225.049879733671	1
7	9621	874266.980933417003	2
7	9624	874557.621352780877	1
7	9638	875102.451862458966	2
7	9646	875813.142646469348	3
7	9649	877020.922608482737	2
7	9654	877192.312801841867	1
7	9666	878692.329343137449	0
7	9685	885990.200443142692	1
7	9688	886816.436741058332	0
7	9703	888335.458179977237	1
7	9705	888518.822093076254	0
7	9720	889537.867252439698	1
7	9728	890676.192418688401	2
7	9731	891471.678020359548	1
7	9746	893160.463223871855	2
7	9755	894173.599356099656	3
7	9757	894853.614575547671	2
7	9775	895942.588916452055	3
7	9780	896118.139733583667	4
7	9788	896412.807639654571	5
7	9791	897959.430814752766	4
7	9796	898082.098245707054	3
7	9805	898579.317873434467	2
7	9816	899468.011668130058	1
7	9831	900641.036576807854	2
7	9833	900913.463663649299	1
7	9849	903238.0775326397	2
7	9858	905654.403485772776	3
7	9860	905704.798788170634	2
7	9868	905893.551967361613	1
7	9883	906286.911805482534	2
7	9891	907438.883942782263	3
7	9900	908518.264665062738	4
7	9908	908625.719873947168	5
7	9910	908772.946334972587	4
7	9924	909310.615430653392	3
7	9928	909412.900167669287	4
7	9935	909854.06910607148	3
7	9943	910422.411620713777	2
7	9952	911946.375705876434	1
7	9970	912467.150022229476	2
7	9974	912855.288875307662	1
7	9978	912917.143153716829	2
7	9991	913421.183182512684	3
7	9994	913721.821367073838	2
7	10002	913923.352259002856	1
7	10011	913947.765122982349	2
7	10018	914229.064757572019	1
7	10033	916450.072598086059	2
7	10042	917363.155491783457	3
7	10044	917499.620245721228	2
7	10057	917909.279977596856	1
7	10061	918427.756438576652	0
7	10072	919736.480523613314	1
7	10077	919929.422052124784	2
7	10082	920514.422561009101	3
7	10094	920661.971973395307	2
7	10102	920893.462145298066	1
7	10112	923086.578683633246	0
7	10127	925327.99059984427	1
7	10130	926535.840079324747	0
7	10145	927472.418744609981	1
7	10153	928179.915572930529	2
7	10157	930208.485987768937	1
7	10165	930914.973615111507	0
7	10180	932384.595491578589	1
7	10182	932957.023657288893	0
7	10197	934155.082562797529	1
7	10206	935594.599881384024	2
7	10209	936895.28944151556	1
7	10219	940155.237192971738	0
7	10235	943050.505215554456	1
7	10237	943152.724537342938	0
7	10252	943546.058462631347	1
7	10254	944268.585318032857	0
7	10276	947019.08218285152	1
7	10281	947524.532281833687	2
7	10286	947990.904693734721	3
7	10289	948528.556273727398	2
7	10297	948869.21287840217	1
