file 198061 1483627161                                          
version 2
run QueueMeasurement-14-20170105-15:39:21-5358
attr configname QueueMeasurement
attr datetime 20170105-15:39:21
attr experiment QueueMeasurement
attr inifile queueStudy.ini
attr iterationvars ""
attr iterationvars2 $repetition=14
attr measurement ""
attr network SimNetwork
attr processid 5358
attr repetition 14
attr replication #14
attr resultdir results
attr runnumber 14
attr seedset 14
param SimNetwork.a.parkingLot.parkingDelay exponential(45min)
param SimNetwork.a.runway.landingTime exponential(5min)
param SimNetwork.a.runway.takeoffTime exponential(5min)
param SimNetwork.a.runway.throughputCheckInterval 25min
param SimNetwork.wg.interArrivalTime exponential(25min)

vector 7  SimNetwork.a.parkingLot  parkingOccupancy:vector  ETV
attr source  parkingOccupancy
vector 4  SimNetwork.a.takeoffQueue  queueLength:vector  ETV
attr source  queueLengthSignal
vector 3  SimNetwork.a.takeoffQueue  queueTime:vector  ETV
attr source  queueTimeSignal
vector 0  SimNetwork.wg  responseTime:vector  ETV
attr source  responseTimeSignal
vector 5  SimNetwork.a.runway  landedThroughput:vector  ETV
attr source  landedThroughputSignal
vector 6  SimNetwork.a.runway  tookoffThroughput:vector  ETV
attr source  tookoffThroughputSignal
vector 2  SimNetwork.a.landingQueue  queueLength:vector  ETV
attr source  queueLengthSignal
vector 1  SimNetwork.a.landingQueue  queueTime:vector  ETV
attr source  queueTimeSignal
0	1418 26576 851 11320 79409.005424759161 949998.185451159586 620 600.27931710035 20019.296166752 3429867.458703 25514286439.383
1	27994 21834 867 11292 83365.420913328376 948680.866223418786 617 0 2159.0555823531 133487.53207373 126869497.96498
2	49828 35759 865 11292 83365.420913328376 948680.866223418786 1234 0 4 823 1181
3	85587 21952 848 11317 79259.373978483893 949946.026918454308 620 0 6584.4086884349 290679.34759955 670855403.09779
4	107539 35920 843 11317 79240.109521850541 949946.026918454308 1240 0 8 1062 2176
5	143459 9363 853 11305 79500 949500 581 0 5 618 1316
6	152822 9363 853 11305 79500 949500 581 0 6 618 1328
7	162185 35876 842 11311 79240.109521850541 949821.353639835028 1238 0 7 3123 10547
