version 2
run ParkingMeasurement-93-20170108-17:30:54-5565
attr configname ParkingMeasurement
attr datetime 20170108-17:30:54
attr experiment ParkingMeasurement
attr inifile parkingStudy.ini
attr iterationvars ""
attr iterationvars2 $repetition=93
attr measurement ""
attr network controltower.SimNetwork
attr processid 5565
attr repetition 93
attr replication #93
attr resultdir results
attr runnumber 93
attr seedset 93
param SimNetwork.a.parkingLot.parkingDelay "truncnormal(30min, 3min)"
param SimNetwork.a.runway.landingTime "truncnormal(5min, 0.5min)"
param SimNetwork.a.runway.takeoffTime "truncnormal(5min, 0.5min)"
param SimNetwork.a.runway.throughputCheckInterval 50min
param SimNetwork.wg.interArrivalTime exponential(50min)

statistic SimNetwork.wg 	responseTime:stats
field count 300
field mean 5610.4634055723
field stddev 2885.1649004785
field sum 1683139.0216717
field sqrsum 11932118661.963
field min 2234.062470229
field max 21110.665399098
attr source  responseTimeSignal
scalar SimNetwork.a.landingQueue 	queueLength:timeavg 	0.0079239717041785
attr source  queueLengthSignal
statistic SimNetwork.a.landingQueue 	queueLength:stats
field count 600
field mean 0.50333333333333
field stddev 0.503731208854
field sum 302
field sqrsum 304
field min 0
field max 2
attr source  queueLengthSignal
statistic SimNetwork.a.landingQueue 	queueTime:stats
field count 300
field mean 24.686692580207
field stddev 67.323398548061
field sum 7406.007774062
field sqrsum 1538029.3947911
field min 0
field max 332.72277234757
attr source  queueTimeSignal
scalar SimNetwork.a.takeoffQueue 	queueLength:timeavg 	0.015306054436219
attr source  queueLengthSignal
statistic SimNetwork.a.takeoffQueue 	queueLength:stats
field count 600
field mean 0.53333333333333
field stddev 0.54410382327861
field sum 320
field sqrsum 348
field min 0
field max 3
attr source  queueLengthSignal
statistic SimNetwork.a.takeoffQueue 	queueTime:stats
field count 300
field mean 47.669949017752
field stddev 123.08292188621
field sum 14300.984705326
field sqrsum 5211399.5041605
field min 0
field max 716.80119035309
attr source  queueTimeSignal
scalar SimNetwork.a.parkingLot 	parkingOccupancy:timeavg 	0.58119478161828
attr source  parkingOccupancy
statistic SimNetwork.a.parkingLot 	parkingOccupancy:stats
field count 601
field mean 1.026622296173
field stddev 0.96226645933895
field sum 617
field sqrsum 1189
field min 0
field max 6
attr source  parkingOccupancy
