version 2
run ParkingMeasurement-66-20170106-02:04:07-11390
attr configname ParkingMeasurement
attr datetime 20170106-02:04:07
attr experiment ParkingMeasurement
attr inifile parkingStudy.ini
attr iterationvars ""
attr iterationvars2 $repetition=66
attr measurement ""
attr network SimNetwork
attr processid 11390
attr repetition 66
attr replication #66
attr resultdir results
attr runnumber 66
attr seedset 66
param SimNetwork.a.parkingLot.parkingDelay "truncnormal(30min, 3min)"
param SimNetwork.a.runway.landingTime "truncnormal(5min, 0.5min)"
param SimNetwork.a.runway.takeoffTime "truncnormal(5min, 0.5min)"
param SimNetwork.a.runway.throughputCheckInterval 50min
param SimNetwork.wg.interArrivalTime exponential(50min)

statistic SimNetwork.wg 	responseTime:stats
field count 340
field mean 5220.5186748881
field stddev 2649.1614826147
field sum 1774976.3494619
field sqrsum 11645418354.019
field min 2420.2359990648
field max 19251.476791419
attr source  responseTimeSignal
scalar SimNetwork.a.landingQueue 	queueLength:timeavg 	0.013128173535171
attr source  queueLengthSignal
statistic SimNetwork.a.landingQueue 	queueLength:stats
field count 682
field mean 0.50879765395894
field stddev 0.50901882824984
field sum 347
field sqrsum 353
field min 0
field max 2
attr source  queueLengthSignal
statistic SimNetwork.a.landingQueue 	queueTime:stats
field count 341
field mean 35.938848407339
field stddev 83.723721641035
field sum 12255.147306902
field sqrsum 2823720.8135171
field min 0
field max 405.34377579319
attr source  queueTimeSignal
scalar SimNetwork.a.takeoffQueue 	queueLength:timeavg 	0.016067621787805
attr source  queueLengthSignal
statistic SimNetwork.a.takeoffQueue 	queueLength:stats
field count 680
field mean 0.51176470588235
field stddev 0.51187069535891
field sum 348
field sqrsum 356
field min 0
field max 2
attr source  queueLengthSignal
statistic SimNetwork.a.takeoffQueue 	queueTime:stats
field count 340
field mean 43.996089977577
field stddev 107.13356996571
field sum 14958.670592376
field sqrsum 4549030.0321368
field min 0
field max 981.12304408561
attr source  queueTimeSignal
scalar SimNetwork.a.parkingLot 	parkingOccupancy:timeavg 	0.65038923229005
attr source  parkingOccupancy
statistic SimNetwork.a.parkingLot 	parkingOccupancy:stats
field count 680
field mean 1.1411764705882
field stddev 0.90689314014059
field sum 776
field sqrsum 1444
field min 0
field max 4
attr source  parkingOccupancy
