<<<<<<< HEAD
file 99950 1483715158                                           
version 2
run ParkingMeasurement-67-20170106-02:04:07-11396
attr configname ParkingMeasurement
attr datetime 20170106-02:04:07
attr experiment ParkingMeasurement
attr inifile parkingStudy.ini
attr iterationvars ""
attr iterationvars2 $repetition=67
attr measurement ""
attr network SimNetwork
attr processid 11396
attr repetition 67
attr replication #67
attr resultdir results
attr runnumber 67
attr seedset 67
param SimNetwork.a.parkingLot.parkingDelay "truncnormal(30min, 3min)"
param SimNetwork.a.runway.landingTime "truncnormal(5min, 0.5min)"
param SimNetwork.a.runway.takeoffTime "truncnormal(5min, 0.5min)"
param SimNetwork.a.runway.throughputCheckInterval 50min
param SimNetwork.wg.interArrivalTime exponential(50min)
vector 5  SimNetwork.a.runway  landedThroughput:vector  ETV
attr source landedThroughputSignal
5	71664 4980 690 6046 102000 1035000 312 0 4 316 624
vector 6  SimNetwork.a.runway  tookoffThroughput:vector  ETV
attr source tookoffThroughputSignal
6	76644 4980 690 6046 102000 1035000 312 0 5 314 608
vector 2  SimNetwork.a.landingQueue  queueLength:vector  ETV
attr source queueLengthSignal
2	24984 18323 694 6044 110911.933865949216 1034751.47232669079 634 0 2 327 337
vector 1  SimNetwork.a.landingQueue  queueTime:vector  ETV
attr source queueTimeSignal
1	14965 10019 696 6044 110911.933865949216 1034751.47232669079 317 0 489.40300522204 11281.230210992 2764548.6329919
vector 7  SimNetwork.a.parkingLot  parkingOccupancy:vector  ETV
attr source parkingOccupancy
7	81624 18326 700 6066 111214.513079453367 1036711.846728783305 634 0 4 689 1233
vector 4  SimNetwork.a.takeoffQueue  queueLength:vector  ETV
attr source queueLengthSignal
4	53346 18318 703 6069 112877.617943291092 1036711.846728783305 634 0 3 325 337
vector 3  SimNetwork.a.takeoffQueue  queueTime:vector  ETV
attr source queueTimeSignal
3	43307 10039 705 6069 112877.617943291092 1036711.846728783305 317 0 1003.5431986425 12698.341217458 4464034.8375226
vector 0  SimNetwork.wg  responseTime:vector  ETV
attr source responseTimeSignal
0	1456 13509 708 6064 113206.884453132358 1036182.850671679304 316 2274.8853515425 20049.751733533 1723141.4863704 12075969989.762
=======
file 99961 1483893047                                           
version 2
run ParkingMeasurement-67-20170108-17:30:47-5513
attr configname ParkingMeasurement
attr datetime 20170108-17:30:47
attr experiment ParkingMeasurement
attr inifile parkingStudy.ini
attr iterationvars ""
attr iterationvars2 $repetition=67
attr measurement ""
attr network controltower.SimNetwork
attr processid 5513
attr repetition 67
attr replication #67
attr resultdir results
attr runnumber 67
attr seedset 67
param SimNetwork.a.parkingLot.parkingDelay "truncnormal(30min, 3min)"
param SimNetwork.a.runway.landingTime "truncnormal(5min, 0.5min)"
param SimNetwork.a.runway.takeoffTime "truncnormal(5min, 0.5min)"
param SimNetwork.a.runway.throughputCheckInterval 50min
param SimNetwork.wg.interArrivalTime exponential(50min)

vector 5  SimNetwork.a.runway  landedThroughput:vector  ETV
attr source  landedThroughputSignal
vector 6  SimNetwork.a.runway  tookoffThroughput:vector  ETV
attr source  tookoffThroughputSignal
vector 2  SimNetwork.a.landingQueue  queueLength:vector  ETV
attr source  queueLengthSignal
vector 1  SimNetwork.a.landingQueue  queueTime:vector  ETV
attr source  queueTimeSignal
vector 7  SimNetwork.a.parkingLot  parkingOccupancy:vector  ETV
attr source  parkingOccupancy
vector 4  SimNetwork.a.takeoffQueue  queueLength:vector  ETV
attr source  queueLengthSignal
vector 3  SimNetwork.a.takeoffQueue  queueTime:vector  ETV
attr source  queueTimeSignal
vector 0  SimNetwork.wg  responseTime:vector  ETV
attr source  responseTimeSignal
0	1467 13509 708 6064 113206.884453132358 1036182.850671679304 316 2274.8853515425 20049.751733533 1723141.4863704 12075969989.762
1	14976 10019 696 6044 110911.933865949216 1034751.47232669079 317 0 489.40300522204 11281.230210992 2764548.6329919
2	24995 18323 694 6044 110911.933865949216 1034751.47232669079 634 0 2 327 337
3	43318 10039 705 6069 112877.617943291092 1036711.846728783305 317 0 1003.5431986425 12698.341217458 4464034.8375225
4	53357 18318 703 6069 112877.617943291092 1036711.846728783305 634 0 3 325 337
5	71675 4980 690 6046 102000 1035000 312 0 4 316 624
6	76655 4980 690 6046 102000 1035000 312 0 5 314 608
7	81635 18326 700 6066 111214.513079453367 1036711.846728783305 634 0 4 689 1233
>>>>>>> branch 'develop' of git@github.com:enricomeloni/PESC_Control_Tower.git
