version 2
run ParkingMeasurement-17-20170106-02:03:56-11127
attr configname ParkingMeasurement
attr datetime 20170106-02:03:56
attr experiment ParkingMeasurement
attr inifile parkingStudy.ini
attr iterationvars ""
attr iterationvars2 $repetition=17
attr measurement ""
attr network SimNetwork
attr processid 11127
attr repetition 17
attr replication #17
attr resultdir results
attr runnumber 17
attr seedset 17
param SimNetwork.a.parkingLot.parkingDelay "truncnormal(30min, 3min)"
param SimNetwork.a.runway.landingTime "truncnormal(5min, 0.5min)"
param SimNetwork.a.runway.takeoffTime "truncnormal(5min, 0.5min)"
param SimNetwork.a.runway.throughputCheckInterval 50min
param SimNetwork.wg.interArrivalTime exponential(50min)

statistic SimNetwork.wg 	responseTime:stats
field count 320
field mean 5386.4061428373
field stddev 2960.3348898739
field sum 1723649.9657079
field sqrsum 12079861631.996
field min 2499.7963921436
field max 25534.441169141
attr source  responseTimeSignal
scalar SimNetwork.a.landingQueue 	queueLength:timeavg 	0.011419032462639
attr source  queueLengthSignal
statistic SimNetwork.a.landingQueue 	queueLength:stats
field count 636
field mean 0.50943396226415
field stddev 0.50966006306569
field sum 324
field sqrsum 330
field min 0
field max 2
attr source  queueLengthSignal
statistic SimNetwork.a.landingQueue 	queueTime:stats
field count 318
field mean 33.581745730036
field stddev 82.738082556065
field sum 10678.995142151
field sqrsum 2528671.4262182
field min 0
field max 546.02783309747
attr source  queueTimeSignal
scalar SimNetwork.a.takeoffQueue 	queueLength:timeavg 	0.011479961434715
attr source  queueLengthSignal
statistic SimNetwork.a.takeoffQueue 	queueLength:stats
field count 638
field mean 0.50626959247649
field stddev 0.50658911361334
field sum 323
field sqrsum 327
field min 0
field max 2
attr source  queueLengthSignal
statistic SimNetwork.a.takeoffQueue 	queueTime:stats
field count 319
field mean 33.666370174487
field stddev 98.979558784244
field sum 10739.572085661
field sqrsum 3476993.4815168
field min 0
field max 779.88030948233
attr source  queueTimeSignal
scalar SimNetwork.a.parkingLot 	parkingOccupancy:timeavg 	0.61089761586459
attr source  parkingOccupancy
statistic SimNetwork.a.parkingLot 	parkingOccupancy:stats
field count 637
field mean 1.0392464678179
field stddev 0.83366550452495
field sum 662
field sqrsum 1130
field min 0
field max 4
attr source  parkingOccupancy
