version 2
run ParkingMeasurement-94-20170108-17:30:54-5567
attr configname ParkingMeasurement
attr datetime 20170108-17:30:54
attr experiment ParkingMeasurement
attr inifile parkingStudy.ini
attr iterationvars ""
attr iterationvars2 $repetition=94
attr measurement ""
attr network controltower.SimNetwork
attr processid 5567
attr repetition 94
attr replication #94
attr resultdir results
attr runnumber 94
attr seedset 94
param SimNetwork.a.parkingLot.parkingDelay "truncnormal(30min, 3min)"
param SimNetwork.a.runway.landingTime "truncnormal(5min, 0.5min)"
param SimNetwork.a.runway.takeoffTime "truncnormal(5min, 0.5min)"
param SimNetwork.a.runway.throughputCheckInterval 50min
param SimNetwork.wg.interArrivalTime exponential(50min)

statistic SimNetwork.wg 	responseTime:stats
field count 318
field mean 5415.5084953977
field stddev 2799.2384570897
field sum 1722131.7015365
field sqrsum 11810147152.734
field min 2461.9841215432
field max 20600.716309082
attr source  responseTimeSignal
scalar SimNetwork.a.landingQueue 	queueLength:timeavg 	0.015477527510969
attr source  queueLengthSignal
statistic SimNetwork.a.landingQueue 	queueLength:stats
field count 632
field mean 0.53481012658228
field stddev 0.54472572259885
field sum 338
field sqrsum 368
field min 0
field max 3
attr source  queueLengthSignal
statistic SimNetwork.a.landingQueue 	queueTime:stats
field count 316
field mean 45.456843330503
field stddev 108.52524197542
field sum 14364.362492439
field sqrsum 4362942.941296
field min 0
field max 767.10326974207
attr source  queueTimeSignal
scalar SimNetwork.a.takeoffQueue 	queueLength:timeavg 	0.014696897074275
attr source  queueLengthSignal
statistic SimNetwork.a.takeoffQueue 	queueLength:stats
field count 636
field mean 0.5125786163522
field stddev 0.51267304905472
field sum 326
field sqrsum 334
field min 0
field max 2
attr source  queueLengthSignal
statistic SimNetwork.a.takeoffQueue 	queueTime:stats
field count 318
field mean 43.265351719161
field stddev 133.24568716464
field sum 13758.381846693
field sqrsum 6223410.1975927
field min 0
field max 1032.7047674561
attr source  queueTimeSignal
scalar SimNetwork.a.parkingLot 	parkingOccupancy:timeavg 	0.6055949636014
attr source  parkingOccupancy
statistic SimNetwork.a.parkingLot 	parkingOccupancy:stats
field count 634
field mean 1.1466876971609
field stddev 0.98916567214871
field sum 727
field sqrsum 1453
field min 0
field max 6
attr source  parkingOccupancy
