version 2
run ParkingMeasurement-90-20170108-17:30:53-5559
attr configname ParkingMeasurement
attr datetime 20170108-17:30:53
attr experiment ParkingMeasurement
attr inifile parkingStudy.ini
attr iterationvars ""
attr iterationvars2 $repetition=90
attr measurement ""
attr network controltower.SimNetwork
attr processid 5559
attr repetition 90
attr replication #90
attr resultdir results
attr runnumber 90
attr seedset 90
param SimNetwork.a.parkingLot.parkingDelay "truncnormal(30min, 3min)"
param SimNetwork.a.runway.landingTime "truncnormal(5min, 0.5min)"
param SimNetwork.a.runway.takeoffTime "truncnormal(5min, 0.5min)"
param SimNetwork.a.runway.throughputCheckInterval 50min
param SimNetwork.wg.interArrivalTime exponential(50min)

vector 7  SimNetwork.a.parkingLot  parkingOccupancy:vector  ETV
attr source  parkingOccupancy
vector 5  SimNetwork.a.runway  landedThroughput:vector  ETV
attr source  landedThroughputSignal
vector 6  SimNetwork.a.runway  tookoffThroughput:vector  ETV
attr source  tookoffThroughputSignal
vector 4  SimNetwork.a.takeoffQueue  queueLength:vector  ETV
attr source  queueLengthSignal
vector 3  SimNetwork.a.takeoffQueue  queueTime:vector  ETV
attr source  queueTimeSignal
vector 0  SimNetwork.wg  responseTime:vector  ETV
attr source  responseTimeSignal
vector 2  SimNetwork.a.landingQueue  queueLength:vector  ETV
attr source  queueLengthSignal
vector 1  SimNetwork.a.landingQueue  queueTime:vector  ETV
attr source  queueTimeSignal
0	625	102372.009126408043	6997.8287790569
0	661	105011.929488054817	4909.1995075547
0	666	105297.662063778569	2814.2186658115
0	682	106596.800134046889	3533.2864176778
0	690	107986.653363317466	3583.9060050911
0	709	116414.631239546277	10788.44411078
0	743	122876.21541299708	8904.4440919863
0	752	123441.20783073776	2851.4812394339
0	763	124677.397807240384	3430.1788606078
0	793	126874.851355233221	4741.4261670684
0	801	127403.42838822629	2878.1091745106
0	809	127721.547133915609	2779.0452191359
0	834	131955.286783503519	7010.40086773
0	843	133698.160472289825	3940.8030827501
0	871	136364.628170221476	5180.3816129633
0	884	137016.216571036752	2992.6891574266
0	901	139112.18788163783	4900.2452265935
0	917	140733.659945477681	4532.3086273748
0	934	142245.32752950651	3892.9095945228
0	942	143355.089026778031	3535.7748466915
0	970	146523.983160585487	5788.8404036689
0	975	146877.25330942622	2703.4110590938
0	993	151913.434400668444	7648.3125469351
0	1018	155231.960309701738	5944.0474910842
0	1026	155726.448676085129	2602.4031443029
0	1052	160048.902416383886	6566.4732171959
0	1060	161684.440283686928	4074.7664172157
0	1093	164443.767559911511	5161.8012764323
0	1102	165552.793599800458	3337.9795114167
0	1110	166006.177351074541	2999.4058936751
0	1128	172072.461369538395	8571.8203891278
0	1170	178478.255174954106	8920.7506777033
0	1181	179671.86972604677	4379.8964965973
0	1187	180005.614396109663	2756.3648999587
0	1198	180408.668254914672	3092.1575425652
0	1219	182895.181221138189	5482.6088119455
0	1228	183827.875146633328	3588.7463405619
0	1246	190835.092490875329	9378.0948764031
0	1263	194319.912042528409	5799.8520315616
0	1296	197954.168609128122	6273.1219913555
0	1305	198503.663717301323	2925.2823919594
0	1313	199176.731840048431	3105.5585398455
0	1333	211827.902021722613	14977.521483824
0	1358	215454.066237335646	6586.7455322885
0	1367	217123.34251826981	4059.4639342151
0	1392	220099.990427924922	5755.3888640109
0	1417	222045.669255016979	4513.6440369419
0	1425	223081.165704432461	3569.2952035925
0	1433	223543.669911747356	2741.841666808
0	1451	229872.60929755966	8835.972698601
0	1484	233613.94109904797	6031.1622531906
0	1496	234065.996743757494	2955.4965146307
0	1512	235177.641151355456	3539.1517048159
0	1533	236252.887073500113	3329.5365261936
0	1542	237391.618515886799	3632.6700912092
0	1550	238113.824213409663	3080.7929874658
0	1568	244066.535228705804	8852.2734495558
0	1585	247436.554934135026	5606.2699779191
0	1602	250935.724697531817	5906.5914734911
0	1636	257763.560983181302	9034.1669255316
0	1645	258028.858516424319	2614.3624852685
0	1653	258542.817336036107	2834.9115542322
0	1670	261878.165494887517	6123.4078112261
0	1689	270290.35497361945	11068.448370856
0	1706	273822.036308093658	6013.25120422
0	1723	276802.227113031286	5309.0996344204
0	1740	280891.070300314622	6797.0652475093
0	1767	289423.963831707168	10975.51607803
0	1775	290116.244567736642	3156.9302145644
0	1792	292986.048364562216	5519.2196773558
0	1817	295747.964845253285	5309.5677818491
0	1825	296816.286835584022	3753.6059324181
0	1845	307413.709461860247	12955.325734173
0	1863	312561.723459188663	7659.5685929435
0	1887	314713.672200844482	4741.158159586
0	1896	316147.49274476146	3577.096933447
0	1921	320914.306051050604	7307.4676535958
0	1938	322326.825011735911	3532.3544810437
0	1947	324316.474912274947	4353.7308434652
0	1964	328361.028512370466	6604.1275768696
0	1991	338152.796840782671	12198.147646552
0	2000	339479.482355678284	3795.68935326
0	2017	342352.660247270405	5323.431200673
0	2036	351660.212607180115	11574.10151677
0	2069	356178.607212618728	6835.7928036509
0	2080	356897.687381075658	3094.1837791031
0	2086	357221.86256869199	2738.539923997
0	2103	360225.011693828485	5724.0858896591
0	2141	371612.376797983096	13270.291248962
0	2149	371886.539292997535	2915.4667765831
0	2155	372200.446602254349	2813.607321729
0	2180	375596.268069678167	5854.1899956472
0	2191	376650.674731308954	3116.6763043425
0	2205	379281.172408547725	5005.0561306493
0	2238	382523.663126074274	6101.4683569896
0	2246	383108.16374695502	2984.2692147027
0	2254	383920.134116780472	3752.6205809599
0	2280	388595.713002606541	7512.5676616539
0	2288	389370.437492375906	3233.0445320205
0	2305	392767.034659489684	5933.0304095266
0	2324	400227.69430664685	9792.1614783608
0	2349	404913.27590107771	7300.5463087679
0	2358	405813.219981636464	3379.8490662484
0	2385	414715.034977158774	11667.564013512
0	2393	415631.706181815358	3183.9626516509
0	2411	422420.36138444649	9169.7059579338
0	2436	425041.833265265288	4882.8358418223
0	2453	427168.829634916023	4526.004551823
0	2462	429047.51839945998	4690.3818506454
0	2496	436647.837167882328	10097.702790623
0	2504	437037.527497261376	2835.1837944934
0	2513	438160.616175457984	3865.0037815194
0	2538	443529.082471257305	7853.6924548945
0	2555	445369.423384774202	4550.7577118811
0	2574	446906.894131943087	4007.319109227
0	2596	448508.426970369251	4108.7225726315
0	2604	449553.124103516052	3367.0324867863
0	2616	450741.661703224928	3880.4163869286
0	2629	452999.053521732201	5062.4789600148
0	2646	455914.43455617018	5347.9897795444
0	2665	463207.848247246447	9649.2267974416
0	2685	474872.033731956462	13851.212978354
0	2702	477616.544702725926	5104.1301207556
0	2721	488821.748210604917	13435.899413197
0	2740	495549.907480694566	8593.9949266943
0	2776	499291.311464253914	6127.2349102108
0	2792	499818.038430759603	2853.2168977792
0	2797	500099.29928300355	2683.7108232666
0	2806	501347.485805510853	3532.6382205276
0	2846	503922.215741568152	4690.5560214797
0	2855	504474.778180868981	2972.6694343769
0	2863	504842.631675791749	2974.0119169987
0	2871	505815.608855934939	3940.6076749355
0	2897	510523.742412328838	7247.7522902786
0	2916	511563.358389691544	3324.5626637832
0	2930	513235.557866599084	4097.7125332698
0	2938	513840.320199976582	2864.890616312
0	2957	522766.616149356503	11338.154030106
0	2993	527835.291966509907	7339.8770440329
0	2999	528149.053937153904	2864.1353303024
0	3007	529252.886737859036	3819.3744331757
0	3027	532160.798944473752	5263.0094546292
0	3041	534332.970137108441	4635.166661812
0	3066	537880.01253717818	5855.0681277246
0	3074	538512.575046512173	3076.5463554166
0	3101	547390.137101394164	11432.341948103
0	3117	548511.610105738461	3704.121395102
0	3126	550083.161800763827	3598.8589328738
0	3165	553449.990478989137	5936.2700128108
0	3175	554035.566912655709	2914.6704314966
0	3192	555230.469768261003	3664.2767374909
0	3200	555672.345848471087	3597.7942051574
0	3211	556880.004271544819	3585.3266700288
0	3252	559415.759441319675	4898.6379996571
0	3257	559688.723911480823	3047.3618362733
0	3276	560737.500575288639	3672.9917867187
0	3281	560983.027530103302	2946.0065434708
0	3290	562199.834025448045	3718.484855109
0	3308	567840.89580646893	7857.5120942723
0	3345	574984.910698095317	9381.372154941
0	3366	575840.325112715222	3407.4993616148
0	3375	576763.596636777209	3226.4316402129
0	3386	577435.373723282148	2707.8611010552
0	3391	577776.978657536165	3490.9938759254
0	3424	580934.430688331937	5809.0936903407
0	3436	582110.287616022251	3587.299978918
0	3441	582430.360706682087	2477.9092319761
0	3474	585319.607512651881	5261.8520387184
0	3482	585982.481573339371	3132.0668270549
0	3490	587215.99520257419	3633.2773361797
0	3517	595120.150475334418	10361.772105979
0	3525	596071.773355861379	3242.4193850237
0	3542	598619.861516733242	4759.2034957843
0	3560	605565.228526000379	9131.586620764
0	3577	608589.354718775759	5254.9128183334
0	3605	618232.136850842193	12206.782375401
0	3616	619903.585718041769	4425.1056371449
0	3641	622283.932120957606	4690.5554826943
0	3646	622637.570615843567	2785.0018937906
0	3663	625926.102749380884	5739.791010158
0	3682	634328.461123279033	11257.552786664
0	3708	639126.227408110212	7164.8766918115
0	3716	640047.049660140304	3560.1759934301
0	3744	642892.339505347094	5206.8519582974
0	3749	643204.343245499251	2970.0384794491
0	3781	657876.016640908032	17096.746893031
0	3802	658985.639786702864	3685.3254778599
0	3811	660157.808089549682	3322.9447467257
0	3819	660989.540859623601	3157.8395880113
0	3846	669712.210863131539	11747.209837084
0	3854	670837.628789381916	3728.5101295609
0	3880	675139.485061065285	6407.0416245204
0	3888	675631.057383019993	2845.1187348824
0	3921	678213.58041442812	5378.9692226584
0	3929	678690.497473428809	2864.7436390673
0	3940	679954.039104246159	3447.620388445
0	3962	682348.161774533119	5012.3854438074
0	3970	683456.953976774341	3678.9824020866
0	3996	688666.481268305916	7604.1704223521
0	4004	689557.792815871531	3490.3691412756
0	4022	693465.146053158018	6061.276519458
0	4047	696913.176413707838	5921.1547912488
0	4055	697358.007174827484	2868.0507890966
0	4081	704795.220212012547	9738.9648598366
0	4090	705478.524977619166	3094.3559893127
0	4118	708949.163861966598	2481.3620014065
0	4123	709213.841810229662	6473.4390581706
0	4150	717614.964120036135	11134.424068631
0	4158	718162.047666849859	2882.4535466847
0	4186	720680.111702490203	4808.4223801961
0	4191	720922.269313040519	2639.4854022229
0	4209	727310.925803950706	8894.4219952097
0	4229	729781.830676474406	5033.4185182384
0	4243	732244.349850794699	4882.3182862108
0	4269	738070.679102072444	8498.3402896449
0	4285	739154.276636429122	3128.7102890279
0	4294	741038.285205978023	4342.129448365
0	4311	744307.031273612106	5753.5675689421
0	4343	746727.811051486044	4738.8194787795
0	4363	747905.045364430772	3445.7763391704
0	4371	748240.873237116513	3011.6910681582
0	4384	749625.490584864004	4375.4554799014
0	4401	750738.769416553649	3448.8727807989
0	4409	751957.998191013591	3872.2943848062
0	4444	759336.123013409962	9669.6332124118
0	4452	760379.760399419604	3417.2081199154
0	4460	760969.900786971356	3063.5718770011
0	4477	764088.937988568918	5684.534122071
0	4502	766902.054663993176	5567.3089173734
0	4510	767875.445637886081	3494.7576256292
0	4528	773711.986239083719	7751.8992425767
0	4554	777472.35500954294	6304.5399997312
0	4562	778377.19893124655	3166.2623298826
0	4579	780789.452986132992	4605.1159465816
0	4596	785433.457189355015	6690.0416610796
0	4640	796704.86153157536	13688.957033113
0	4651	797143.101890395656	2241.9287433702
0	4656	797447.338751694434	2942.0942643245
0	4673	798350.059265068882	3146.3759858766
0	4681	800005.702992329971	4633.3908445471
0	4699	804709.04911892349	7233.3272766732
0	4727	809726.28306067775	7651.2510080802
0	4733	810033.764606914638	2806.071448188
0	4750	814727.75264863807	7230.2416963281
0	4775	816891.225460634153	4679.9741156433
0	4783	818426.178223823269	3547.7663184802
0	4812	831163.116251782066	15006.902920195
0	4823	831951.217756285725	3271.8246839719
0	4845	834265.71516597253	4883.0141573215
0	4861	835259.684481468642	3313.2308727541
0	4877	836519.554489783585	3899.0191465578
0	4886	837914.169633118532	3562.5483184641
0	4912	843601.272071156341	8047.0102385288
0	4920	844152.640927424766	2983.7855334615
0	4937	847043.590490129521	5691.7439279419
0	4971	852337.174644760035	7410.1048205557
0	4979	852923.667925037299	3130.914393484
0	4987	853841.826466037466	3175.535320133
0	5005	860812.508414698942	9529.8430697874
0	5022	863494.659350072505	5236.5649986071
0	5052	870688.301117157737	9669.758743741
0	5057	871010.504639066798	2879.6499943888
0	5074	874349.494129298034	5733.3600142554
0	5100	879455.987489252713	7746.6967068883
0	5108	879936.75365044895	2551.5723576256
0	5141	882729.177411015181	5266.3840506368
0	5149	883066.293934167766	3005.777553251
0	5157	884489.31464713545	3757.9635220708
0	5175	888105.366259258462	6067.1181177417
0	5191	890154.9367344894	4481.3882025557
0	5216	893181.890068945471	5067.0509069282
0	5224	893666.282588087206	2946.6243323335
0	5250	897359.707543339272	6537.0446498067
0	5266	898097.726651981943	2964.2522499899
0	5283	900152.146930484262	4500.7881772162
0	5291	901431.783427660501	3985.0071387538
0	5316	904702.988293515019	5443.9132092384
0	5324	905171.887067087616	3007.1918997299
0	5349	908130.947352238734	5238.3851366014
0	5357	908956.034851374808	3113.1338786543
0	5374	911775.448534644757	5522.5508870884
0	5408	916781.603093040295	7216.5033279908
0	5416	917458.185913616525	3100.4097986404
0	5424	917904.744136292092	2417.0588927198
0	5442	921405.077945636858	5718.6436389514
0	5460	929063.928564559159	10138.367766149
0	5485	932176.688308740275	5230.4568214569
0	5493	932843.867790289215	2949.3612534259
0	5511	936782.423761285527	6173.3260245389
0	5537	943678.74407960743	9135.103402115
0	5546	945260.797671722729	4544.1524055521
0	5563	949148.856669600638	6124.3740591759
0	5590	959001.216165393515	12376.614890413
0	5599	960549.430925109541	3873.9023188202
0	5624	963739.786854009204	5338.9725167346
0	5632	965036.715229411887	3545.7583657413
0	5657	967128.031883352421	4343.3872694282
0	5665	968311.907217826744	3274.9279038605
0	5685	978281.595456696352	12409.015507911
0	5710	982426.450964566111	6309.0992614556
0	5718	983512.765147851421	3403.4365627249
0	5736	989936.415764526727	8999.4050580498
0	5789	993533.554742193865	5839.630826393
0	5794	993755.765103587272	3046.1295139851
0	5802	994107.201710989786	3198.8390153424
0	5810	994606.504901656876	3050.5196506533
0	5818	995062.818063195228	2822.0876025059
0	5837	1004143.72263809365	11254.565495485
0	5863	1010215.023561286111	8652.4300624789
0	5880	1011972.298640507854	3872.6259812483
0	5888	1013354.840918417739	3813.807314114
0	5922	1017181.054961453953	6421.054216082
0	5933	1018081.198425417682	3199.5904522019
0	5946	1018798.12909925839	3180.3289226213
0	5955	1020480.384121267507	3934.697520454
0	5980	1023107.656065293871	5202.2657201271
0	5996	1024760.040523954851	4272.4558138
0	6005	1026681.464138763648	4394.3952573565
0	6022	1029925.805793250758	6046.9809445335
0	6039	1032668.03634049331	5363.7751840987
1	630	102483.44339796704	0
1	638	103063.513716369116	0
1	646	104402.747358226383	0
1	671	105626.187128766483	0
1	697	113971.771321010789	0
1	716	120589.726591303893	0
1	724	121247.218946632548	0
1	732	122133.425188164808	0
1	765	124677.397807240384	152.07859352467
1	776	124972.508951444207	30.007036664541
1	781	125305.9227862714	361.03687049788
1	815	129757.357389539733	0
1	823	131184.246557258195	0
1	848	134023.527413610139	0
1	856	134323.934881287009	111.99222624272
1	873	136364.628170221476	163.27685211855
1	890	138352.417934983666	0
1	906	139819.314180086509	0
1	922	140735.142756916586	0
1	948	144173.842250332396	0
1	956	144470.733071562922	205.61121782953
1	981	149287.91281861749	0
1	999	153124.045531782263	0
1	1007	153482.429199188011	0
1	1032	157609.673866471179	0
1	1041	159281.966283479233	0
1	1066	162214.81408838379	0
1	1074	163006.77145739943	0
1	1082	163500.640980410567	0
1	1116	169557.504497250819	0
1	1134	175291.973229449517	0
1	1143	177249.249496150989	0
1	1157	177560.518825107155	244.00811275768
1	1162	177848.937250077312	436.36484088457
1	1200	180408.668254914672	169.53944884324
1	1208	181456.997614472275	0
1	1234	188520.060010966849	0
1	1251	191681.046617772596	0
1	1269	195578.381325341963	0
1	1277	196071.173300202926	0
1	1285	196850.380537898222	0
1	1321	208867.320705047144	0
1	1339	213063.878584054731	0
1	1347	214344.601563914039	0
1	1372	217532.025218075032	0
1	1381	219511.870500840002	0
1	1397	220801.828244939318	0
1	1405	221097.754858648216	61.118259689581
1	1439	227582.778845857341	0
1	1457	231110.500229126754	0
1	1465	231638.489446539532	0
1	1473	232923.350547306509	0
1	1498	234065.996743757494	307.04831907989
1	1514	235177.641151355456	144.60992541163
1	1522	235415.637574958474	201.37579580851
1	1556	241830.284956215887	0
1	1573	245029.133224040688	0
1	1590	248729.394057649655	0
1	1609	255414.496031155839	0
1	1617	255710.790396121135	2.884614317218
1	1625	255986.374147922154	231.61646426073
1	1658	259221.906602763308	0
1	1677	267808.785103873702	0
1	1694	271493.127478610914	0
1	1711	274094.005052805281	0
1	1728	278448.447753676748	0
1	1747	286959.31435317221	0
1	1755	287466.828687206441	0
1	1780	290438.397063404218	0
1	1797	293062.68090316592	0
1	1806	294458.383727687219	0
1	1833	304902.154866245187	0
1	1851	309972.514041258459	0
1	1868	312570.395811314461	0
1	1876	313606.838397454813	0
1	1902	318794.470530692219	0
1	1910	319962.744068809754	0
1	1927	321756.900935500824	0
1	1952	325954.649194231078	0
1	1971	335683.793002418252	0
1	1980	337029.229046597397	0
1	2005	340086.111090410312	0
1	2024	349342.814408967782	0
1	2041	353803.503601972596	0
1	2050	354483.322644694958	0
1	2058	354769.566060687399	268.64025651797
1	2091	358342.085549020863	0
1	2110	368971.072516414457	0
1	2119	369386.839280525331	0
1	2127	369742.078074031003	0
1	2160	373533.998426966483	0
1	2168	374276.116277898425	0
1	2193	376650.674731308954	228.4799622243
1	2210	380123.894532252308	0
1	2218	380420.459805999041	252.94627017849
1	2227	381083.145340952601	0
1	2260	386137.392960355443	0
1	2268	386834.0042499631	0
1	2294	390435.532828286057	0
1	2312	397612.729592309845	0
1	2330	402433.370915388095	0
1	2338	403047.470963647207	0
1	2365	412447.743530164419	0
1	2373	413250.655426512726	0
1	2400	420158.997423442962	0
1	2416	422642.825083092986	0
1	2425	424357.136548814569	0
1	2442	426550.134377259168	0
1	2468	434202.343702768022	0
1	2476	434515.004305289429	219.39191135089
1	2485	435675.390016362838	0
1	2518	440818.66567289311	0
1	2527	442899.575022716085	0
1	2544	444399.704397737727	0
1	2560	446186.091616729738	0
1	2576	446906.894131943087	45.648815646718
1	2585	447936.57456171744	0
1	2618	450741.661703224928	175.21692659911
1	2635	453558.621449804886	0
1	2653	461020.820753602152	0
1	2673	472512.414581970284	0
1	2690	475385.848797407711	0
1	2710	486955.912554000247	0
1	2728	493164.076554043089	0
1	2745	496964.821532980449	0
1	2753	497415.588459736913	0
1	2761	497814.847584983259	0
1	2778	499291.311464253914	59.651744165471
1	2811	501502.108746492111	0
1	2819	501868.61975879309	0
1	2827	502150.883420561767	275.88223956231
1	2835	503275.990122050204	0
1	2877	508238.795725908362	0
1	2885	509137.845333329263	0
1	2902	510975.429583664535	0
1	2918	511563.358389691544	134.89627044059
1	2945	520495.41492247703	0
1	2963	525284.918606851472	0
1	2971	525616.871115491593	183.35881080824
1	2979	526897.789489844548	0
1	3012	529697.803475296415	0
1	3029	532160.798944473752	135.85453502014
1	3046	535436.028691095533	0
1	3054	535957.795153291472	0
1	3081	544807.488710636458	0
1	3090	546484.302867890037	0
1	3106	547513.720466178371	0
1	3131	551120.896481159149	0
1	3139	551566.193030770142	0
1	3148	552074.551643313681	0
1	3167	553449.990478989137	155.31287747313
1	3180	554517.121441662603	0
1	3213	556880.004271544819	238.6421963373
1	3221	557187.723140194206	123.21435162429
1	3230	558037.020986632549	0
1	3238	558481.349170339035	0
1	3262	559983.383712196589	0
1	3296	565603.538543154363	0
1	3314	572432.825751100457	0
1	3323	573537.164996564312	0
1	3331	574285.984781610792	0
1	3347	574984.910698095317	257.39807586837
1	3355	575314.607828872459	189.2708308812
1	3396	578522.987637104274	0
1	3405	579952.451474705967	0
1	3413	580244.25660962384	186.50113569033
1	3446	582850.414746284476	0
1	3454	583582.717866394469	0
1	3462	584758.378369355206	0
1	3497	592829.353970837638	0
1	3505	593860.65802094895	0
1	3530	596433.6419052364	0
1	3549	603334.441900442364	0
1	3566	606025.354475440887	0
1	3585	615478.480080896867	0
1	3593	617593.376638263333	0
1	3618	619903.585718041769	51.016995988803
1	3626	620217.207924326091	30.896185103186
1	3651	623070.908336615509	0
1	3670	631961.350716298725	0
1	3688	636486.873666710165	0
1	3696	637685.487547049681	0
1	3721	640234.30476605019	0
1	3729	640779.269747877484	0
1	3758	655300.314308842932	0
1	3766	656834.863342823992	0
1	3783	657876.016640908032	44.315369295695
1	3791	658202.564252611634	237.56322656427
1	3826	667109.11865982104	0
1	3834	668732.443436544916	0
1	3860	672785.938648137562	0
1	3868	673084.099422282241	249.48823051256
1	3893	675825.753834361506	0
1	3901	676506.418715801142	0
1	3909	677335.776330725718	0
1	3942	679954.039104246159	176.06752955838
1	3951	681062.310845953853	0
1	3976	686067.423674595935	0
1	3985	687403.869533700012	0
1	4010	690992.021622459033	0
1	4027	694489.956385730896	0
1	4035	695056.255352175913	0
1	4062	702384.168988306425	0
1	4070	702740.402752059069	0
1	4095	706467.801860560125	0
1	4103	706817.138138422603	336.59808701751
1	4130	715279.594120165116	0
1	4138	715871.689322294075	0
1	4163	718282.783910817641	0
1	4171	718578.263567904745	161.75975916373
1	4197	724748.412158235978	0
1	4214	727362.03156458392	0
1	4231	729781.830676474406	209.49186404683
1	4249	736025.56634740124	0
1	4257	736696.155757612983	0
1	4274	738553.463704669977	0
1	4299	741988.991572706522	0
1	4316	744459.269025260412	0
1	4324	745229.182168958286	0
1	4332	745605.648054127903	355.61294916526
1	4349	747289.896635754703	0
1	4373	748240.873237116513	155.16943090916
1	4389	749666.489800998188	0
1	4416	756962.55227950419	0
1	4424	757906.328909970207	0
1	4432	758404.403866497961	0
1	4465	761334.74574661977	0
1	4482	764380.688012256885	0
1	4491	765960.086996506979	0
1	4517	771167.815009811691	0
1	4534	775210.936601363972	0
1	4542	776184.337039551356	0
1	4567	778743.415528275367	0
1	4585	783015.904498462313	0
1	4604	794505.244487369913	0
1	4612	794901.17314702548	0
1	4621	795203.683279192256	0
1	4629	795513.160485373664	140.84833759079
1	4661	797475.721842250262	0
1	4687	802075.032052597538	0
1	4705	807227.693158726684	0
1	4713	807497.510952309994	0
1	4738	812211.251344990826	0
1	4755	814878.411905343102	0
1	4764	816156.213331586982	0
1	4792	828679.393072313842	0
1	4800	829382.701008651019	0
1	4825	831951.217756285725	4.764147571173
1	4833	832620.535343225818	0
1	4850	834351.621314654437	0
1	4866	835554.261832627532	0
1	4892	841168.85539396322	0
1	4900	841503.819957465077	151.97339527743
1	4925	844927.069824204297	0
1	4943	849792.753531553285	0
1	4951	850666.291145904444	0
1	4959	851282.665344911567	0
1	4994	858258.094351465423	0
1	5011	861018.542373416694	0
1	5029	868130.854644677964	0
1	5037	868616.134115042665	0
1	5062	871709.290782364399	0
1	5080	877385.181292823303	0
1	5088	877659.69508935914	196.90172898078
1	5113	880060.516380916724	0
1	5121	880731.351125064691	0
1	5130	882038.248141516732	0
1	5163	885673.548531933697	0
1	5180	888114.839162017278	0
1	5196	890719.658255753696	0
1	5205	891032.330597876921	209.66770434437
1	5230	895133.474401992089	0
1	5238	895651.358753268044	0
1	5255	897446.776288906736	0
1	5271	899259.075084276639	0
1	5296	902164.695167357716	0
1	5304	902892.562215637362	0
1	5329	905842.900972720461	0
1	5338	906252.897647556319	0
1	5363	909565.099765049505	0
1	5380	914357.776114976099	0
1	5389	915487.685243572252	0
1	5397	915749.411264164664	62.976957479241
1	5430	918925.560798409737	0
1	5448	926946.231487283373	0
1	5465	929894.506536863276	0
1	5474	930609.097736746645	0
1	5499	934543.640677492388	0
1	5517	940716.645266170606	0
1	5526	943024.482610424764	0
1	5551	946624.60127498035	0
1	5570	956675.528606289346	0
1	5579	958400.814337274601	0
1	5604	961490.956863670625	0
1	5612	962784.644613924231	0
1	5637	965036.979313966229	0
1	5645	965872.579948785563	0
1	5673	976117.351703110503	0
1	5690	980109.328585126553	0
1	5698	980937.010706476946	0
1	5725	987693.923915800914	0
1	5742	990709.635589602184	0
1	5750	991031.767136706412	123.40444105903
1	5758	991555.98525100362	0
1	5766	992240.730460689289	0
1	5774	992889.157142608257	0
1	5825	1001562.593498807261	0
1	5844	1008099.672659259523	0
1	5852	1009541.033604303716	0
1	5868	1010760.000745371961	0
1	5894	1014881.607973215805	0
1	5902	1015617.800176637082	0
1	5910	1016545.686600813518	0
1	5935	1018081.198425417682	175.8080802509
1	5960	1020487.584710154874	0
1	5968	1022287.068881407167	0
1	5985	1023878.824848717296	0
1	6010	1027304.261156394591	0
1	6027	1030375.930605525847	0
2	628	102483.44339796704	1
2	630	102483.44339796704	0
2	636	103063.513716369116	1
2	638	103063.513716369116	0
2	644	104402.747358226383	1
2	646	104402.747358226383	0
2	669	105626.187128766483	1
2	671	105626.187128766483	0
2	695	113971.771321010789	1
2	697	113971.771321010789	0
2	714	120589.726591303893	1
2	716	120589.726591303893	0
2	722	121247.218946632548	1
2	724	121247.218946632548	0
2	730	122133.425188164808	1
2	732	122133.425188164808	0
2	760	124525.319213715711	1
2	765	124677.397807240384	0
2	768	124942.501914779666	1
2	771	124944.885915773515	2
2	776	124972.508951444207	1
2	781	125305.9227862714	0
2	813	129757.357389539733	1
2	815	129757.357389539733	0
2	821	131184.246557258195	1
2	823	131184.246557258195	0
2	846	134023.527413610139	1
2	848	134023.527413610139	0
2	851	134211.942655044292	1
2	856	134323.934881287009	0
2	868	136201.35131810293	1
2	873	136364.628170221476	0
2	888	138352.417934983666	1
2	890	138352.417934983666	0
2	904	139819.314180086509	1
2	906	139819.314180086509	0
2	920	140735.142756916586	1
2	922	140735.142756916586	0
2	946	144173.842250332396	1
2	948	144173.842250332396	0
2	951	144265.121853733388	1
2	956	144470.733071562922	0
2	979	149287.91281861749	1
2	981	149287.91281861749	0
2	997	153124.045531782263	1
2	999	153124.045531782263	0
2	1005	153482.429199188011	1
2	1007	153482.429199188011	0
2	1030	157609.673866471179	1
2	1032	157609.673866471179	0
2	1039	159281.966283479233	1
2	1041	159281.966283479233	0
2	1064	162214.81408838379	1
2	1066	162214.81408838379	0
2	1072	163006.77145739943	1
2	1074	163006.77145739943	0
2	1080	163500.640980410567	1
2	1082	163500.640980410567	0
2	1114	169557.504497250819	1
2	1116	169557.504497250819	0
2	1132	175291.973229449517	1
2	1134	175291.973229449517	0
2	1141	177249.249496150989	1
2	1143	177249.249496150989	0
2	1149	177316.510712349471	1
2	1152	177412.572409192738	2
2	1157	177560.518825107155	1
2	1162	177848.937250077312	0
2	1195	180239.128806071432	1
2	1200	180408.668254914672	0
2	1206	181456.997614472275	1
2	1208	181456.997614472275	0
2	1232	188520.060010966849	1
2	1234	188520.060010966849	0
2	1249	191681.046617772596	1
2	1251	191681.046617772596	0
2	1267	195578.381325341963	1
2	1269	195578.381325341963	0
2	1275	196071.173300202926	1
2	1277	196071.173300202926	0
2	1283	196850.380537898222	1
2	1285	196850.380537898222	0
2	1319	208867.320705047144	1
2	1321	208867.320705047144	0
2	1337	213063.878584054731	1
2	1339	213063.878584054731	0
2	1345	214344.601563914039	1
2	1347	214344.601563914039	0
2	1370	217532.025218075032	1
2	1372	217532.025218075032	0
2	1379	219511.870500840002	1
2	1381	219511.870500840002	0
2	1395	220801.828244939318	1
2	1397	220801.828244939318	0
2	1400	221036.636598958635	1
2	1405	221097.754858648216	0
2	1437	227582.778845857341	1
2	1439	227582.778845857341	0
2	1455	231110.500229126754	1
2	1457	231110.500229126754	0
2	1463	231638.489446539532	1
2	1465	231638.489446539532	0
2	1471	232923.350547306509	1
2	1473	232923.350547306509	0
2	1492	233758.948424677606	1
2	1498	234065.996743757494	0
2	1509	235033.031225943822	1
2	1514	235177.641151355456	0
2	1517	235214.261779149965	1
2	1522	235415.637574958474	0
2	1554	241830.284956215887	1
2	1556	241830.284956215887	0
2	1571	245029.133224040688	1
2	1573	245029.133224040688	0
2	1588	248729.394057649655	1
2	1590	248729.394057649655	0
2	1607	255414.496031155839	1
2	1609	255414.496031155839	0
2	1612	255707.905781803917	1
2	1617	255710.790396121135	0
2	1620	255754.757683661425	1
2	1625	255986.374147922154	0
2	1656	259221.906602763308	1
2	1658	259221.906602763308	0
2	1675	267808.785103873702	1
2	1677	267808.785103873702	0
2	1692	271493.127478610914	1
2	1694	271493.127478610914	0
2	1709	274094.005052805281	1
2	1711	274094.005052805281	0
2	1726	278448.447753676748	1
2	1728	278448.447753676748	0
2	1745	286959.31435317221	1
2	1747	286959.31435317221	0
2	1753	287466.828687206441	1
2	1755	287466.828687206441	0
2	1778	290438.397063404218	1
2	1780	290438.397063404218	0
2	1795	293062.68090316592	1
2	1797	293062.68090316592	0
2	1804	294458.383727687219	1
2	1806	294458.383727687219	0
2	1831	304902.154866245187	1
2	1833	304902.154866245187	0
2	1849	309972.514041258459	1
2	1851	309972.514041258459	0
2	1866	312570.395811314461	1
2	1868	312570.395811314461	0
2	1874	313606.838397454813	1
2	1876	313606.838397454813	0
2	1900	318794.470530692219	1
2	1902	318794.470530692219	0
2	1908	319962.744068809754	1
2	1910	319962.744068809754	0
2	1925	321756.900935500824	1
2	1927	321756.900935500824	0
2	1950	325954.649194231078	1
2	1952	325954.649194231078	0
2	1969	335683.793002418252	1
2	1971	335683.793002418252	0
2	1978	337029.229046597397	1
2	1980	337029.229046597397	0
2	2003	340086.111090410312	1
2	2005	340086.111090410312	0
2	2022	349342.814408967782	1
2	2024	349342.814408967782	0
2	2039	353803.503601972596	1
2	2041	353803.503601972596	0
2	2048	354483.322644694958	1
2	2050	354483.322644694958	0
2	2053	354500.925804169426	1
2	2058	354769.566060687399	0
2	2089	358342.085549020863	1
2	2091	358342.085549020863	0
2	2108	368971.072516414457	1
2	2110	368971.072516414457	0
2	2117	369386.839280525331	1
2	2119	369386.839280525331	0
2	2125	369742.078074031003	1
2	2127	369742.078074031003	0
2	2158	373533.998426966483	1
2	2160	373533.998426966483	0
2	2166	374276.116277898425	1
2	2168	374276.116277898425	0
2	2188	376422.194769084654	1
2	2193	376650.674731308954	0
2	2208	380123.894532252308	1
2	2210	380123.894532252308	0
2	2213	380167.513535820551	1
2	2218	380420.459805999041	0
2	2225	381083.145340952601	1
2	2227	381083.145340952601	0
2	2258	386137.392960355443	1
2	2260	386137.392960355443	0
2	2266	386834.0042499631	1
2	2268	386834.0042499631	0
2	2292	390435.532828286057	1
2	2294	390435.532828286057	0
2	2310	397612.729592309845	1
2	2312	397612.729592309845	0
2	2328	402433.370915388095	1
2	2330	402433.370915388095	0
2	2336	403047.470963647207	1
2	2338	403047.470963647207	0
2	2363	412447.743530164419	1
2	2365	412447.743530164419	0
2	2371	413250.655426512726	1
2	2373	413250.655426512726	0
2	2398	420158.997423442962	1
2	2400	420158.997423442962	0
2	2414	422642.825083092986	1
2	2416	422642.825083092986	0
2	2423	424357.136548814569	1
2	2425	424357.136548814569	0
2	2440	426550.134377259168	1
2	2442	426550.134377259168	0
2	2466	434202.343702768022	1
2	2468	434202.343702768022	0
2	2471	434295.612393938541	1
2	2476	434515.004305289429	0
2	2483	435675.390016362838	1
2	2485	435675.390016362838	0
2	2516	440818.66567289311	1
2	2518	440818.66567289311	0
2	2525	442899.575022716085	1
2	2527	442899.575022716085	0
2	2542	444399.704397737727	1
2	2544	444399.704397737727	0
2	2558	446186.091616729738	1
2	2560	446186.091616729738	0
2	2571	446861.245316296369	1
2	2576	446906.894131943087	0
2	2583	447936.57456171744	1
2	2585	447936.57456171744	0
2	2613	450566.444776625819	1
2	2618	450741.661703224928	0
2	2633	453558.621449804886	1
2	2635	453558.621449804886	0
2	2651	461020.820753602152	1
2	2653	461020.820753602152	0
2	2671	472512.414581970284	1
2	2673	472512.414581970284	0
2	2688	475385.848797407711	1
2	2690	475385.848797407711	0
2	2708	486955.912554000247	1
2	2710	486955.912554000247	0
2	2726	493164.076554043089	1
2	2728	493164.076554043089	0
2	2743	496964.821532980449	1
2	2745	496964.821532980449	0
2	2751	497415.588459736913	1
2	2753	497415.588459736913	0
2	2759	497814.847584983259	1
2	2761	497814.847584983259	0
2	2773	499231.659720088443	1
2	2778	499291.311464253914	0
2	2809	501502.108746492111	1
2	2811	501502.108746492111	0
2	2817	501868.61975879309	1
2	2819	501868.61975879309	0
2	2822	501875.00118099946	1
2	2827	502150.883420561767	0
2	2833	503275.990122050204	1
2	2835	503275.990122050204	0
2	2875	508238.795725908362	1
2	2877	508238.795725908362	0
2	2883	509137.845333329263	1
2	2885	509137.845333329263	0
2	2900	510975.429583664535	1
2	2902	510975.429583664535	0
2	2913	511428.462119250954	1
2	2918	511563.358389691544	0
2	2943	520495.41492247703	1
2	2945	520495.41492247703	0
2	2961	525284.918606851472	1
2	2963	525284.918606851472	0
2	2966	525433.512304683348	1
2	2971	525616.871115491593	0
2	2977	526897.789489844548	1
2	2979	526897.789489844548	0
2	3010	529697.803475296415	1
2	3012	529697.803475296415	0
2	3024	532024.944409453612	1
2	3029	532160.798944473752	0
2	3044	535436.028691095533	1
2	3046	535436.028691095533	0
2	3052	535957.795153291472	1
2	3054	535957.795153291472	0
2	3079	544807.488710636458	1
2	3081	544807.488710636458	0
2	3088	546484.302867890037	1
2	3090	546484.302867890037	0
2	3104	547513.720466178371	1
2	3106	547513.720466178371	0
2	3129	551120.896481159149	1
2	3131	551120.896481159149	0
2	3137	551566.193030770142	1
2	3139	551566.193030770142	0
2	3146	552074.551643313681	1
2	3148	552074.551643313681	0
2	3159	553294.677601516002	1
2	3167	553449.990478989137	0
2	3178	554517.121441662603	1
2	3180	554517.121441662603	0
2	3208	556641.362075207516	1
2	3213	556880.004271544819	0
2	3216	557064.50878856992	1
2	3221	557187.723140194206	0
2	3228	558037.020986632549	1
2	3230	558037.020986632549	0
2	3236	558481.349170339035	1
2	3238	558481.349170339035	0
2	3260	559983.383712196589	1
2	3262	559983.383712196589	0
2	3294	565603.538543154363	1
2	3296	565603.538543154363	0
2	3312	572432.825751100457	1
2	3314	572432.825751100457	0
2	3321	573537.164996564312	1
2	3323	573537.164996564312	0
2	3329	574285.984781610792	1
2	3331	574285.984781610792	0
2	3342	574727.512622226945	1
2	3347	574984.910698095317	0
2	3350	575125.336997991259	1
2	3355	575314.607828872459	0
2	3394	578522.987637104274	1
2	3396	578522.987637104274	0
2	3403	579952.451474705967	1
2	3405	579952.451474705967	0
2	3408	580057.755473933512	1
2	3413	580244.25660962384	0
2	3444	582850.414746284476	1
2	3446	582850.414746284476	0
2	3452	583582.717866394469	1
2	3454	583582.717866394469	0
2	3460	584758.378369355206	1
2	3462	584758.378369355206	0
2	3495	592829.353970837638	1
2	3497	592829.353970837638	0
2	3503	593860.65802094895	1
2	3505	593860.65802094895	0
2	3528	596433.6419052364	1
2	3530	596433.6419052364	0
2	3547	603334.441900442364	1
2	3549	603334.441900442364	0
2	3564	606025.354475440887	1
2	3566	606025.354475440887	0
2	3583	615478.480080896867	1
2	3585	615478.480080896867	0
2	3591	617593.376638263333	1
2	3593	617593.376638263333	0
2	3613	619852.568722052966	1
2	3618	619903.585718041769	0
2	3621	620186.311739222905	1
2	3626	620217.207924326091	0
2	3649	623070.908336615509	1
2	3651	623070.908336615509	0
2	3668	631961.350716298725	1
2	3670	631961.350716298725	0
2	3686	636486.873666710165	1
2	3688	636486.873666710165	0
2	3694	637685.487547049681	1
2	3696	637685.487547049681	0
2	3719	640234.30476605019	1
2	3721	640234.30476605019	0
2	3727	640779.269747877484	1
2	3729	640779.269747877484	0
2	3756	655300.314308842932	1
2	3758	655300.314308842932	0
2	3764	656834.863342823992	1
2	3766	656834.863342823992	0
2	3778	657831.701271612337	1
2	3783	657876.016640908032	0
2	3786	657965.001026047364	1
2	3791	658202.564252611634	0
2	3824	667109.11865982104	1
2	3826	667109.11865982104	0
2	3832	668732.443436544916	1
2	3834	668732.443436544916	0
2	3858	672785.938648137562	1
2	3860	672785.938648137562	0
2	3863	672834.611191769678	1
2	3868	673084.099422282241	0
2	3891	675825.753834361506	1
2	3893	675825.753834361506	0
2	3899	676506.418715801142	1
2	3901	676506.418715801142	0
2	3907	677335.776330725718	1
2	3909	677335.776330725718	0
2	3937	679777.971574687774	1
2	3942	679954.039104246159	0
2	3949	681062.310845953853	1
2	3951	681062.310845953853	0
2	3974	686067.423674595935	1
2	3976	686067.423674595935	0
2	3983	687403.869533700012	1
2	3985	687403.869533700012	0
2	4008	690992.021622459033	1
2	4010	690992.021622459033	0
2	4025	694489.956385730896	1
2	4027	694489.956385730896	0
2	4033	695056.255352175913	1
2	4035	695056.255352175913	0
2	4060	702384.168988306425	1
2	4062	702384.168988306425	0
2	4068	702740.402752059069	1
2	4070	702740.402752059069	0
2	4093	706467.801860560125	1
2	4095	706467.801860560125	0
2	4098	706480.540051405096	1
2	4103	706817.138138422603	0
2	4128	715279.594120165116	1
2	4130	715279.594120165116	0
2	4136	715871.689322294075	1
2	4138	715871.689322294075	0
2	4161	718282.783910817641	1
2	4163	718282.783910817641	0
2	4166	718416.50380874101	1
2	4171	718578.263567904745	0
2	4195	724748.412158235978	1
2	4197	724748.412158235978	0
2	4212	727362.03156458392	1
2	4214	727362.03156458392	0
2	4226	729572.338812427576	1
2	4231	729781.830676474406	0
2	4247	736025.56634740124	1
2	4249	736025.56634740124	0
2	4255	736696.155757612983	1
2	4257	736696.155757612983	0
2	4272	738553.463704669977	1
2	4274	738553.463704669977	0
2	4297	741988.991572706522	1
2	4299	741988.991572706522	0
2	4314	744459.269025260412	1
2	4316	744459.269025260412	0
2	4322	745229.182168958286	1
2	4324	745229.182168958286	0
2	4327	745250.035104962643	1
2	4332	745605.648054127903	0
2	4347	747289.896635754703	1
2	4349	747289.896635754703	0
2	4368	748085.703806207354	1
2	4373	748240.873237116513	0
2	4387	749666.489800998188	1
2	4389	749666.489800998188	0
2	4414	756962.55227950419	1
2	4416	756962.55227950419	0
2	4422	757906.328909970207	1
2	4424	757906.328909970207	0
2	4430	758404.403866497961	1
2	4432	758404.403866497961	0
2	4463	761334.74574661977	1
2	4465	761334.74574661977	0
2	4480	764380.688012256885	1
2	4482	764380.688012256885	0
2	4489	765960.086996506979	1
2	4491	765960.086996506979	0
2	4515	771167.815009811691	1
2	4517	771167.815009811691	0
2	4532	775210.936601363972	1
2	4534	775210.936601363972	0
2	4540	776184.337039551356	1
2	4542	776184.337039551356	0
2	4565	778743.415528275367	1
2	4567	778743.415528275367	0
2	4583	783015.904498462313	1
2	4585	783015.904498462313	0
2	4602	794505.244487369913	1
2	4604	794505.244487369913	0
2	4610	794901.17314702548	1
2	4612	794901.17314702548	0
2	4619	795203.683279192256	1
2	4621	795203.683279192256	0
2	4624	795372.312147782878	1
2	4629	795513.160485373664	0
2	4659	797475.721842250262	1
2	4661	797475.721842250262	0
2	4685	802075.032052597538	1
2	4687	802075.032052597538	0
2	4703	807227.693158726684	1
2	4705	807227.693158726684	0
2	4711	807497.510952309994	1
2	4713	807497.510952309994	0
2	4736	812211.251344990826	1
2	4738	812211.251344990826	0
2	4753	814878.411905343102	1
2	4755	814878.411905343102	0
2	4762	816156.213331586982	1
2	4764	816156.213331586982	0
2	4790	828679.393072313842	1
2	4792	828679.393072313842	0
2	4798	829382.701008651019	1
2	4800	829382.701008651019	0
2	4820	831946.453608714552	1
2	4825	831951.217756285725	0
2	4831	832620.535343225818	1
2	4833	832620.535343225818	0
2	4848	834351.621314654437	1
2	4850	834351.621314654437	0
2	4864	835554.261832627532	1
2	4866	835554.261832627532	0
2	4890	841168.85539396322	1
2	4892	841168.85539396322	0
2	4895	841351.846562187651	1
2	4900	841503.819957465077	0
2	4923	844927.069824204297	1
2	4925	844927.069824204297	0
2	4941	849792.753531553285	1
2	4943	849792.753531553285	0
2	4949	850666.291145904444	1
2	4951	850666.291145904444	0
2	4957	851282.665344911567	1
2	4959	851282.665344911567	0
2	4992	858258.094351465423	1
2	4994	858258.094351465423	0
2	5009	861018.542373416694	1
2	5011	861018.542373416694	0
2	5027	868130.854644677964	1
2	5029	868130.854644677964	0
2	5035	868616.134115042665	1
2	5037	868616.134115042665	0
2	5060	871709.290782364399	1
2	5062	871709.290782364399	0
2	5078	877385.181292823303	1
2	5080	877385.181292823303	0
2	5083	877462.793360378363	1
2	5088	877659.69508935914	0
2	5111	880060.516380916724	1
2	5113	880060.516380916724	0
2	5119	880731.351125064691	1
2	5121	880731.351125064691	0
2	5128	882038.248141516732	1
2	5130	882038.248141516732	0
2	5161	885673.548531933697	1
2	5163	885673.548531933697	0
2	5178	888114.839162017278	1
2	5180	888114.839162017278	0
2	5194	890719.658255753696	1
2	5196	890719.658255753696	0
2	5199	890822.662893532547	1
2	5205	891032.330597876921	0
2	5228	895133.474401992089	1
2	5230	895133.474401992089	0
2	5236	895651.358753268044	1
2	5238	895651.358753268044	0
2	5253	897446.776288906736	1
2	5255	897446.776288906736	0
2	5269	899259.075084276639	1
2	5271	899259.075084276639	0
2	5294	902164.695167357716	1
2	5296	902164.695167357716	0
2	5302	902892.562215637362	1
2	5304	902892.562215637362	0
2	5327	905842.900972720461	1
2	5329	905842.900972720461	0
2	5336	906252.897647556319	1
2	5338	906252.897647556319	0
2	5361	909565.099765049505	1
2	5363	909565.099765049505	0
2	5378	914357.776114976099	1
2	5380	914357.776114976099	0
2	5387	915487.685243572252	1
2	5389	915487.685243572252	0
2	5392	915686.434306685423	1
2	5397	915749.411264164664	0
2	5428	918925.560798409737	1
2	5430	918925.560798409737	0
2	5446	926946.231487283373	1
2	5448	926946.231487283373	0
2	5463	929894.506536863276	1
2	5465	929894.506536863276	0
2	5472	930609.097736746645	1
2	5474	930609.097736746645	0
2	5497	934543.640677492388	1
2	5499	934543.640677492388	0
2	5515	940716.645266170606	1
2	5517	940716.645266170606	0
2	5524	943024.482610424764	1
2	5526	943024.482610424764	0
2	5549	946624.60127498035	1
2	5551	946624.60127498035	0
2	5568	956675.528606289346	1
2	5570	956675.528606289346	0
2	5577	958400.814337274601	1
2	5579	958400.814337274601	0
2	5602	961490.956863670625	1
2	5604	961490.956863670625	0
2	5610	962784.644613924231	1
2	5612	962784.644613924231	0
2	5635	965036.979313966229	1
2	5637	965036.979313966229	0
2	5643	965872.579948785563	1
2	5645	965872.579948785563	0
2	5671	976117.351703110503	1
2	5673	976117.351703110503	0
2	5688	980109.328585126553	1
2	5690	980109.328585126553	0
2	5696	980937.010706476946	1
2	5698	980937.010706476946	0
2	5723	987693.923915800914	1
2	5725	987693.923915800914	0
2	5740	990709.635589602184	1
2	5742	990709.635589602184	0
2	5745	990908.362695647381	1
2	5750	991031.767136706412	0
2	5756	991555.98525100362	1
2	5758	991555.98525100362	0
2	5764	992240.730460689289	1
2	5766	992240.730460689289	0
2	5772	992889.157142608257	1
2	5774	992889.157142608257	0
2	5823	1001562.593498807261	1
2	5825	1001562.593498807261	0
2	5842	1008099.672659259523	1
2	5844	1008099.672659259523	0
2	5850	1009541.033604303716	1
2	5852	1009541.033604303716	0
2	5866	1010760.000745371961	1
2	5868	1010760.000745371961	0
2	5892	1014881.607973215805	1
2	5894	1014881.607973215805	0
2	5900	1015617.800176637082	1
2	5902	1015617.800176637082	0
2	5908	1016545.686600813518	1
2	5910	1016545.686600813518	0
2	5930	1017905.390345166777	1
2	5935	1018081.198425417682	0
2	5958	1020487.584710154874	1
2	5960	1020487.584710154874	0
2	5966	1022287.068881407167	1
2	5968	1022287.068881407167	0
2	5983	1023878.824848717296	1
2	5985	1023878.824848717296	0
2	6008	1027304.261156394591	1
2	6010	1027304.261156394591	0
2	6025	1030375.930605525847	1
2	6027	1030375.930605525847	0
3	622	102051.781102866123	0
3	654	104695.683785875881	68.170040528459
3	663	105011.929488054817	89.802804188163
3	679	106268.308529748054	0
3	687	107682.22877823333	0
3	706	116075.313781117549	0
3	740	122583.43341332246	0
3	749	123149.216976464061	0
3	757	124367.407090387967	0
3	790	126568.156134207818	0
3	798	127111.024989776641	0
3	806	127416.189496297801	0
3	831	131625.651251176289	0
3	840	133368.730648113302	0
3	865	136062.677344818088	0
3	881	136675.817312730127	305.00596004561
3	898	138803.867743747808	0
3	914	140419.307305116204	0
3	931	141919.417010593301	0
3	939	143037.916169729136	0
3	964	146139.938929365987	0
3	972	146523.983160585487	139.43528779293
3	990	151568.719547569049	0
3	1015	154937.224786343937	0
3	1023	155420.042080403751	0
3	1049	159709.912993501834	0
3	1057	161361.881794574436	0
3	1090	164129.327986710063	0
3	1099	165245.573198692405	0
3	1107	165738.356446235246	0
3	1125	171764.015963935561	0
3	1167	178188.054267953818	900.47413094516
3	1175	179343.036173498505	0
3	1183	179671.86972604677	197.66504058889
3	1192	180120.474775621128	0
3	1216	182616.113268980001	0
3	1225	183514.574018709636	0
3	1243	190536.118098895591	0
3	1260	194018.42737387002	0
3	1293	197671.844364939276	0
3	1302	198194.837407190849	0
3	1310	198898.091167620557	0
3	1330	211552.575963870001	0
3	1355	215137.866887846827	0
3	1364	216869.303940185581	0
3	1389	219786.260700839304	233.0863263738
3	1413	221717.424827145484	0
3	1422	222765.745322510233	0
3	1430	223270.155047125253	0
3	1448	229595.952706581098	0
3	1481	233345.83746882137	0
3	1489	233747.904322841958	0
3	1506	234862.975702733125	0
3	1530	235967.786108082662	0
3	1539	237093.666941665239	0
3	1547	237743.73381598595	0
3	1565	243837.621119568287	0
3	1582	247114.537391417024	0
3	1599	250672.884007401767	0
3	1633	257504.226735912902	0
3	1641	257784.353756083578	0
3	1650	258241.527404161529	0
3	1667	261587.080865850021	0
3	1685	269947.845386848329	0
3	1703	273497.738034258845	0
3	1720	276498.145643617544	0
3	1737	280621.551452129574	0
3	1764	289099.974565875387	0
3	1772	289822.542464798242	0
3	1789	292673.900924775326	0
3	1814	295466.869502016068	0
3	1822	296507.739950509386	0
3	1842	307118.310810197123	0
3	1860	312291.546687344145	0
3	1884	314384.717484067692	0
3	1893	315858.490615592513	0
3	1918	320633.720964236705	0
3	1935	322059.625015229467	0
3	1944	324012.396624836068	0
3	1961	328064.901302918255	0
3	1988	337824.835499079355	0
3	1997	339174.910255105306	0
3	2014	342013.808260649799	0
3	2033	351322.635129152704	0
3	2066	355881.410016962989	0
3	2074	356551.344541519462	0
3	2082	356897.687381075658	9.189315437757
3	2099	359912.945213654082	0
3	2135	371299.096207773435	0
3	2143	371612.376797983096	159.64531695042
3	2151	371886.539292997535	157.27213131334
3	2177	375326.237847292447	0
3	2185	376362.424823457249	0
3	2202	379004.453950202664	0
3	2235	382230.947870426036	0
3	2243	382808.936137040024	0
3	2251	383644.812821385648	0
3	2277	388285.844618676941	0
3	2285	389101.994891837815	0
3	2302	392498.189824370974	0
3	2321	399958.1735395513	0
3	2346	404601.798041106395	0
3	2355	405514.646938944414	0
3	2382	414402.363432590167	0
3	2390	415278.167861087717	0
3	2408	422130.357956031647	0
3	2433	424692.024489635016	0
3	2450	426871.663384082925	220.99057768397
3	2458	428750.403904589729	0
3	2493	436330.093977698023	0
3	2501	436695.361470311283	0
3	2509	437867.500110140447	0
3	2535	443254.984041769824	0
3	2552	445106.058899330586	0
3	2568	446562.345729175264	128.52810858699
3	2593	448204.812108746025	113.37435496616
3	2601	449277.471322598841	0
3	2610	450510.996468071916	0
3	2626	452709.181475334774	0
3	2643	455606.921705556015	0
3	2662	462910.226200209665	0
3	2682	474589.621230296789	0
3	2699	477342.384135006016	0
3	2718	488545.708576053142	0
3	2737	495236.996014670363	0
3	2770	498978.197650008805	0
3	2786	499549.121595704634	126.84295532776
3	2794	499818.038430759603	90.905362763422
3	2803	501033.3202154952	0
3	2843	503642.194428383045	6.185762510348
3	2852	504200.231956396401	0
3	2860	504500.803943077466	0
3	2868	505453.089271185243	0
3	2894	510198.411582878663	0
3	2910	511262.579468787106	87.133517074128
3	2926	512976.180278109757	0
3	2935	513553.837161984007	0
3	2954	522455.091161804917	0
3	2987	527577.311480589866	0
3	2995	527835.291966509907	186.58400139737
3	3004	528995.558012806214	0
3	3021	531846.731189871045	0
3	3038	534069.000116778681	0
3	3063	537569.962523442311	0
3	3071	538192.236524882908	0
3	3098	547037.535400460864	0
3	3114	548179.200571270784	0
3	3123	549738.398146005248	0
3	3156	553185.267406245213	0
3	3172	553726.009446554542	338.65706051842
3	3188	554875.380399993704	346.6657634297
3	3197	555413.897187008261	0
3	3205	556576.752734921654	0
3	3246	559050.909956478795	0
3	3254	559415.759441319675	55.813312290621
3	3270	560464.605499610252	0
3	3278	560737.500575288639	237.66690703637
3	3287	561904.41065733413	0
3	3305	567488.116809211909	0
3	3339	574650.461116781545	0
3	3363	575536.761693424648	39.559993908267
3	3372	576414.678933328862	0
3	3380	577121.222398592426	0
3	3388	577435.373723282148	126.51628314605
3	3421	580582.893027619442	0
3	3429	581825.25023687008	0
3	3438	582110.287616022251	49.711250540451
3	3471	585055.684648966699	0
3	3479	585678.034793224465	0
3	3487	586888.538284197354	0
3	3514	594836.672053451055	0
3	3522	595737.988079914181	0
3	3539	598281.374950898092	0
3	3557	605241.170661257724	0
3	3574	608254.815846145337	0
3	3601	617908.667553836597	206.18156687686
3	3610	619598.203819092374	0
3	3635	622003.063405308426	0
3	3643	622283.932120957606	182.73341092376
3	3660	625605.791124400014	0
3	3679	633999.049389162785	0
3	3704	638850.770812971102	0
3	3713	639740.814317359842	0
3	3738	642512.188433815309	0
3	3746	642892.339505347094	66.520136460701
3	3775	657570.289264262225	0
3	3799	658696.780359849858	0
3	3807	659885.819772938258	0
3	3816	660624.673747478468	0
3	3843	669436.351446709392	0
3	3851	670500.777121499927	0
3	3876	674818.188141144108	0
3	3885	675333.565271120215	0
3	3917	677876.76333409304	0
3	3926	678465.750895639264	0
3	3934	679618.259217975314	0
3	3959	682060.442993406531	0
3	3967	683184.88366783581	0
3	3993	688372.783512798934	0
3	4001	689255.406075393343	0
3	4019	693172.512855307074	0
3	4044	696644.020424307905	0
3	4052	697064.302840358515	0
3	4078	704537.134780349153	0
3	4087	705164.922475204924	0
3	4112	708687.78893097079	0
3	4120	708949.163861966598	18.157232603077
3	4147	717309.367130674167	0
3	4155	717896.008858449535	0
3	4180	720417.382639118783	0
3	4188	720680.111702490203	67.134784008537
3	4206	727070.148232347679	0
3	4223	729521.223684136579	0
3	4239	731868.482437794424	0
3	4265	737774.450536125762	0
3	4282	738854.099275348775	216.48344428131
3	4290	740792.3539212155	0
3	4307	743987.54768658049	0
3	4340	746437.521696369082	0
3	4357	747564.747671049923	264.80956373738
3	4365	747905.045364430772	296.95981497674
3	4381	749357.220548579603	0
3	4398	750460.28406485828	0
3	4406	751655.05856957671	0
3	4441	759036.297364007038	0
3	4449	760078.333374812251	0
3	4457	760630.797877219583	0
3	4474	763791.548749816298	0
3	4499	766588.264247555909	0
3	4507	767618.742146774584	0
3	4525	773380.257577089988	0
3	4551	777165.97766696969	0
3	4559	778103.47735492437	0
3	4576	780503.578266672372	0
3	4593	785162.107774740894	0
3	4637	796442.975806717911	0
3	4645	796814.554297155359	0
3	4653	797143.101890395656	16.50251453994
3	4670	798035.08199148184	0
3	4678	799717.536882229014	0
3	4696	804405.492390519932	0
3	4721	809441.606999194806	0
3	4729	809726.28306067775	57.911545504598
3	4747	814400.793846038279	0
3	4772	816574.726498410565	0
3	4780	818131.491569340149	0
3	4808	830854.735998519414	0
3	4817	831644.982568030738	0
3	4842	834020.64400081587	0
3	4858	834984.810624889377	0
3	4874	836205.950796509312	0
3	4883	837628.68610936311	0
3	4909	843330.884453923693	0
3	4917	843778.731525060058	0
3	4934	846717.748313711557	0
3	4967	851984.662906074349	0
3	4976	852629.441981489404	0
3	4984	853539.947106050752	0
3	5002	860545.612599561305	0
3	5019	863206.964771328813	0
3	5046	870356.413940277788	0
3	5054	870688.301117157737	232.575076077
3	5071	874054.963260899892	0
3	5097	879127.522500079367	0
3	5105	879676.521303448863	0
3	5138	882434.001969973278	0
3	5146	882745.089997828389	0
3	5154	884204.893617883665	0
3	5171	887834.189865678892	0
3	5188	889880.818676729219	0
3	5213	892836.824808823328	0
3	5221	893382.149613314195	0
3	5247	897056.300248051784	0
3	5263	897787.108205165962	0
3	5279	899847.842290991195	0
3	5288	901150.669827205953	0
3	5313	904437.185291851103	0
3	5321	904835.957128390235	0
3	5346	907837.583860976155	0
3	5354	908642.200645800147	0
3	5371	911479.448599936733	0
3	5405	916498.043933459579	0
3	5413	917161.280390810675	0
3	5421	917649.197024144842	0
3	5439	921054.11304726753	0
3	5457	928812.175871187815	0
3	5482	931868.988003821076	0
3	5490	932530.393786584413	0
3	5508	936484.934348853723	0
3	5534	943338.59710199763	129.95210908414
3	5542	944975.239893739245	0
3	5560	948826.604830555012	0
3	5587	958711.013480732285	0
3	5596	960260.610671448472	0
3	5621	963421.802054563479	0
3	5629	964716.612193662704	0
3	5654	966833.898659701966	0
3	5662	968053.453554203365	0
3	5681	977995.762740860824	0
3	5707	982149.604422906119	0
3	5715	983213.308769153776	0
3	5733	989629.039853308663	0
3	5786	993197.436751980416	239.82297158146
3	5791	993533.554742193865	533.52253074885
3	5799	993804.687231015222	0
3	5807	994326.548444001372	0
3	5815	994700.585370757358	0
3	5834	1003840.537810290576	0
3	5860	1009946.668337461434	0
3	5877	1011656.280578724623	0
3	5885	1013010.669999833246	0
3	5918	1016871.787885029471	22.431703770742
3	5927	1017795.32134288323	0
3	5943	1018540.914042627231	0
3	5952	1020180.914932950777	0
3	5976	1022822.056579476904	0
3	5993	1024490.3661055946	0
3	6002	1026364.21684918027	0
3	6019	1029612.122204129593	0
3	6036	1032365.820023901284	0
4	620	102051.781102866123	1
4	622	102051.781102866123	0
4	649	104627.513745347422	1
4	654	104695.683785875881	0
4	657	104922.126683866654	1
4	663	105011.929488054817	0
4	677	106268.308529748054	1
4	679	106268.308529748054	0
4	685	107682.22877823333	1
4	687	107682.22877823333	0
4	704	116075.313781117549	1
4	706	116075.313781117549	0
4	738	122583.43341332246	1
4	740	122583.43341332246	0
4	747	123149.216976464061	1
4	749	123149.216976464061	0
4	755	124367.407090387967	1
4	757	124367.407090387967	0
4	788	126568.156134207818	1
4	790	126568.156134207818	0
4	796	127111.024989776641	1
4	798	127111.024989776641	0
4	804	127416.189496297801	1
4	806	127416.189496297801	0
4	829	131625.651251176289	1
4	831	131625.651251176289	0
4	838	133368.730648113302	1
4	840	133368.730648113302	0
4	863	136062.677344818088	1
4	865	136062.677344818088	0
4	876	136370.811352684512	1
4	881	136675.817312730127	0
4	896	138803.867743747808	1
4	898	138803.867743747808	0
4	912	140419.307305116204	1
4	914	140419.307305116204	0
4	929	141919.417010593301	1
4	931	141919.417010593301	0
4	937	143037.916169729136	1
4	939	143037.916169729136	0
4	962	146139.938929365987	1
4	964	146139.938929365987	0
4	967	146384.547872792558	1
4	972	146523.983160585487	0
4	988	151568.719547569049	1
4	990	151568.719547569049	0
4	1013	154937.224786343937	1
4	1015	154937.224786343937	0
4	1021	155420.042080403751	1
4	1023	155420.042080403751	0
4	1047	159709.912993501834	1
4	1049	159709.912993501834	0
4	1055	161361.881794574436	1
4	1057	161361.881794574436	0
4	1088	164129.327986710063	1
4	1090	164129.327986710063	0
4	1097	165245.573198692405	1
4	1099	165245.573198692405	0
4	1105	165738.356446235246	1
4	1107	165738.356446235246	0
4	1123	171764.015963935561	1
4	1125	171764.015963935561	0
4	1146	177287.580137008661	1
4	1167	178188.054267953818	0
4	1173	179343.036173498505	1
4	1175	179343.036173498505	0
4	1178	179474.204685457882	1
4	1183	179671.86972604677	0
4	1190	180120.474775621128	1
4	1192	180120.474775621128	0
4	1214	182616.113268980001	1
4	1216	182616.113268980001	0
4	1223	183514.574018709636	1
4	1225	183514.574018709636	0
4	1241	190536.118098895591	1
4	1243	190536.118098895591	0
4	1258	194018.42737387002	1
4	1260	194018.42737387002	0
4	1291	197671.844364939276	1
4	1293	197671.844364939276	0
4	1300	198194.837407190849	1
4	1302	198194.837407190849	0
4	1308	198898.091167620557	1
4	1310	198898.091167620557	0
4	1328	211552.575963870001	1
4	1330	211552.575963870001	0
4	1353	215137.866887846827	1
4	1355	215137.866887846827	0
4	1362	216869.303940185581	1
4	1364	216869.303940185581	0
4	1384	219553.174374465507	1
4	1389	219786.260700839304	0
4	1411	221717.424827145484	1
4	1413	221717.424827145484	0
4	1420	222765.745322510233	1
4	1422	222765.745322510233	0
4	1428	223270.155047125253	1
4	1430	223270.155047125253	0
4	1446	229595.952706581098	1
4	1448	229595.952706581098	0
4	1479	233345.83746882137	1
4	1481	233345.83746882137	0
4	1487	233747.904322841958	1
4	1489	233747.904322841958	0
4	1504	234862.975702733125	1
4	1506	234862.975702733125	0
4	1528	235967.786108082662	1
4	1530	235967.786108082662	0
4	1537	237093.666941665239	1
4	1539	237093.666941665239	0
4	1545	237743.73381598595	1
4	1547	237743.73381598595	0
4	1563	243837.621119568287	1
4	1565	243837.621119568287	0
4	1580	247114.537391417024	1
4	1582	247114.537391417024	0
4	1597	250672.884007401767	1
4	1599	250672.884007401767	0
4	1631	257504.226735912902	1
4	1633	257504.226735912902	0
4	1639	257784.353756083578	1
4	1641	257784.353756083578	0
4	1648	258241.527404161529	1
4	1650	258241.527404161529	0
4	1665	261587.080865850021	1
4	1667	261587.080865850021	0
4	1683	269947.845386848329	1
4	1685	269947.845386848329	0
4	1701	273497.738034258845	1
4	1703	273497.738034258845	0
4	1718	276498.145643617544	1
4	1720	276498.145643617544	0
4	1735	280621.551452129574	1
4	1737	280621.551452129574	0
4	1762	289099.974565875387	1
4	1764	289099.974565875387	0
4	1770	289822.542464798242	1
4	1772	289822.542464798242	0
4	1787	292673.900924775326	1
4	1789	292673.900924775326	0
4	1812	295466.869502016068	1
4	1814	295466.869502016068	0
4	1820	296507.739950509386	1
4	1822	296507.739950509386	0
4	1840	307118.310810197123	1
4	1842	307118.310810197123	0
4	1858	312291.546687344145	1
4	1860	312291.546687344145	0
4	1882	314384.717484067692	1
4	1884	314384.717484067692	0
4	1891	315858.490615592513	1
4	1893	315858.490615592513	0
4	1916	320633.720964236705	1
4	1918	320633.720964236705	0
4	1933	322059.625015229467	1
4	1935	322059.625015229467	0
4	1942	324012.396624836068	1
4	1944	324012.396624836068	0
4	1959	328064.901302918255	1
4	1961	328064.901302918255	0
4	1986	337824.835499079355	1
4	1988	337824.835499079355	0
4	1995	339174.910255105306	1
4	1997	339174.910255105306	0
4	2012	342013.808260649799	1
4	2014	342013.808260649799	0
4	2031	351322.635129152704	1
4	2033	351322.635129152704	0
4	2064	355881.410016962989	1
4	2066	355881.410016962989	0
4	2072	356551.344541519462	1
4	2074	356551.344541519462	0
4	2077	356888.498065637901	1
4	2082	356897.687381075658	0
4	2097	359912.945213654082	1
4	2099	359912.945213654082	0
4	2133	371299.096207773435	1
4	2135	371299.096207773435	0
4	2138	371452.731481032678	1
4	2143	371612.376797983096	0
4	2146	371729.267161684195	1
4	2151	371886.539292997535	0
4	2175	375326.237847292447	1
4	2177	375326.237847292447	0
4	2183	376362.424823457249	1
4	2185	376362.424823457249	0
4	2200	379004.453950202664	1
4	2202	379004.453950202664	0
4	2233	382230.947870426036	1
4	2235	382230.947870426036	0
4	2241	382808.936137040024	1
4	2243	382808.936137040024	0
4	2249	383644.812821385648	1
4	2251	383644.812821385648	0
4	2275	388285.844618676941	1
4	2277	388285.844618676941	0
4	2283	389101.994891837815	1
4	2285	389101.994891837815	0
4	2300	392498.189824370974	1
4	2302	392498.189824370974	0
4	2319	399958.1735395513	1
4	2321	399958.1735395513	0
4	2344	404601.798041106395	1
4	2346	404601.798041106395	0
4	2353	405514.646938944414	1
4	2355	405514.646938944414	0
4	2380	414402.363432590167	1
4	2382	414402.363432590167	0
4	2388	415278.167861087717	1
4	2390	415278.167861087717	0
4	2406	422130.357956031647	1
4	2408	422130.357956031647	0
4	2431	424692.024489635016	1
4	2433	424692.024489635016	0
4	2445	426650.672806398954	1
4	2450	426871.663384082925	0
4	2456	428750.403904589729	1
4	2458	428750.403904589729	0
4	2491	436330.093977698023	1
4	2493	436330.093977698023	0
4	2499	436695.361470311283	1
4	2501	436695.361470311283	0
4	2507	437867.500110140447	1
4	2509	437867.500110140447	0
4	2533	443254.984041769824	1
4	2535	443254.984041769824	0
4	2550	445106.058899330586	1
4	2552	445106.058899330586	0
4	2563	446433.817620588278	1
4	2568	446562.345729175264	0
4	2588	448091.437753779866	1
4	2593	448204.812108746025	0
4	2599	449277.471322598841	1
4	2601	449277.471322598841	0
4	2608	450510.996468071916	1
4	2610	450510.996468071916	0
4	2624	452709.181475334774	1
4	2626	452709.181475334774	0
4	2641	455606.921705556015	1
4	2643	455606.921705556015	0
4	2660	462910.226200209665	1
4	2662	462910.226200209665	0
4	2680	474589.621230296789	1
4	2682	474589.621230296789	0
4	2697	477342.384135006016	1
4	2699	477342.384135006016	0
4	2716	488545.708576053142	1
4	2718	488545.708576053142	0
4	2735	495236.996014670363	1
4	2737	495236.996014670363	0
4	2768	498978.197650008805	1
4	2770	498978.197650008805	0
4	2781	499422.278640376876	1
4	2786	499549.121595704634	0
4	2789	499727.133067996181	1
4	2794	499818.038430759603	0
4	2801	501033.3202154952	1
4	2803	501033.3202154952	0
4	2838	503636.008665872697	1
4	2843	503642.194428383045	0
4	2850	504200.231956396401	1
4	2852	504200.231956396401	0
4	2858	504500.803943077466	1
4	2860	504500.803943077466	0
4	2866	505453.089271185243	1
4	2868	505453.089271185243	0
4	2892	510198.411582878663	1
4	2894	510198.411582878663	0
4	2905	511175.445951712978	1
4	2910	511262.579468787106	0
4	2924	512976.180278109757	1
4	2926	512976.180278109757	0
4	2933	513553.837161984007	1
4	2935	513553.837161984007	0
4	2952	522455.091161804917	1
4	2954	522455.091161804917	0
4	2985	527577.311480589866	1
4	2987	527577.311480589866	0
4	2990	527648.707965112534	1
4	2995	527835.291966509907	0
4	3002	528995.558012806214	1
4	3004	528995.558012806214	0
4	3019	531846.731189871045	1
4	3021	531846.731189871045	0
4	3036	534069.000116778681	1
4	3038	534069.000116778681	0
4	3061	537569.962523442311	1
4	3063	537569.962523442311	0
4	3069	538192.236524882908	1
4	3071	538192.236524882908	0
4	3096	547037.535400460864	1
4	3098	547037.535400460864	0
4	3112	548179.200571270784	1
4	3114	548179.200571270784	0
4	3121	549738.398146005248	1
4	3123	549738.398146005248	0
4	3154	553185.267406245213	1
4	3156	553185.267406245213	0
4	3162	553387.352386036121	1
4	3172	553726.009446554542	0
4	3183	554528.714636564003	1
4	3188	554875.380399993704	0
4	3195	555413.897187008261	1
4	3197	555413.897187008261	0
4	3203	556576.752734921654	1
4	3205	556576.752734921654	0
4	3244	559050.909956478795	1
4	3246	559050.909956478795	0
4	3249	559359.946129029054	1
4	3254	559415.759441319675	0
4	3268	560464.605499610252	1
4	3270	560464.605499610252	0
4	3273	560499.833668252272	1
4	3278	560737.500575288639	0
4	3285	561904.41065733413	1
4	3287	561904.41065733413	0
4	3303	567488.116809211909	1
4	3305	567488.116809211909	0
4	3337	574650.461116781545	1
4	3339	574650.461116781545	0
4	3358	575497.201699516381	1
4	3363	575536.761693424648	0
4	3370	576414.678933328862	1
4	3372	576414.678933328862	0
4	3378	577121.222398592426	1
4	3380	577121.222398592426	0
4	3383	577308.857440136095	1
4	3388	577435.373723282148	0
4	3419	580582.893027619442	1
4	3421	580582.893027619442	0
4	3427	581825.25023687008	1
4	3429	581825.25023687008	0
4	3433	582060.5763654818	1
4	3438	582110.287616022251	0
4	3469	585055.684648966699	1
4	3471	585055.684648966699	0
4	3477	585678.034793224465	1
4	3479	585678.034793224465	0
4	3485	586888.538284197354	1
4	3487	586888.538284197354	0
4	3512	594836.672053451055	1
4	3514	594836.672053451055	0
4	3520	595737.988079914181	1
4	3522	595737.988079914181	0
4	3537	598281.374950898092	1
4	3539	598281.374950898092	0
4	3555	605241.170661257724	1
4	3557	605241.170661257724	0
4	3572	608254.815846145337	1
4	3574	608254.815846145337	0
4	3596	617702.485986959738	1
4	3601	617908.667553836597	0
4	3608	619598.203819092374	1
4	3610	619598.203819092374	0
4	3633	622003.063405308426	1
4	3635	622003.063405308426	0
4	3638	622101.198710033849	1
4	3643	622283.932120957606	0
4	3658	625605.791124400014	1
4	3660	625605.791124400014	0
4	3677	633999.049389162785	1
4	3679	633999.049389162785	0
4	3702	638850.770812971102	1
4	3704	638850.770812971102	0
4	3711	639740.814317359842	1
4	3713	639740.814317359842	0
4	3736	642512.188433815309	1
4	3738	642512.188433815309	0
4	3741	642825.819368886393	1
4	3746	642892.339505347094	0
4	3773	657570.289264262225	1
4	3775	657570.289264262225	0
4	3797	658696.780359849858	1
4	3799	658696.780359849858	0
4	3805	659885.819772938258	1
4	3807	659885.819772938258	0
4	3814	660624.673747478468	1
4	3816	660624.673747478468	0
4	3841	669436.351446709392	1
4	3843	669436.351446709392	0
4	3849	670500.777121499927	1
4	3851	670500.777121499927	0
4	3874	674818.188141144108	1
4	3876	674818.188141144108	0
4	3883	675333.565271120215	1
4	3885	675333.565271120215	0
4	3915	677876.76333409304	1
4	3917	677876.76333409304	0
4	3924	678465.750895639264	1
4	3926	678465.750895639264	0
4	3932	679618.259217975314	1
4	3934	679618.259217975314	0
4	3957	682060.442993406531	1
4	3959	682060.442993406531	0
4	3965	683184.88366783581	1
4	3967	683184.88366783581	0
4	3991	688372.783512798934	1
4	3993	688372.783512798934	0
4	3999	689255.406075393343	1
4	4001	689255.406075393343	0
4	4017	693172.512855307074	1
4	4019	693172.512855307074	0
4	4042	696644.020424307905	1
4	4044	696644.020424307905	0
4	4050	697064.302840358515	1
4	4052	697064.302840358515	0
4	4076	704537.134780349153	1
4	4078	704537.134780349153	0
4	4085	705164.922475204924	1
4	4087	705164.922475204924	0
4	4110	708687.78893097079	1
4	4112	708687.78893097079	0
4	4115	708931.006629363521	1
4	4120	708949.163861966598	0
4	4145	717309.367130674167	1
4	4147	717309.367130674167	0
4	4153	717896.008858449535	1
4	4155	717896.008858449535	0
4	4178	720417.382639118783	1
4	4180	720417.382639118783	0
4	4183	720612.976918481666	1
4	4188	720680.111702490203	0
4	4204	727070.148232347679	1
4	4206	727070.148232347679	0
4	4221	729521.223684136579	1
4	4223	729521.223684136579	0
4	4237	731868.482437794424	1
4	4239	731868.482437794424	0
4	4263	737774.450536125762	1
4	4265	737774.450536125762	0
4	4277	738637.615831067462	1
4	4282	738854.099275348775	0
4	4288	740792.3539212155	1
4	4290	740792.3539212155	0
4	4305	743987.54768658049	1
4	4307	743987.54768658049	0
4	4338	746437.521696369082	1
4	4340	746437.521696369082	0
4	4352	747299.938107312541	1
4	4357	747564.747671049923	0
4	4360	747608.085549454031	1
4	4365	747905.045364430772	0
4	4379	749357.220548579603	1
4	4381	749357.220548579603	0
4	4396	750460.28406485828	1
4	4398	750460.28406485828	0
4	4404	751655.05856957671	1
4	4406	751655.05856957671	0
4	4439	759036.297364007038	1
4	4441	759036.297364007038	0
4	4447	760078.333374812251	1
4	4449	760078.333374812251	0
4	4455	760630.797877219583	1
4	4457	760630.797877219583	0
4	4472	763791.548749816298	1
4	4474	763791.548749816298	0
4	4497	766588.264247555909	1
4	4499	766588.264247555909	0
4	4505	767618.742146774584	1
4	4507	767618.742146774584	0
4	4523	773380.257577089988	1
4	4525	773380.257577089988	0
4	4549	777165.97766696969	1
4	4551	777165.97766696969	0
4	4557	778103.47735492437	1
4	4559	778103.47735492437	0
4	4574	780503.578266672372	1
4	4576	780503.578266672372	0
4	4591	785162.107774740894	1
4	4593	785162.107774740894	0
4	4635	796442.975806717911	1
4	4637	796442.975806717911	0
4	4643	796814.554297155359	1
4	4645	796814.554297155359	0
4	4648	797126.599375855716	1
4	4653	797143.101890395656	0
4	4668	798035.08199148184	1
4	4670	798035.08199148184	0
4	4676	799717.536882229014	1
4	4678	799717.536882229014	0
4	4694	804405.492390519932	1
4	4696	804405.492390519932	0
4	4719	809441.606999194806	1
4	4721	809441.606999194806	0
4	4724	809668.371515173152	1
4	4729	809726.28306067775	0
4	4745	814400.793846038279	1
4	4747	814400.793846038279	0
4	4770	816574.726498410565	1
4	4772	816574.726498410565	0
4	4778	818131.491569340149	1
4	4780	818131.491569340149	0
4	4806	830854.735998519414	1
4	4808	830854.735998519414	0
4	4815	831644.982568030738	1
4	4817	831644.982568030738	0
4	4840	834020.64400081587	1
4	4842	834020.64400081587	0
4	4856	834984.810624889377	1
4	4858	834984.810624889377	0
4	4872	836205.950796509312	1
4	4874	836205.950796509312	0
4	4881	837628.68610936311	1
4	4883	837628.68610936311	0
4	4907	843330.884453923693	1
4	4909	843330.884453923693	0
4	4915	843778.731525060058	1
4	4917	843778.731525060058	0
4	4932	846717.748313711557	1
4	4934	846717.748313711557	0
4	4965	851984.662906074349	1
4	4967	851984.662906074349	0
4	4974	852629.441981489404	1
4	4976	852629.441981489404	0
4	4982	853539.947106050752	1
4	4984	853539.947106050752	0
4	5000	860545.612599561305	1
4	5002	860545.612599561305	0
4	5017	863206.964771328813	1
4	5019	863206.964771328813	0
4	5044	870356.413940277788	1
4	5046	870356.413940277788	0
4	5049	870455.726041080733	1
4	5054	870688.301117157737	0
4	5069	874054.963260899892	1
4	5071	874054.963260899892	0
4	5095	879127.522500079367	1
4	5097	879127.522500079367	0
4	5103	879676.521303448863	1
4	5105	879676.521303448863	0
4	5136	882434.001969973278	1
4	5138	882434.001969973278	0
4	5144	882745.089997828389	1
4	5146	882745.089997828389	0
4	5152	884204.893617883665	1
4	5154	884204.893617883665	0
4	5169	887834.189865678892	1
4	5171	887834.189865678892	0
4	5186	889880.818676729219	1
4	5188	889880.818676729219	0
4	5211	892836.824808823328	1
4	5213	892836.824808823328	0
4	5219	893382.149613314195	1
4	5221	893382.149613314195	0
4	5245	897056.300248051784	1
4	5247	897056.300248051784	0
4	5261	897787.108205165962	1
4	5263	897787.108205165962	0
4	5277	899847.842290991195	1
4	5279	899847.842290991195	0
4	5286	901150.669827205953	1
4	5288	901150.669827205953	0
4	5311	904437.185291851103	1
4	5313	904437.185291851103	0
4	5319	904835.957128390235	1
4	5321	904835.957128390235	0
4	5344	907837.583860976155	1
4	5346	907837.583860976155	0
4	5352	908642.200645800147	1
4	5354	908642.200645800147	0
4	5369	911479.448599936733	1
4	5371	911479.448599936733	0
4	5403	916498.043933459579	1
4	5405	916498.043933459579	0
4	5411	917161.280390810675	1
4	5413	917161.280390810675	0
4	5419	917649.197024144842	1
4	5421	917649.197024144842	0
4	5437	921054.11304726753	1
4	5439	921054.11304726753	0
4	5455	928812.175871187815	1
4	5457	928812.175871187815	0
4	5480	931868.988003821076	1
4	5482	931868.988003821076	0
4	5488	932530.393786584413	1
4	5490	932530.393786584413	0
4	5506	936484.934348853723	1
4	5508	936484.934348853723	0
4	5529	943208.64499291349	1
4	5534	943338.59710199763	0
4	5540	944975.239893739245	1
4	5542	944975.239893739245	0
4	5558	948826.604830555012	1
4	5560	948826.604830555012	0
4	5585	958711.013480732285	1
4	5587	958711.013480732285	0
4	5594	960260.610671448472	1
4	5596	960260.610671448472	0
4	5619	963421.802054563479	1
4	5621	963421.802054563479	0
4	5627	964716.612193662704	1
4	5629	964716.612193662704	0
4	5652	966833.898659701966	1
4	5654	966833.898659701966	0
4	5660	968053.453554203365	1
4	5662	968053.453554203365	0
4	5679	977995.762740860824	1
4	5681	977995.762740860824	0
4	5705	982149.604422906119	1
4	5707	982149.604422906119	0
4	5713	983213.308769153776	1
4	5715	983213.308769153776	0
4	5731	989629.039853308663	1
4	5733	989629.039853308663	0
4	5777	992957.613780398957	1
4	5781	993000.032211445013	2
4	5786	993197.436751980416	1
4	5791	993533.554742193865	0
4	5797	993804.687231015222	1
4	5799	993804.687231015222	0
4	5805	994326.548444001372	1
4	5807	994326.548444001372	0
4	5813	994700.585370757358	1
4	5815	994700.585370757358	0
4	5832	1003840.537810290576	1
4	5834	1003840.537810290576	0
4	5858	1009946.668337461434	1
4	5860	1009946.668337461434	0
4	5875	1011656.280578724623	1
4	5877	1011656.280578724623	0
4	5883	1013010.669999833246	1
4	5885	1013010.669999833246	0
4	5913	1016849.356181258729	1
4	5918	1016871.787885029471	0
4	5925	1017795.32134288323	1
4	5927	1017795.32134288323	0
4	5941	1018540.914042627231	1
4	5943	1018540.914042627231	0
4	5950	1020180.914932950777	1
4	5952	1020180.914932950777	0
4	5974	1022822.056579476904	1
4	5976	1022822.056579476904	0
4	5991	1024490.3661055946	1
4	5993	1024490.3661055946	0
4	6000	1026364.21684918027	1
4	6002	1026364.21684918027	0
4	6017	1029612.122204129593	1
4	6019	1029612.122204129593	0
4	6034	1032365.820023901284	1
4	6036	1032365.820023901284	0
5	618	102000	1
5	659	105000	3
5	692	108000	1
5	693	111000	0
5	699	114000	0
5	711	117000	1
5	712	120000	0
5	745	123000	3
5	786	126000	3
5	811	129000	0
5	836	132000	2
5	861	135000	2
5	886	138000	1
5	927	141000	3
5	944	144000	0
5	977	147000	2
5	986	150000	1
5	995	153000	0
5	1028	156000	2
5	1037	159000	1
5	1062	162000	1
5	1095	165000	3
5	1112	168000	0
5	1121	171000	1
5	1130	174000	0
5	1139	177000	1
5	1185	180000	3
5	1221	183000	2
5	1230	186000	0
5	1239	189000	1
5	1256	192000	1
5	1265	195000	0
5	1298	198000	3
5	1315	201000	0
5	1316	204000	0
5	1317	207000	0
5	1326	210000	1
5	1335	213000	0
5	1360	216000	2
5	1377	219000	1
5	1415	222000	3
5	1435	225000	0
5	1444	228000	1
5	1453	231000	0
5	1494	234000	3
5	1535	237000	3
5	1552	240000	0
5	1561	243000	1
5	1578	246000	1
5	1592	249000	0
5	1604	252000	1
5	1605	255000	0
5	1643	258000	3
5	1663	261000	1
5	1672	264000	0
5	1673	267000	0
5	1687	270000	1
5	1699	273000	1
5	1716	276000	1
5	1733	279000	1
5	1742	282000	0
5	1743	285000	0
5	1760	288000	2
5	1785	291000	1
5	1802	294000	1
5	1827	297000	1
5	1828	300000	0
5	1829	303000	0
5	1838	306000	1
5	1847	309000	0
5	1856	312000	1
5	1889	315000	2
5	1898	318000	0
5	1923	321000	2
5	1940	324000	1
5	1957	327000	1
5	1966	330000	0
5	1967	333000	0
5	1976	336000	1
5	1993	339000	1
5	2010	342000	1
5	2019	345000	0
5	2020	348000	0
5	2029	351000	1
5	2043	354000	0
5	2084	357000	3
5	2101	360000	1
5	2105	363000	0
5	2106	366000	0
5	2112	369000	0
5	2153	372000	3
5	2173	375000	2
5	2198	378000	1
5	2223	381000	2
5	2256	384000	1
5	2270	387000	1
5	2290	390000	1
5	2307	393000	1
5	2308	396000	0
5	2317	399000	1
5	2326	402000	0
5	2351	405000	2
5	2360	408000	0
5	2361	411000	0
5	2378	414000	2
5	2395	417000	0
5	2396	420000	0
5	2421	423000	2
5	2438	426000	1
5	2460	429000	1
5	2464	432000	0
5	2481	435000	2
5	2511	438000	1
5	2520	441000	0
5	2540	444000	2
5	2578	447000	2
5	2606	450000	2
5	2631	453000	1
5	2648	456000	1
5	2649	459000	0
5	2658	462000	1
5	2667	465000	0
5	2668	468000	0
5	2669	471000	0
5	2678	474000	1
5	2695	477000	1
5	2704	480000	0
5	2705	483000	0
5	2706	486000	0
5	2723	489000	1
5	2724	492000	0
5	2733	495000	1
5	2763	498000	2
5	2799	501000	2
5	2848	504000	4
5	2873	507000	0
5	2890	510000	2
5	2928	513000	2
5	2940	516000	0
5	2941	519000	0
5	2950	522000	1
5	2959	525000	0
5	2997	528000	3
5	3017	531000	1
5	3034	534000	1
5	3059	537000	2
5	3076	540000	0
5	3077	543000	0
5	3086	546000	1
5	3119	549000	2
5	3144	552000	2
5	3190	555000	3
5	3226	558000	2
5	3283	561000	3
5	3292	564000	0
5	3301	567000	1
5	3310	570000	0
5	3319	573000	1
5	3368	576000	4
5	3401	579000	1
5	3431	582000	2
5	3464	585000	2
5	3492	588000	1
5	3493	591000	0
5	3507	594000	1
5	3535	597000	2
5	3544	600000	0
5	3545	603000	0
5	3562	606000	1
5	3579	609000	1
5	3580	612000	0
5	3581	615000	0
5	3603	618000	2
5	3631	621000	2
5	3656	624000	1
5	3665	627000	0
5	3666	630000	0
5	3675	633000	1
5	3684	636000	0
5	3706	639000	2
5	3734	642000	2
5	3751	645000	0
5	3752	648000	0
5	3753	651000	0
5	3754	654000	0
5	3768	657000	1
5	3809	660000	3
5	3821	663000	0
5	3822	666000	0
5	3836	669000	1
5	3856	672000	1
5	3878	675000	2
5	3919	678000	3
5	3947	681000	1
5	3972	684000	1
5	3981	687000	1
5	4006	690000	1
5	4015	693000	1
5	4040	696000	2
5	4057	699000	0
5	4058	702000	0
5	4083	705000	2
5	4108	708000	2
5	4125	711000	0
5	4126	714000	0
5	4143	717000	2
5	4176	720000	2
5	4193	723000	0
5	4202	726000	1
5	4219	729000	1
5	4241	732000	1
5	4245	735000	0
5	4267	738000	2
5	4292	741000	1
5	4309	744000	1
5	4345	747000	3
5	4394	750000	3
5	4411	753000	0
5	4412	756000	0
5	4437	759000	3
5	4470	762000	1
5	4487	765000	1
5	4512	768000	1
5	4513	771000	0
5	4530	774000	1
5	4547	777000	2
5	4572	780000	1
5	4581	783000	0
5	4598	786000	1
5	4599	789000	0
5	4600	792000	0
5	4614	795000	1
5	4666	798000	4
5	4683	801000	0
5	4692	804000	1
5	4701	807000	0
5	4731	810000	2
5	4743	813000	1
5	4760	816000	1
5	4785	819000	1
5	4786	822000	0
5	4787	825000	0
5	4788	828000	0
5	4810	831000	2
5	4838	834000	2
5	4879	837000	2
5	4888	840000	0
5	4905	843000	2
5	4930	846000	1
5	4939	849000	0
5	4969	852000	3
5	4989	855000	0
5	4990	858000	0
5	5007	861000	1
5	5024	864000	1
5	5025	867000	0
5	5042	870000	2
5	5067	873000	1
5	5076	876000	0
5	5093	879000	2
5	5126	882000	2
5	5159	885000	1
5	5173	888000	1
5	5201	891000	1
5	5226	894000	2
5	5243	897000	2
5	5281	900000	2
5	5306	903000	1
5	5331	906000	1
5	5359	909000	2
5	5376	912000	1
5	5385	915000	1
5	5426	918000	2
5	5435	921000	1
5	5444	924000	0
5	5450	927000	0
5	5467	930000	1
5	5495	933000	2
5	5504	936000	1
5	5513	939000	0
5	5522	942000	1
5	5544	945000	1
5	5556	948000	1
5	5565	951000	0
5	5566	954000	0
5	5575	957000	1
5	5592	960000	1
5	5617	963000	2
5	5647	966000	1
5	5667	969000	1
5	5668	972000	0
5	5669	975000	0
5	5683	978000	1
5	5700	981000	1
5	5720	984000	1
5	5721	987000	0
5	5738	990000	1
5	5779	993000	4
5	5820	996000	1
5	5821	999000	0
5	5830	1002000	1
5	5839	1005000	0
5	5840	1008000	0
5	5870	1011000	2
5	5890	1014000	1
5	5920	1017000	3
5	5948	1020000	1
5	5978	1023000	2
5	5998	1026000	1
5	6015	1029000	1
5	6032	1032000	1
5	6041	1035000	0
6	618	102000	0
6	659	105000	1
6	692	108000	4
6	693	111000	0
6	699	114000	0
6	711	117000	1
6	712	120000	0
6	745	123000	1
6	786	126000	2
6	811	129000	3
6	836	132000	1
6	861	135000	1
6	886	138000	2
6	927	141000	2
6	944	144000	2
6	977	147000	2
6	986	150000	0
6	995	153000	1
6	1028	156000	2
6	1037	159000	0
6	1062	162000	2
6	1095	165000	1
6	1112	168000	2
6	1121	171000	0
6	1130	174000	1
6	1139	177000	0
6	1185	180000	2
6	1221	183000	3
6	1230	186000	1
6	1239	189000	0
6	1256	192000	1
6	1265	195000	1
6	1298	198000	1
6	1315	201000	2
6	1316	204000	0
6	1317	207000	0
6	1326	210000	0
6	1335	213000	1
6	1360	216000	1
6	1377	219000	1
6	1415	222000	1
6	1435	225000	3
6	1444	228000	0
6	1453	231000	1
6	1494	234000	1
6	1535	237000	3
6	1552	240000	2
6	1561	243000	0
6	1578	246000	1
6	1592	249000	1
6	1604	252000	1
6	1605	255000	0
6	1643	258000	1
6	1663	261000	2
6	1672	264000	1
6	1673	267000	0
6	1687	270000	0
6	1699	273000	1
6	1716	276000	1
6	1733	279000	1
6	1742	282000	1
6	1743	285000	0
6	1760	288000	0
6	1785	291000	2
6	1802	294000	1
6	1827	297000	2
6	1828	300000	0
6	1829	303000	0
6	1838	306000	0
6	1847	309000	1
6	1856	312000	0
6	1889	315000	2
6	1898	318000	1
6	1923	321000	1
6	1940	324000	1
6	1957	327000	1
6	1966	330000	1
6	1967	333000	0
6	1976	336000	0
6	1993	339000	1
6	2010	342000	1
6	2019	345000	1
6	2020	348000	0
6	2029	351000	0
6	2043	354000	1
6	2084	357000	2
6	2101	360000	1
6	2105	363000	1
6	2106	366000	0
6	2112	369000	0
6	2153	372000	2
6	2173	375000	1
6	2198	378000	2
6	2223	381000	1
6	2256	384000	3
6	2270	387000	0
6	2290	390000	2
6	2307	393000	1
6	2308	396000	0
6	2317	399000	0
6	2326	402000	1
6	2351	405000	1
6	2360	408000	1
6	2361	411000	0
6	2378	414000	0
6	2395	417000	2
6	2396	420000	0
6	2421	423000	1
6	2438	426000	1
6	2460	429000	1
6	2464	432000	1
6	2481	435000	0
6	2511	438000	2
6	2520	441000	1
6	2540	444000	1
6	2578	447000	2
6	2606	450000	2
6	2631	453000	2
6	2648	456000	1
6	2649	459000	0
6	2658	462000	0
6	2667	465000	1
6	2668	468000	0
6	2669	471000	0
6	2678	474000	0
6	2695	477000	1
6	2704	480000	1
6	2705	483000	0
6	2706	486000	0
6	2723	489000	1
6	2724	492000	0
6	2733	495000	0
6	2763	498000	1
6	2799	501000	3
6	2848	504000	2
6	2873	507000	3
6	2890	510000	0
6	2928	513000	2
6	2940	516000	2
6	2941	519000	0
6	2950	522000	0
6	2959	525000	1
6	2997	528000	1
6	3017	531000	2
6	3034	534000	1
6	3059	537000	1
6	3076	540000	2
6	3077	543000	0
6	3086	546000	0
6	3119	549000	2
6	3144	552000	1
6	3190	555000	2
6	3226	558000	3
6	3283	561000	4
6	3292	564000	1
6	3301	567000	0
6	3310	570000	1
6	3319	573000	0
6	3368	576000	2
6	3401	579000	3
6	3431	582000	1
6	3464	585000	2
6	3492	588000	3
6	3493	591000	0
6	3507	594000	0
6	3535	597000	2
6	3544	600000	1
6	3545	603000	0
6	3562	606000	1
6	3579	609000	1
6	3580	612000	0
6	3581	615000	0
6	3603	618000	0
6	3631	621000	2
6	3656	624000	2
6	3665	627000	1
6	3666	630000	0
6	3675	633000	0
6	3684	636000	1
6	3706	639000	0
6	3734	642000	2
6	3751	645000	2
6	3752	648000	0
6	3753	651000	0
6	3754	654000	0
6	3768	657000	0
6	3809	660000	2
6	3821	663000	2
6	3822	666000	0
6	3836	669000	0
6	3856	672000	2
6	3878	675000	0
6	3919	678000	2
6	3947	681000	3
6	3972	684000	2
6	3981	687000	0
6	4006	690000	2
6	4015	693000	0
6	4040	696000	1
6	4057	699000	2
6	4058	702000	0
6	4083	705000	1
6	4108	708000	1
6	4125	711000	2
6	4126	714000	0
[...]
6	4412	756000	0
6	4437	759000	0
6	4470	762000	3
6	4487	765000	1
6	4512	768000	2
6	4513	771000	0
6	4530	774000	1
6	4547	777000	0
6	4572	780000	2
6	4581	783000	1
6	4598	786000	1
6	4599	789000	0
6	4600	792000	0
6	4614	795000	0
6	4666	798000	3
6	4683	801000	2
6	4692	804000	0
6	4701	807000	1
6	4731	810000	1
6	4743	813000	1
6	4760	816000	1
6	4785	819000	2
6	4786	822000	0
6	4787	825000	0
6	4788	828000	0
6	4810	831000	0
6	4838	834000	2
6	4879	837000	3
6	4888	840000	1
6	4905	843000	0
6	4930	846000	2
6	4939	849000	1
6	4969	852000	0
6	4989	855000	3
6	4990	858000	0
6	5007	861000	1
6	5024	864000	1
6	5025	867000	0
6	5042	870000	0
6	5067	873000	2
6	5076	876000	1
6	5093	879000	0
6	5126	882000	2
6	5159	885000	3
6	5173	888000	0
6	5201	891000	2
6	5226	894000	2
6	5243	897000	0
6	5281	900000	2
6	5306	903000	2
6	5331	906000	2
6	5359	909000	2
6	5376	912000	1
6	5385	915000	0
6	5426	918000	3
6	5435	921000	0
6	5444	924000	1
6	5450	927000	0
6	5467	930000	1
6	5495	933000	2
6	5504	936000	0
6	5513	939000	1
6	5522	942000	0
6	5544	945000	1
6	5556	948000	1
6	5565	951000	1
6	5566	954000	0
6	5575	957000	0
6	5592	960000	1
6	5617	963000	1
6	5647	966000	2
6	5667	969000	2
6	5668	972000	0
6	5669	975000	0
6	5683	978000	0
6	5700	981000	1
6	5720	984000	2
6	5721	987000	0
6	5738	990000	1
6	5779	993000	0
6	5820	996000	5
6	5821	999000	0
6	5830	1002000	0
6	5839	1005000	1
6	5840	1008000	0
6	5870	1011000	1
6	5890	1014000	2
6	5920	1017000	0
6	5948	1020000	3
6	5978	1023000	1
6	5998	1026000	2
6	6015	1029000	1
6	6032	1032000	1
6	6041	1035000	1
7	616	100407.538639535995	1
7	619	102051.781102866123	0
7	633	102792.079115759491	1
7	641	103340.464818847381	2
7	648	104627.513745347422	1
7	652	104695.683785875881	2
7	656	104922.126683866654	1
7	674	105937.374186055313	2
7	676	106268.308529748054	1
7	684	107682.22877823333	0
7	701	114248.033353137193	1
7	703	116075.313781117549	0
7	719	120872.322427657052	1
7	727	121543.821690220634	2
7	735	122439.848414957074	3
7	737	122583.43341332246	2
7	746	123149.216976464061	1
7	754	124367.407090387967	0
7	774	124972.508951444207	1
7	779	125305.9227862714	2
7	784	125643.084915141055	3
7	787	126568.156134207818	2
7	795	127111.024989776641	1
7	803	127416.189496297801	0
7	818	130038.870624775898	1
7	826	131524.887018962898	2
7	828	131625.651251176289	1
7	837	133368.730648113302	0
7	854	134323.934881287009	1
7	859	134613.3022081747	2
7	862	136062.677344818088	1
7	875	136370.811352684512	0
7	879	136675.817312730127	1
7	893	138669.026237377918	2
7	895	138803.867743747808	1
7	909	140086.04529993602	2
7	911	140419.307305116204	1
7	925	140961.83583282138	2
7	928	141919.417010593301	1
7	936	143037.916169729136	0
7	954	144470.733071562922	1
7	959	144759.507950409434	2
7	961	146139.938929365987	1
7	966	146384.547872792558	0
7	984	149572.179803582485	1
7	987	151568.719547569049	0
7	1002	153423.312602764184	1
7	1010	153768.873334639945	2
7	1012	154937.224786343937	1
7	1020	155420.042080403751	0
7	1035	157919.962828589822	1
7	1044	159531.270310234721	2
7	1046	159709.912993501834	1
7	1054	161361.881794574436	0
7	1069	162532.893365585851	1
7	1077	163284.768340511337	2
7	1085	163825.284802196157	3
7	1087	164129.327986710063	2
7	1096	165245.573198692405	1
7	1104	165738.356446235246	0
7	1119	169894.276829639459	1
7	1122	171764.015963935561	0
7	1137	175609.245495716354	1
7	1145	177287.580137008661	0
7	1155	177560.518825107155	1
7	1160	177848.937250077312	2
7	1165	178188.054267953818	3
7	1172	179343.036173498505	2
7	1177	179474.204685457882	1
7	1189	180120.474775621128	0
7	1203	180727.797411350545	1
7	1211	181797.612116190178	2
7	1213	182616.113268980001	1
7	1222	183514.574018709636	0
7	1237	188842.707026399937	1
7	1240	190536.118098895591	0
7	1254	191995.825900613505	1
7	1257	194018.42737387002	0
7	1272	195885.007580129508	1
7	1280	196342.852946569498	2
7	1288	197116.221279539138	3
7	1290	197671.844364939276	2
7	1299	198194.837407190849	1
7	1307	198898.091167620557	0
7	1324	209158.98354767447	1
7	1327	211552.575963870001	0
7	1342	213365.700485381525	1
7	1350	214680.348298327239	2
7	1352	215137.866887846827	1
7	1361	216869.303940185581	0
7	1375	217829.842888537027	1
7	1383	219553.174374465507	0
7	1387	219786.260700839304	1
7	1403	221097.754858648216	2
7	1408	221329.696044664064	3
7	1410	221717.424827145484	2
7	1419	222765.745322510233	1
7	1427	223270.155047125253	0
7	1442	227871.335558992851	1
7	1445	229595.952706581098	0
7	1460	231419.196333143653	1
7	1468	231974.184483317016	2
7	1476	233199.930480791245	3
7	1478	233345.83746882137	2
7	1486	233747.904322841958	1
7	1501	234408.5500509925	2
7	1503	234862.975702733125	1
7	1520	235415.637574958474	2
7	1525	235714.149041288306	3
7	1527	235967.786108082662	2
7	1536	237093.666941665239	1
7	1544	237743.73381598595	0
7	1559	242135.739350016658	1
7	1562	243837.621119568287	0
7	1576	245327.65762972671	1
7	1579	247114.537391417024	0
7	1594	249048.182234293255	1
7	1596	250672.884007401767	0
7	1615	255710.790396121135	1
7	1623	255986.374147922154	2
7	1628	256256.956501258825	3
7	1630	257504.226735912902	2
7	1638	257784.353756083578	1
7	1647	258241.527404161529	0
7	1661	259537.563454140605	1
7	1664	261587.080865850021	0
7	1680	268091.176089187489	1
7	1682	269947.845386848329	0
7	1697	271813.80038369236	1
7	1700	273497.738034258845	0
7	1714	274472.753736813266	1
7	1717	276498.145643617544	0
7	1731	278764.338100280084	1
7	1734	280621.551452129574	0
7	1750	287266.823497465395	1
7	1758	287779.697286861123	2
7	1761	289099.974565875387	1
7	1769	289822.542464798242	0
7	1783	290764.810534356346	1
7	1786	292673.900924775326	0
7	1800	293336.187694641559	1
7	1809	294776.101416997615	2
7	1811	295466.869502016068	1
7	1819	296507.739950509386	0
7	1836	305179.124683971245	1
7	1839	307118.310810197123	0
7	1854	310284.91319744649	1
7	1857	312291.546687344145	0
7	1871	312830.672126232729	1
7	1879	313876.030275488311	2
7	1881	314384.717484067692	1
7	1890	315858.490615592513	0
7	1905	319055.283987594311	1
7	1913	320299.49888186728	2
7	1915	320633.720964236705	1
7	1930	322050.762278030529	2
7	1932	322059.625015229467	1
7	1941	324012.396624836068	0
7	1955	326301.892082891485	1
7	1958	328064.901302918255	0
7	1974	335968.250119716773	1
7	1983	337359.132325915349	2
7	1985	337824.835499079355	1
7	1994	339174.910255105306	0
7	2008	340336.019932762562	1
7	2011	342013.808260649799	0
7	2027	349628.248188598481	1
7	2030	351322.635129152704	0
7	2045	354124.32394948483	1
7	2056	354769.566060687399	2
7	2061	355126.734896645605	3
7	2063	355881.410016962989	2
7	2071	356551.344541519462	1
7	2076	356888.498065637901	0
7	2094	358597.176126800937	1
7	2096	359912.945213654082	0
7	2114	369285.692731902341	1
7	2122	369680.54398413699	2
7	2130	369991.274400519278	3
7	2132	371299.096207773435	2
7	2137	371452.731481032678	1
7	2145	371729.267161684195	0
7	2163	373821.28205321155	1
7	2171	374606.681072363123	2
7	2174	375326.237847292447	1
7	2182	376362.424823457249	0
7	2196	376886.709602912748	1
7	2199	379004.453950202664	0
7	2216	380420.459805999041	1
7	2221	380729.10399748603	2
7	2230	381345.737646478968	3
7	2232	382230.947870426036	2
7	2240	382808.936137040024	1
7	2248	383644.812821385648	0
7	2263	386469.104121375004	1
7	2272	387169.59959396402	2
7	2274	388285.844618676941	1
7	2282	389101.994891837815	0
7	2297	390697.460083964682	1
7	2299	392498.189824370974	0
7	2315	397920.896077150122	1
7	2318	399958.1735395513	0
7	2333	402719.487131057479	1
7	2341	403356.028979687979	2
7	2343	404601.798041106395	1
7	2352	405514.646938944414	0
7	2368	412802.505224493773	1
7	2376	413584.145466965458	2
7	2379	414402.363432590167	1
7	2387	415278.167861087717	0
7	2403	420462.372482537728	1
7	2405	422130.357956031647	0
7	2419	422999.701332175105	1
7	2428	424658.484729987007	2
7	2430	424692.024489635016	1
7	2444	426650.672806398954	0
7	2448	426871.663384082925	1
7	2455	428750.403904589729	0
7	2474	434515.004305289429	1
7	2479	434829.032736997046	2
7	2488	435975.253102335993	3
7	2490	436330.093977698023	2
7	2498	436695.361470311283	1
7	2506	437867.500110140447	0
7	2522	441119.100734178901	1
7	2530	443252.847997162556	2
7	2532	443254.984041769824	1
7	2547	444707.146578410775	2
7	2549	445106.058899330586	1
7	2562	446433.817620588278	0
7	2566	446562.345729175264	1
7	2580	447188.38313580803	2
7	2587	448091.437753779866	1
7	2591	448204.812108746025	2
7	2598	449277.471322598841	1
7	2607	450510.996468071916	0
7	2621	451031.987553244159	1
7	2623	452709.181475334774	0
7	2638	453873.196972200722	1
7	2640	455606.921705556015	0
7	2656	461293.480601957113	1
7	2659	462910.226200209665	0
7	2676	472852.279028184046	1
7	2679	474589.621230296789	0
7	2693	475773.052969227137	1
7	2696	477342.384135006016	0
7	2713	487345.443307393814	1
7	2715	488545.708576053142	0
7	2731	493429.533231393727	1
7	2734	495236.996014670363	0
7	2748	497279.831413703769	1
7	2756	497697.302830481097	2
7	2765	498075.125278547633	3
7	2767	498978.197650008805	2
7	2780	499422.278640376876	1
7	2784	499549.121595704634	2
7	2788	499727.133067996181	1
7	2800	501033.3202154952	0
7	2814	501786.287151889389	1
7	2825	502150.883420561767	2
7	2830	502455.263554290788	3
7	2837	503636.008665872697	2
7	2841	503642.194428383045	3
7	2849	504200.231956396401	2
7	2857	504500.803943077466	1
7	2865	505453.089271185243	0
7	2880	508537.52348783695	1
7	2888	509427.770618156354	2
7	2891	510198.411582878663	1
7	2904	511175.445951712978	0
7	2908	511262.579468787106	1
7	2921	511848.400743672272	2
7	2923	512976.180278109757	1
7	2932	513553.837161984007	0
7	2948	520805.934189165257	1
7	2951	522455.091161804917	0
7	2969	525616.871115491593	1
7	2974	525960.935479545015	2
7	2982	527205.404012638335	3
7	2984	527577.311480589866	2
7	2989	527648.707965112534	1
7	3001	528995.558012806214	0
7	3015	529988.587146876738	1
7	3018	531846.731189871045	0
7	3032	532454.472042915869	1
7	3035	534069.000116778681	0
7	3049	535753.840076571647	1
7	3057	536234.292620966675	2
7	3060	537569.962523442311	1
7	3068	538192.236524882908	0
7	3084	545033.726038754103	1
7	3093	546798.496693766888	2
7	3095	547037.535400460864	1
7	3109	547819.389231617029	2
7	3111	548179.200571270784	1
7	3120	549738.398146005248	0
7	3134	551396.606531902094	1
7	3142	551814.226468893851	2
7	3151	552381.370561074486	3
7	3153	553185.267406245213	2
7	3161	553387.352386036121	1
7	3170	553726.009446554542	2
7	3182	554528.714636564003	1
7	3186	554875.380399993704	2
7	3194	555413.897187008261	1
7	3202	556576.752734921654	0
7	3219	557187.723140194206	1
7	3224	557471.359470320349	2
7	3233	558331.512635583121	3
7	3241	558821.527440137782	4
7	3243	559050.909956478795	3
7	3248	559359.946129029054	2
7	3265	560268.645189619147	3
7	3267	560464.605499610252	2
7	3272	560499.833668252272	1
7	3284	561904.41065733413	0
7	3299	565869.315632441259	1
7	3302	567488.116809211909	0
7	3317	572727.123283471559	1
7	3326	573834.669126886495	2
7	3334	574640.209911457677	3
7	3336	574650.461116781545	2
7	3353	575314.607828872459	3
7	3357	575497.201699516381	2
7	3361	575536.761693424648	3
7	3369	576414.678933328862	2
7	3377	577121.222398592426	1
7	3382	577308.857440136095	0
7	3399	578821.222232587126	1
7	3411	580244.25660962384	2
7	3416	580530.624538806993	3
7	3418	580582.893027619442	2
7	3426	581825.25023687008	1
7	3432	582060.5763654818	0
7	3449	583154.016759070694	1
7	3457	583857.065445664846	2
7	3466	585014.797757230071	3
7	3468	585055.684648966699	2
7	3476	585678.034793224465	1
7	3484	586888.538284197354	0
7	3500	593123.460866998762	1
7	3509	594191.197163966455	2
7	3511	594836.672053451055	1
7	3519	595737.988079914181	0
7	3533	596728.632809397672	1
7	3536	598281.374950898092	0
7	3552	603630.035324306646	1
7	3554	605241.170661257724	0
7	3569	606360.292315502635	1
7	3571	608254.815846145337	0
7	3588	615774.957219294113	1
7	3595	617702.485986959738	0
7	3599	617908.667553836597	1
7	3607	619598.203819092374	0
7	3624	620217.207924326091	1
7	3629	620539.490609149011	2
7	3632	622003.063405308426	1
7	3637	622101.198710033849	0
7	3654	623388.581967961236	1
7	3657	625605.791124400014	0
7	3673	632262.735796780209	1
7	3676	633999.049389162785	0
7	3691	636818.331237671868	1
7	3699	637948.739037962819	2
7	3701	638850.770812971102	1
7	3710	639740.814317359842	0
7	3724	640552.214719040195	1
7	3732	641062.214266775242	2
7	3735	642512.188433815309	1
7	3740	642825.819368886393	0
7	3761	655625.841551353164	1
7	3770	657119.692315086143	2
7	3772	657570.289264262225	1
7	3789	658202.564252611634	2
7	3794	658458.464482982303	3
7	3796	658696.780359849858	2
7	3804	659885.819772938258	1
7	3813	660624.673747478468	0
7	3829	667402.034164210152	1
7	3838	669018.355096534888	2
7	3840	669436.351446709392	1
7	3848	670500.777121499927	0
7	3866	673084.099422282241	1
7	3871	673405.600218871226	2
7	3873	674818.188141144108	1
7	3882	675333.565271120215	0
7	3896	676115.427913255639	1
7	3904	676843.241603389173	2
7	3912	677637.068369762713	3
7	3914	677876.76333409304	2
7	3923	678465.750895639264	1
7	3931	679618.259217975314	0
7	3945	680258.83347525215	1
7	3954	681375.773761359581	2
7	3956	682060.442993406531	1
7	3964	683184.88366783581	0
7	3979	686403.788402236806	1
7	3988	687650.565911268806	2
7	3990	688372.783512798934	1
7	3998	689255.406075393343	0
7	4013	691298.414641137333	1
7	4016	693172.512855307074	0
7	4030	694835.175941813903	1
7	4038	695419.396176537484	2
7	4041	696644.020424307905	1
7	4049	697064.302840358515	0
7	4065	702664.0924341335	1
7	4073	703027.918239305193	2
7	4075	704537.134780349153	1
7	4084	705164.922475204924	0
7	4101	706817.138138422603	1
7	4106	707109.586872902586	2
7	4109	708687.78893097079	1
7	4114	708931.006629363521	0
7	4133	715597.975569993418	1
7	4141	716182.234300038176	2
7	4144	717309.367130674167	1
7	4152	717896.008858449535	0
7	4169	718578.263567904745	1
7	4174	718895.266893263491	2
7	4177	720417.382639118783	1
7	4182	720612.976918481666	0
7	4200	725043.084963408601	1
7	4203	727070.148232347679	0
7	4217	727675.819737719238	1
7	4220	729521.223684136579	0
7	4234	730080.723829077068	1
7	4236	731868.482437794424	0
7	4252	736285.01609851173	1
7	4260	736962.806509864518	2
7	4262	737774.450536125762	1
7	4276	738637.615831067462	0
7	4280	738854.099275348775	1
7	4287	740792.3539212155	0
7	4302	742312.458570448807	1
7	4304	743987.54768658049	0
7	4319	744711.058368687526	1
7	4330	745605.648054127903	2
7	4335	745946.573093823073	3
7	4337	746437.521696369082	2
7	4351	747299.938107312541	1
7	4355	747564.747671049923	2
7	4359	747608.085549454031	1
7	4376	748605.703907202782	2
7	4378	749357.220548579603	1
7	4392	749932.874412792704	2
7	4395	750460.28406485828	1
7	4403	751655.05856957671	0
7	4419	757233.748583472505	1
7	4427	758196.216501349112	2
7	4435	758692.98647528119	3
7	4438	759036.297364007038	2
7	4446	760078.333374812251	1
7	4454	760630.797877219583	0
7	4468	761636.194508578845	1
7	4471	763791.548749816298	0
7	4485	764700.444573246114	1
7	4494	766239.04997823952	2
7	4496	766588.264247555909	1
7	4504	767618.742146774584	0
7	4520	771474.226725116143	1
7	4522	773380.257577089988	0
7	4537	775491.068768051673	1
7	4545	776454.752172208092	2
7	4548	777165.97766696969	1
7	4556	778103.47735492437	0
7	4570	779056.883626782077	1
7	4573	780503.578266672372	0
7	4588	783342.459312506092	1
7	4590	785162.107774740894	0
7	4607	794814.755976749852	1
7	4616	795186.705345897249	2
7	4627	795513.160485373664	3
7	4632	795858.190595867089	4
7	4634	796442.975806717911	3
7	4642	796814.554297155359	2
7	4647	797126.599375855716	1
7	4664	797790.490478006191	2
7	4667	798035.08199148184	1
7	4675	799717.536882229014	0
7	4690	802400.295195014647	1
7	4693	804405.492390519932	0
7	4708	807488.642068456784	1
7	4716	807786.747882944066	2
7	4718	809441.606999194806	1
7	4723	809668.371515173152	0
7	4741	812509.133622656589	1
7	4744	814400.793846038279	0
7	4758	815178.940903393133	1
7	4767	816472.081153454761	2
7	4769	816574.726498410565	1
7	4777	818131.491569340149	0
7	4795	828995.111395479847	1
7	4803	829720.647856830869	2
7	4805	830854.735998519414	1
7	4814	831644.982568030738	0
7	4828	832236.916052231627	1
7	4836	832903.24358037269	2
7	4839	834020.64400081587	1
7	4853	834645.382020024308	2
7	4855	834984.810624889377	1
7	4869	835866.371732622281	2
7	4871	836205.950796509312	1
7	4880	837628.68610936311	0
7	4898	841503.819957465077	1
7	4903	841796.64657763596	2
7	4906	843330.884453923693	1
7	4914	843778.731525060058	0
7	4928	845238.026505830009	1
7	4931	846717.748313711557	0
7	4946	850066.106644987734	1
7	4954	850991.390966332297	2
7	4962	851618.234298976543	3
7	4964	851984.662906074349	2
7	4973	852629.441981489404	1
7	4981	853539.947106050752	0
7	4997	858539.472475808979	1
7	4999	860545.612599561305	0
7	5014	861320.606995491971	1
7	5016	863206.964771328813	0
7	5032	868415.327895996623	1
7	5040	868891.07509410617	2
7	5043	870356.413940277788	1
7	5048	870455.726041080733	0
7	5065	872040.090255962004	1
7	5068	874054.963260899892	0
7	5086	877659.69508935914	1
7	5091	877940.079642474811	2
7	5094	879127.522500079367	1
7	5102	879676.521303448863	0
7	5116	880382.93561012124	1
7	5124	881014.358601917735	2
7	5133	882309.867705179875	3
7	5135	882434.001969973278	2
7	5143	882745.089997828389	1
7	5151	884204.893617883665	0
7	5166	885991.595644396021	1
7	5168	887834.189865678892	0
7	5183	888377.891297521162	1
7	5185	889880.818676729219	0
7	5203	891032.330597876921	1
7	5208	891338.751508523023	2
7	5210	892836.824808823328	1
7	5218	893382.149613314195	0
7	5233	895413.644430787716	1
7	5241	895957.477925721852	2
7	5244	897056.300248051784	1
7	5258	897774.669026794001	2
7	5260	897787.108205165962	1
7	5274	899564.113876275286	2
7	5276	899847.842290991195	1
7	5285	901150.669827205953	0
7	5299	902508.686058776126	1
7	5308	903149.118684491367	2
7	5310	904437.185291851103	1
7	5318	904835.957128390235	0
7	5333	906182.74385836065	1
7	5341	906596.112553870643	2
7	5343	907837.583860976155	1
7	5351	908642.200645800147	0
7	5366	909798.495283609932	1
7	5368	911479.448599936733	0
7	5383	914656.172861518649	1
7	5395	915749.411264164664	2
7	5400	916038.709038909004	3
7	5402	916498.043933459579	2
7	5410	917161.280390810675	1
7	5418	917649.197024144842	0
7	5433	919191.558078234067	1
7	5436	921054.11304726753	0
7	5452	927241.954843496081	1
7	5454	928812.175871187815	0
7	5469	930162.851937039768	1
7	5477	930928.922404315852	2
7	5479	931868.988003821076	1
7	5487	932530.393786584413	0
7	5502	934758.465549736999	1
7	5505	936484.934348853723	0
7	5520	941028.397003606045	1
7	5528	943208.64499291349	0
7	5532	943338.59710199763	1
7	5539	944975.239893739245	0
7	5554	946921.379281805674	1
7	5557	948826.604830555012	0
7	5573	956999.648392679307	1
7	5582	958626.634022233584	2
7	5584	958711.013480732285	1
7	5593	960260.610671448472	0
7	5607	961786.131512631497	1
7	5615	962997.904807882154	2
7	5618	963421.802054563479	1
7	5626	964716.612193662704	0
7	5640	965332.644989511913	1
7	5649	966154.589002360643	2
7	5651	966833.898659701966	1
7	5659	968053.453554203365	0
7	5676	976401.569402717507	1
7	5678	977995.762740860824	0
7	5693	980401.42918071102	1
7	5702	981264.711510125713	2
7	5704	982149.604422906119	1
7	5712	983213.308769153776	0
7	5728	987940.117018706994	1
7	5730	989629.039853308663	0
7	5748	991031.767136706412	1
7	5753	991298.245812374939	2
7	5761	991875.464036256052	3
7	5769	992499.331873159716	4
7	5776	992957.613780398957	3
7	5780	993000.032211445013	2
7	5784	993197.436751980416	3
7	5796	993804.687231015222	2
7	5804	994326.548444001372	1
7	5812	994700.585370757358	0
7	5828	1001846.500976095612	1
7	5831	1003840.537810290576	0
7	5847	1008421.171243732573	1
7	5855	1009860.383929557006	2
7	5857	1009946.668337461434	1
7	5872	1011087.849220984476	2
7	5874	1011656.280578724623	1
7	5882	1013010.669999833246	0
7	5897	1015168.259942321439	1
7	5905	1015898.432194955088	2
7	5912	1016849.356181258729	1
7	5916	1016871.787885029471	2
7	5924	1017795.32134288323	1
7	5938	1018436.729538982843	2
7	5940	1018540.914042627231	1
7	5949	1020180.914932950777	0
7	5963	1020807.424409364874	1
7	5971	1022570.690554118966	2
7	5973	1022822.056579476904	1
7	5988	1024219.969125406694	2
7	5990	1024490.3661055946	1
7	5999	1026364.21684918027	0
7	6013	1027628.23231342636	1
7	6016	1029612.122204129593	0
7	6030	1030637.267571305958	1
7	6033	1032365.820023901284	0
