version 2
run ParkingMeasurement-0-20170108-17:30:35-5375
attr configname ParkingMeasurement
attr datetime 20170108-17:30:35
attr experiment ParkingMeasurement
attr inifile parkingStudy.ini
attr iterationvars ""
attr iterationvars2 $repetition=0
attr measurement ""
attr network controltower.SimNetwork
attr processid 5375
attr repetition 0
attr replication #0
attr resultdir results
attr runnumber 0
attr seedset 0
param SimNetwork.a.parkingLot.parkingDelay "truncnormal(30min, 3min)"
param SimNetwork.a.runway.landingTime "truncnormal(5min, 0.5min)"
param SimNetwork.a.runway.takeoffTime "truncnormal(5min, 0.5min)"
param SimNetwork.a.runway.throughputCheckInterval 50min
param SimNetwork.wg.interArrivalTime exponential(50min)

vector 7  SimNetwork.a.parkingLot  parkingOccupancy:vector  ETV
attr source  parkingOccupancy
vector 4  SimNetwork.a.takeoffQueue  queueLength:vector  ETV
attr source  queueLengthSignal
vector 3  SimNetwork.a.takeoffQueue  queueTime:vector  ETV
attr source  queueTimeSignal
vector 0  SimNetwork.wg  responseTime:vector  ETV
attr source  responseTimeSignal
vector 5  SimNetwork.a.runway  landedThroughput:vector  ETV
attr source  landedThroughputSignal
vector 6  SimNetwork.a.runway  tookoffThroughput:vector  ETV
attr source  tookoffThroughputSignal
vector 2  SimNetwork.a.landingQueue  queueLength:vector  ETV
attr source  queueLengthSignal
vector 1  SimNetwork.a.landingQueue  queueTime:vector  ETV
attr source  queueTimeSignal
0	552	100842.623871356013	3669.8349984994
0	560	101909.790282042504	3223.9699894224
0	580	113439.668594309525	13996.588323016
0	598	119536.091841585831	8563.9918205613
0	615	122235.107418360955	4874.5092091324
0	640	125646.791056480726	5622.6086159419
0	665	127090.701139682835	3968.1276672078
0	673	128310.670258370588	3282.7136390031
0	681	128737.44826060983	2681.6927671481
0	709	131704.166926869724	5322.7701379234
0	715	132016.185789389749	2953.6017655269
0	749	138944.875645123348	9425.4107454971
0	757	139921.011619897849	3726.8027485956
0	773	140671.16584788765	3173.920008754
0	782	142513.52458459558	4530.668485325
0	807	144843.678600328111	4731.0687193856
0	815	146797.204752220245	4158.9519860818
0	835	157569.644752525586	13296.820601953
0	860	161956.694247087655	6553.9883208039
0	877	162776.118907266326	3214.538924919
0	885	164690.725333599108	4459.7277269494
0	903	168113.972488617025	6015.182850032
0	920	171640.655323039887	5885.4752744247
0	940	174091.450682329487	4733.3579140884
0	953	176303.042997539059	4643.711265581
0	972	185196.696369850545	11113.424477695
0	997	188198.616670730863	5448.1180028784
0	1006	189656.458265453719	3482.5458890231
0	1031	192768.108308720989	5473.186549107
0	1039	194197.442290902403	4018.2018165748
0	1068	198231.023598924127	6238.0394695908
0	1073	198573.269397666217	2817.6754580599
0	1091	204695.972911945255	8877.7773165085
0	1109	210462.006999619284	8243.1215417577
0	1126	214212.686065132998	5811.3368846289
0	1145	223018.104237216205	11199.582104694
0	1172	232390.070461403295	11738.107496611
0	1205	234257.909738661943	4134.6601496226
0	1216	234951.117983622692	3169.3532826279
0	1221	235295.802452600422	2788.2788172923
0	1229	235958.312182865746	3075.6907777872
0	1246	238480.228396857089	5020.822669252
0	1263	242488.660128012097	6529.1196784693
0	1304	244998.411956152782	4915.8424633487
0	1316	246021.983734163034	2514.7748088243
0	1324	246300.431488704332	3807.6867078989
0	1329	246620.881100249324	3063.9738916459
0	1348	248871.336107818385	5286.5798260809
0	1362	251437.268969130761	4527.2834247513
0	1380	256009.480054298952	7277.6566440611
0	1406	261874.333815489394	8326.134116048
0	1414	262999.600558976439	3867.1059305889
0	1461	275903.011876381918	15490.909811885
0	1467	276181.213571450349	3163.5332282102
0	1478	277145.093413943222	3685.7379587638
0	1483	277449.934868273121	2452.4354852047
0	1508	280412.37710795648	5105.9726337303
0	1516	281059.532005640361	3226.7186229023
0	1546	290327.455202316078	11701.830427171
0	1551	290584.294003199413	2794.0898910327
0	1568	293962.811475353407	5924.0205444312
0	1589	297534.59555792376	6101.6683241882
0	1602	299826.797065381979	4498.5329248324
0	1620	303366.291120643304	6096.5028679644
0	1637	308440.926830414902	7721.9144144867
0	1671	312173.888671791094	6193.7323207923
0	1679	312527.680935912207	2965.4844731278
0	1687	313552.084644374848	3400.5025238997
0	1721	318181.286635599068	7073.9529714868
0	1732	319098.024331265882	3459.3058634815
0	1745	319731.099058117705	2993.0267148356
0	1757	321612.454285126981	4300.4938041495
0	1770	323946.795136871301	4946.3590504423
0	1797	330457.587957236344	9132.6247322955
0	1805	330987.605059911658	2632.9220446928
0	1822	334900.657216273029	6286.1232177137
0	1855	338770.858351622931	6292.4384278359
0	1864	339405.441308926679	3148.0978732684
0	1872	340033.246668651307	3250.9180883385
0	1890	345934.744022289801	8357.1361377565
0	1919	360196.71529157183	16769.176671498
0	1935	362012.146424603032	3934.1108334938
0	1944	363666.094178159141	4063.4002248916
0	1963	373147.214780050646	11765.276034808
0	1981	378891.909478447841	7928.6851151578
0	2011	387863.809534096658	2582.9049492976
0	2016	388163.350658923347	11600.204885091
0	2052	391090.968321565946	5538.541326322
0	2060	391379.62859618363	2967.8339861415
0	2065	391688.39816546803	3177.5916002569
0	2085	404008.115091883424	14621.470311486
0	2118	406996.390883650804	5617.0556730932
0	2126	407905.450580414841	3471.4626334362
0	2135	408970.778336220181	3411.6045598852
0	2152	411672.693271478726	5284.6039163611
0	2180	415445.792353023484	6042.9030707269
0	2202	417304.193816145079	4222.9078971478
0	2218	418350.019490924389	3915.017176455
0	2226	419096.704330383425	3867.3551958985
0	2243	420343.683981178185	3671.7001737842
0	2251	422099.124915998829	4371.8389523151
0	2285	426063.240149190517	6318.8054793932
0	2293	427193.947770420716	3513.6238573692
0	2301	427738.006880051309	2881.199098132
0	2319	434368.689378761168	8946.1874240885
0	2348	440322.435469311283	8386.255870576
0	2361	440945.105429385224	2950.1723209921
0	2378	442716.467081878408	4238.1062370087
0	2395	444604.252320893981	4322.4275368725
0	2403	445883.815231993514	3821.9987431901
0	2423	457368.235821794922	13858.693687509
0	2454	459904.311390238192	4722.0389847297
0	2464	460520.608345678372	2928.9256244062
0	2473	462699.199276293942	5030.0324217443
0	2498	465360.667234744084	5576.6524160674
0	2509	465797.03093775332	3065.4310909096
0	2523	468048.152357134755	4438.9007067173
0	2546	472024.336036148927	6259.9868800978
0	2568	474344.316400421368	4860.8730025208
0	2573	474631.327528653997	2763.2656225566
0	2598	477289.70367828877	5329.5364531578
0	2606	479143.248129580434	4159.0402829965
0	2624	485977.22750050541	9430.6830593096
0	2649	488444.632320943761	4799.2170882058
0	2658	490353.828381735453	4126.2690264558
0	2683	492766.520717435249	5061.6372330245
0	2699	494919.851158955908	4463.1522838091
0	2708	495898.557097190139	3698.8322556649
0	2737	510175.675030474161	16756.711588707
0	2745	511439.528852389157	3841.3798200381
0	2766	517767.99744384444	8585.416439328
0	2780	520660.942898043954	5114.8985229901
0	2821	523454.455497020304	5812.6004211275
0	2832	523808.586933629814	2741.8852871742
0	2853	524680.883769166885	3504.0849118676
0	2862	525276.817141210959	2958.4854382255
0	2873	526252.100253046876	3409.0377697739
0	2878	526576.61481021278	2917.9548112169
0	2896	533460.662512538213	9563.292048263
0	2924	536672.018009554449	5517.4933628036
0	2938	537386.448220583713	2882.3678531602
0	2954	539081.151937876506	4567.7585000271
0	2971	540011.825057347749	3590.1212563997
0	2987	541713.416047506727	4250.9255970945
0	2996	543639.26487138442	4228.5422405891
0	3015	554333.904557859651	13223.076047515
0	3041	559033.106009373617	7352.8234753408
0	3049	560134.501776154934	3281.0435857169
0	3066	563978.74366605477	5824.1870644149
0	3100	567487.863883950414	5988.7067200994
0	3108	567972.554824850991	2878.9434974668
0	3124	569125.685274064375	3966.291804611
0	3133	571173.424727007981	4315.6426024678
0	3159	576706.79503806762	8145.3498341692
0	3167	577353.955605056147	3137.9165585441
0	3192	580689.762103717424	5760.725443886
0	3200	581868.826947788849	3731.7971128533
0	3227	588181.536448331674	8598.5689847147
0	3235	589963.550507337606	4491.2131750497
0	3280	595785.057477640744	8182.5091083858
0	3285	596059.216379407833	2619.3142583861
0	3297	597378.680280912545	2488.6858951651
0	3302	597631.704153912461	4009.7791323662
0	3319	600168.112447575904	5211.4621057722
0	3336	604548.044562093429	6731.5364266218
0	3354	609097.391468495552	6795.1899786368
0	3370	611994.17142242375	5682.2646805968
0	3389	618224.722824743296	8625.866472168
0	3416	627453.541314930741	11798.693682573
0	3424	627762.821437244297	2575.681940489
0	3457	632071.985547407196	6826.9217350739
0	3465	632753.877330362555	3090.9749303987
0	3474	633276.353870326669	2862.6916291537
0	3499	638924.390985505761	8043.2711860026
0	3511	640337.297166366269	3636.5920880906
0	3547	643009.489489627362	2843.7085689983
0	3557	643576.205594925279	5664.2417953069
0	3565	644380.547287920861	3690.30036719
0	3582	645490.491454481701	3304.6955380096
0	3606	647370.805273592734	4542.7627731313
0	3618	648146.782146027519	3232.9123026062
0	3623	648441.970670329048	2856.734510501
0	3640	651200.086149931278	5240.2674165872
0	3658	657167.372315383849	8565.9982671115
0	3708	663602.415467696181	8592.4596404775
0	3719	664464.681055708262	2379.0849124496
0	3727	664826.984382798026	4948.0585043697
0	3732	665129.847193131906	2943.8867724929
0	3740	665609.966927748525	3419.8535692913
0	3774	670703.706343579159	8217.7944845252
0	3782	671458.223862239207	3100.0568264664
0	3802	672201.685924326292	3055.2526587345
0	3815	674081.003779466125	4389.8328608916
0	3823	674648.051595431913	2978.3722766587
0	3849	678268.116731588724	6149.2017880408
0	3865	680292.16400502773	4279.7393540374
0	3874	681794.908262851807	4124.0856113485
0	3902	693044.834761277761	13677.143346708
0	3910	693438.445566191285	2896.1310293462
0	3927	696523.959182880773	5219.0306579046
0	3943	698859.978203441679	4492.5524213075
0	3991	703713.829322090678	7034.7915776592
0	3996	704019.924695940117	2932.2870039005
0	4001	704345.221683494305	2990.8713167663
0	4026	706022.25567672349	4310.1107000701
0	4037	707563.470914538808	4476.5022487196
0	4042	707825.208152072432	2731.8434337424
0	4066	713938.390750741328	8567.8634761457
0	4099	716648.118252213355	5414.6646625237
0	4110	717196.219405902811	3536.3954373733
0	4118	718168.521849856584	4356.8732533752
0	4126	718903.702198106506	2907.9849526427
0	4144	725604.464019298626	9268.532607258
0	4178	729231.26357728778	6091.3609927394
0	4189	729870.095070847146	2720.209370045
0	4194	730129.896861831771	2876.0170533434
0	4211	733184.65091095874	5346.3528129078
0	4230	742812.696410658569	12059.994451901
0	4247	745935.726397026429	5276.4725809098
0	4264	748400.68671373572	4694.2948784497
0	4282	753100.875278330423	7112.3336375407
0	4307	757023.926916817697	6260.6389367928
0	4323	758474.535660545866	3763.804985164
0	4332	759907.278722805473	3781.7608860725
0	4354	777624.243185128561	20231.515000187
0	4371	780166.954785592597	4875.5195013911
0	4389	788345.838881138413	10537.48374815
0	4407	793310.672746660281	7408.0684848217
0	4440	796060.268646533467	5162.2002025624
0	4448	797001.453378848374	3532.6156304209
0	4456	797742.349857372659	3051.9805673301
0	4476	809500.532282777426	14271.029815005
0	4500	822896.902082132761	15857.581224917
0	4514	825309.482344446467	4808.2662535358
0	4531	828106.288878521445	5419.8308613835
0	4556	832361.141577339525	6815.5232816697
0	4572	833801.902523317741	3806.4136327345
0	4581	835249.702387064583	4008.7743130184
0	4613	850486.68010171588	2423.2144799052
0	4618	850800.037486589632	17622.670099467
0	4635	854824.981636608185	6547.5049955519
0	4653	859576.971351409609	7359.6356443142
0	4679	866495.78874516635	9213.0195539979
0	4688	868326.220926790651	4378.210128126
0	4713	871096.070210510051	5185.9287242909
0	4722	873210.321345466866	4520.5691276369
0	4741	883419.493411710378	12886.90035803
0	4766	886848.775340317841	6251.2891485519
0	4778	888267.456022115178	3688.0009128844
0	4799	890458.318752388754	4506.7899088032
0	4807	890780.689426743502	2532.5991616264
0	4852	895032.986727536425	6755.7049446249
0	4865	895894.472106070306	3755.764005727
0	4876	896680.804560393343	2830.2281860427
0	4881	896935.61775594748	3048.3038650677
0	4893	897672.76192953514	3596.6445930672
0	4907	900145.361710547107	5286.8349053932
0	4952	906049.750986816564	8531.2677778415
0	4960	906352.84606293568	2485.5113098436
0	4976	907023.868997857649	2758.3771552254
0	4981	907371.133068530934	2764.5471406386
0	4989	908781.416808183661	4076.1570708786
0	5018	913008.610871007898	6712.227139086
0	5031	914775.765645450712	4390.4619184587
0	5040	915423.85935272283	3016.0509373348
0	5058	923941.590889357434	11120.487343343
0	5093	931301.913641710745	9841.5787516948
0	5101	931948.551299151277	2865.9860976178
0	5134	933670.480517295019	4129.1006055246
0	5145	934611.377634414606	3885.8983249858
0	5150	934943.522613836926	2531.0760295077
0	5158	935578.731103175727	2960.7824734998
0	5185	942611.470923106977	9952.7199654671
0	5196	944007.588163346694	4069.2605283549
0	5210	946538.436921628752	4972.9702054693
0	5244	952123.168024990329	8161.81481752
0	5252	952517.667542225491	2679.2719733243
0	5260	952782.077831969066	2858.5394167319
0	5289	957692.580012376379	7152.0342372532
0	5294	957991.901932233082	3169.3920630968
0	5319	961485.947714297257	6207.6272693367
0	5328	963544.595777546021	4930.1286735158
0	5358	974336.552717840742	13491.434151871
0	5363	974648.743543326352	2966.0213477246
0	5382	983538.514755832841	11804.169480792
0	5400	988519.236653610292	7444.6833371606
0	5431	999083.738735806747	12725.844788478
0	5444	999831.187116849988	3035.7105757501
0	5460	1001742.083354350077	4266.6726579482
0	5485	1003356.963654076275	4469.8595290488
0	5504	1004689.95903032965	3588.0295185437
0	5509	1004981.255735565893	2778.4015901331
0	5518	1006405.615116809237	3851.3984542043
0	5535	1008922.884696532362	5014.7032771938
0	5560	1011540.661683657611	5007.0855075948
0	5568	1012586.337438998695	3485.3273021737
0	5595	1021161.700629717905	10860.819371655
0	5611	1022856.226205835579	3953.7267296506
0	5620	1023606.254604464868	3186.1123359883
0	5637	1026879.087032309602	5711.5280783225
0	5654	1031446.579092415089	7263.7614699305
0	5671	1034309.374881330393	5463.6824005807
1	568	110972.100021024513	0
1	587	117360.598209228601	0
1	604	120024.182440538801	0
1	621	123122.573472474994	0
1	629	125027.956619367485	0
1	646	126055.755493461764	0
1	654	126381.396788946352	0
1	687	129062.584023862854	0
1	695	129519.46489962625	0
1	721	136194.208871302296	0
1	729	137497.245839133678	0
1	737	137982.856099270569	0
1	762	140112.609880942481	0
1	787	142638.252766138492	0
1	796	144272.824150572449	0
1	823	155402.705926283761	0
1	841	159561.579982347299	0
1	849	160230.997606649743	0
1	866	162098.789638585011	0
1	891	165755.180048615158	0
1	908	169358.092768241062	0
1	925	171659.331731958036	0
1	942	174091.450682329487	8.178790173521
1	960	182750.498667852448	0
1	978	186173.912376430592	0
1	986	187294.921759613988	0
1	1011	190179.240474327613	0
1	1019	191992.98412933335	0
1	1045	195755.59393960631	0
1	1053	196056.733059967792	238.537464531
1	1079	202218.885457861535	0
1	1097	208401.349180504113	0
1	1114	211818.522132522632	0
1	1133	220651.962964792524	0
1	1152	230123.249589039376	0
1	1161	231781.764700994799	0
1	1177	232507.523635308143	0
1	1185	232882.621405078589	0
1	1193	233459.405727605091	0
1	1234	235959.540449542829	0
1	1252	240082.56949280404	0
1	1268	242492.744780805403	0
1	1277	243507.208925338705	0
1	1288	243841.734690277835	284.82748167439
1	1293	244124.605253456521	539.84897171905
1	1334	246909.985544379456	0
1	1350	248871.336107818385	139.51269758053
1	1368	253548.199699441376	0
1	1386	259132.494628387538	0
1	1394	260412.102064497034	0
1	1423	273017.680343240158	0
1	1431	273459.355455179396	0
1	1439	274997.499383068453	0
1	1450	275317.344096995625	10.939622769459
1	1488	277832.813382738081	0
1	1496	278625.624775145316	0
1	1523	287790.204112166672	0
1	1532	288109.475607911913	70.684676989709
1	1557	291432.927233735539	0
1	1574	295328.264140549618	0
1	1591	297534.59555792376	264.80730524488
1	1608	300719.01241592824	0
1	1625	305980.156350998766	0
1	1643	309562.196462784454	0
1	1651	310151.582120475099	0
1	1659	311107.33366411228	0
1	1693	315638.718467784358	0
1	1701	316738.072343282113	0
1	1709	317311.960480977491	0
1	1734	319098.024331265882	97.58824483692
1	1759	321612.454285126981	287.49106018616
1	1777	328354.68301521883	0
1	1785	328665.027964666391	50.493966107095
1	1810	332478.419923787052	0
1	1828	336257.343435658285	0
1	1836	336782.32858031284	0
1	1844	337577.607884533337	0
1	1878	343427.538620073565	0
1	1899	358078.035591109201	0
1	1907	359602.693953267562	0
1	1924	361381.938745243062	0
1	1951	370963.224363290056	0
1	1969	376563.1457738322	0
1	1988	385280.904584799068	0
1	1996	385582.662632928576	30.235637684639
1	2021	388411.79461004212	0
1	2029	388693.21691640747	182.41035119631
1	2037	389386.64478039754	0
1	2073	401379.3352105576	0
1	2090	404433.987946978665	0
1	2099	405559.173776335008	0
1	2107	406388.089355117594	0
1	2140	409402.889282296582	0
1	2157	413081.285918997271	0
1	2166	414435.0023144694	0
1	2182	415445.792353023484	216.44321853861
1	2190	416671.98380739397	0
1	2207	417727.285963683709	0
1	2231	419744.434669797276	0
1	2257	423680.323913051559	0
1	2265	424856.80778191928	0
1	2273	425422.501954672639	0
1	2307	431936.179598735299	0
1	2325	437994.933108393083	0
1	2334	438478.360844869668	0
1	2350	440322.435469311283	40.610685289793
1	2367	442061.81648880337	0
1	2383	443509.542134285602	0
1	2411	455182.272405508458	0
1	2428	457591.682721272186	0
1	2436	457908.972921028516	239.80606647887
1	2456	459904.311390238192	120.29657156148
1	2478	462731.599846843714	0
1	2486	463609.251650417429	0
1	2511	465797.03093775332	32.681781702143
1	2528	469483.443397900541	0
1	2548	472024.336036148927	156.27413005151
1	2553	472309.843139446402	349.67591431547
1	2578	474984.207846583946	0
1	2586	476546.54444119581	0
1	2613	483645.415232737974	0
1	2630	486227.559355279699	0
1	2638	487704.883484410795	0
1	2663	490456.698875146789	0
1	2672	492199.724841525211	0
1	2688	493418.963441767596	0
1	2717	507598.149032351098	0
1	2725	509182.581004516391	0
1	2751	515546.044375053835	0
1	2768	517767.99744384444	126.14236795164
1	2785	521066.701646455599	0
1	2793	521373.181063365106	196.38220606582
1	2802	522318.331702985441	0
1	2810	522843.062483272979	0
1	2834	523808.586933629814	149.9269346339
1	2842	524099.210317199459	201.83985292423
1	2885	531154.524646750837	0
1	2902	534504.080367423472	0
1	2910	534780.782596759802	267.38915891039
1	2926	536672.018009554449	250.31420860639
1	2943	537462.490450412206	0
1	2959	539410.722630795369	0
1	2976	541110.828510344667	0
1	3003	551680.282534032825	0
1	3021	556853.458190438015	0
1	3030	558154.556601639841	0
1	3055	561499.157163850976	0
1	3072	565093.611327384162	0
1	3080	565408.138076121958	248.74460666857
1	3088	566857.78212454021	0
1	3113	568561.445203898436	0
1	3139	574216.039046512022	0
1	3147	574929.036659831408	0
1	3172	578137.029834935572	0
1	3181	579582.967463616974	0
1	3207	585472.337332287942	0
1	3215	587602.548369254977	0
1	3241	593439.902121021703	0
1	3249	593771.778778408634	149.85375686234
1	3258	594889.994385747426	0
1	3266	595167.475290437138	210.82494863344
1	3307	597816.508135471668	0
1	3324	602302.201489858711	0
1	3342	606311.906741826971	0
1	3359	609598.856352575294	0
1	3377	615654.847632357658	0
1	3396	625187.13949675532	0
1	3404	625429.251269569028	184.18745723572
1	3429	629662.902399963829	0
1	3438	630413.662241172953	0
1	3446	630881.119799503147	0
1	3480	636700.705078275641	0
1	3488	637911.963799618401	0
1	3513	640337.297166366269	171.51624573717
1	3521	640690.246920730861	0
1	3530	642185.795916472057	0
1	3549	643009.489489627362	181.44698916596
1	3570	644913.869843421325	0
1	3587	645585.236159828057	0
1	3595	645959.818733344044	0
1	3628	648601.374048272363	0
1	3646	655009.955827218717	0
1	3663	659878.925878428347	0
1	3672	662085.596143258668	0
1	3686	662359.738482805605	173.77806216665
1	3694	662636.357690901012	446.2443324438
1	3699	662909.507389892841	423.59553083891
1	3746	668358.167035772768	0
1	3755	669146.433265591756	0
1	3763	669691.170918574526	0
1	3787	671669.679318773195	0
1	3804	672201.685924326292	82.770980778367
1	3829	676012.424650990341	0
1	3837	677670.822651503284	0
1	3854	679367.691414570048	0
1	3882	690542.314536845068	0
1	3890	691304.928524976203	0
1	3915	694367.425782134198	0
1	3932	696679.037744431479	0
1	3949	701087.637692039643	0
1	3957	701394.086309937573	39.735943209534
1	3965	701712.14497665336	0
1	3974	703086.968665819161	0
1	4007	705093.364718330063	0
1	4018	705376.633195727563	6.105921131929
1	4049	711233.4535896897	0
1	4068	713938.390750741328	278.56678221178
1	4074	714239.191932848727	427.5433363673
1	4082	715995.717245463801	0
1	4101	716648.118252213355	312.18684017269
1	4133	723139.902584548355	0
1	4150	727149.885700802153	0
1	4158	727485.356733173964	231.47692468559
1	4166	727838.298098050984	0
1	4199	730752.701958757405	0
1	4218	740659.253816116631	0
1	4235	743706.391835285978	0
1	4252	745988.541640789772	0
1	4270	750763.287980024896	0
1	4287	754710.730675381911	0
1	4296	756125.517836732925	0
1	4312	757392.728184941713	0
1	4342	775291.435284201523	0
1	4359	777808.355132988456	0
1	4377	785902.604261838608	0
1	4395	790898.068443971018	0
1	4412	793468.837748427493	0
1	4420	794690.369290042605	0
1	4429	795229.502467772805	0
1	4465	807039.320857216173	0
1	4485	820501.216090910645	0
1	4502	822896.902082132761	210.44406499485
1	4519	825545.618295669791	0
1	4536	829995.48889058324	0
1	4545	831240.92807404621	0
1	4561	833177.367387122703	0
1	4590	848063.465621810657	0
1	4598	848357.321554377544	79.84491332126
1	4624	852217.335707095404	0
1	4641	857282.769191168494	0
1	4659	863948.01079866469	0
1	4668	865910.141486219129	0
1	4693	868689.752217829994	0
1	4702	870532.593053680423	0
1	4729	880597.486191765991	0
1	4746	884579.455109230761	0
1	4755	885951.528843585581	0
1	4780	888267.456022115178	19.365756998031
1	4788	888602.995603604051	325.7138206925
1	4813	892138.708100343337	0
1	4821	893850.576374350614	0
1	4836	894147.1930819628	259.87919108302
1	4841	894443.375705116459	367.25836864853
1	4854	895032.986727536425	174.45992238255
1	4895	897672.76192953514	154.27872056008
1	4913	903867.334753092056	0
1	4921	904265.49184263226	0
1	4929	904606.585927892377	0
1	4937	904904.62510744337	199.36537013828
1	4962	906352.84606293568	56.462331013784
1	4995	910385.30372699205	0
1	5004	912407.808415387982	0
1	5020	913008.610871007898	187.50732499313
1	5047	921460.334890015936	0
1	5065	929082.565201533454	0
1	5073	929541.379911770466	0
1	5082	930725.479309428785	0
1	5106	932412.446584329207	0
1	5117	932735.931373802165	117.98274412627
1	5126	933025.71950721949	366.96854957962
1	5165	939938.327634991813	0
1	5173	941565.466716159471	0
1	5198	944007.588163346694	46.234955876352
1	5216	949838.395568901214	0
1	5224	950147.956098351527	224.41768311435
1	5232	950540.545775123173	0
1	5266	954822.509869136323	0
1	5274	955278.320444960571	0
1	5299	958614.467104030227	0
1	5308	960845.1185659693	0
1	5335	971682.722195601782	0
1	5344	972028.551565536949	294.20629049643
1	5371	981074.553316449721	0
1	5388	986357.893947328675	0
1	5408	996795.476541099925	0
1	5416	997475.410696401866	0
1	5433	999083.738735806747	196.6346107793
1	5449	1001101.929511785908	0
1	5466	1002202.854145432811	0
1	5474	1002554.21666260497	0
1	5490	1003908.181419338605	0
1	5523	1006533.576176062841	0
1	5540	1009101.010136825043	0
1	5548	1010300.881258062871	0
1	5575	1018902.499476185027	0
1	5584	1020420.142268476556	0
1	5600	1021167.558953987079	0
1	5625	1024182.81762248462	0
1	5642	1028845.69248074969	0
1	5659	1031860.90798964183	0
1	5676	1034576.839014998158	0
2	566	110972.100021024513	1
2	568	110972.100021024513	0
2	585	117360.598209228601	1
2	587	117360.598209228601	0
2	602	120024.182440538801	1
2	604	120024.182440538801	0
2	619	123122.573472474994	1
2	621	123122.573472474994	0
2	627	125027.956619367485	1
2	629	125027.956619367485	0
2	644	126055.755493461764	1
2	646	126055.755493461764	0
2	652	126381.396788946352	1
2	654	126381.396788946352	0
2	685	129062.584023862854	1
2	687	129062.584023862854	0
2	693	129519.46489962625	1
2	695	129519.46489962625	0
2	719	136194.208871302296	1
2	721	136194.208871302296	0
2	727	137497.245839133678	1
2	729	137497.245839133678	0
2	735	137982.856099270569	1
2	737	137982.856099270569	0
2	760	140112.609880942481	1
2	762	140112.609880942481	0
2	785	142638.252766138492	1
2	787	142638.252766138492	0
2	794	144272.824150572449	1
2	796	144272.824150572449	0
2	821	155402.705926283761	1
2	823	155402.705926283761	0
2	839	159561.579982347299	1
2	841	159561.579982347299	0
2	847	160230.997606649743	1
2	849	160230.997606649743	0
2	864	162098.789638585011	1
2	866	162098.789638585011	0
2	889	165755.180048615158	1
2	891	165755.180048615158	0
2	906	169358.092768241062	1
2	908	169358.092768241062	0
2	923	171659.331731958036	1
2	925	171659.331731958036	0
2	937	174083.271892155966	1
2	942	174091.450682329487	0
2	958	182750.498667852448	1
2	960	182750.498667852448	0
2	976	186173.912376430592	1
2	978	186173.912376430592	0
2	984	187294.921759613988	1
2	986	187294.921759613988	0
2	1009	190179.240474327613	1
2	1011	190179.240474327613	0
2	1017	191992.98412933335	1
2	1019	191992.98412933335	0
2	1043	195755.59393960631	1
2	1045	195755.59393960631	0
2	1048	195818.195595436791	1
2	1053	196056.733059967792	0
2	1077	202218.885457861535	1
2	1079	202218.885457861535	0
2	1095	208401.349180504113	1
2	1097	208401.349180504113	0
2	1112	211818.522132522632	1
2	1114	211818.522132522632	0
2	1131	220651.962964792524	1
2	1133	220651.962964792524	0
2	1150	230123.249589039376	1
2	1152	230123.249589039376	0
2	1159	231781.764700994799	1
2	1161	231781.764700994799	0
2	1175	232507.523635308143	1
2	1177	232507.523635308143	0
2	1183	232882.621405078589	1
2	1185	232882.621405078589	0
2	1191	233459.405727605091	1
2	1193	233459.405727605091	0
2	1232	235959.540449542829	1
2	1234	235959.540449542829	0
2	1250	240082.56949280404	1
2	1252	240082.56949280404	0
2	1266	242492.744780805403	1
2	1268	242492.744780805403	0
2	1275	243507.208925338705	1
2	1277	243507.208925338705	0
2	1280	243556.90720860345	1
2	1283	243584.756281737469	2
2	1288	243841.734690277835	1
2	1293	244124.605253456521	0
2	1332	246909.985544379456	1
2	1334	246909.985544379456	0
2	1345	248731.823410237854	1
2	1350	248871.336107818385	0
2	1366	253548.199699441376	1
2	1368	253548.199699441376	0
2	1384	259132.494628387538	1
2	1386	259132.494628387538	0
2	1392	260412.102064497034	1
2	1394	260412.102064497034	0
2	1421	273017.680343240158	1
2	1423	273017.680343240158	0
2	1429	273459.355455179396	1
2	1431	273459.355455179396	0
2	1437	274997.499383068453	1
2	1439	274997.499383068453	0
2	1445	275306.404474226166	1
2	1450	275317.344096995625	0
2	1486	277832.813382738081	1
2	1488	277832.813382738081	0
2	1494	278625.624775145316	1
2	1496	278625.624775145316	0
2	1521	287790.204112166672	1
2	1523	287790.204112166672	0
2	1527	288038.790930922204	1
2	1532	288109.475607911913	0
2	1555	291432.927233735539	1
2	1557	291432.927233735539	0
2	1572	295328.264140549618	1
2	1574	295328.264140549618	0
2	1586	297269.788252678878	1
2	1591	297534.59555792376	0
2	1606	300719.01241592824	1
2	1608	300719.01241592824	0
2	1623	305980.156350998766	1
2	1625	305980.156350998766	0
2	1641	309562.196462784454	1
2	1643	309562.196462784454	0
2	1649	310151.582120475099	1
2	1651	310151.582120475099	0
2	1657	311107.33366411228	1
2	1659	311107.33366411228	0
2	1691	315638.718467784358	1
2	1693	315638.718467784358	0
2	1699	316738.072343282113	1
2	1701	316738.072343282113	0
2	1707	317311.960480977491	1
2	1709	317311.960480977491	0
2	1729	319000.436086428962	1
2	1734	319098.024331265882	0
2	1754	321324.963224940818	1
2	1759	321612.454285126981	0
2	1775	328354.68301521883	1
2	1777	328354.68301521883	0
2	1780	328614.533998559296	1
2	1785	328665.027964666391	0
2	1808	332478.419923787052	1
2	1810	332478.419923787052	0
2	1826	336257.343435658285	1
2	1828	336257.343435658285	0
2	1834	336782.32858031284	1
2	1836	336782.32858031284	0
2	1842	337577.607884533337	1
2	1844	337577.607884533337	0
2	1876	343427.538620073565	1
2	1878	343427.538620073565	0
2	1897	358078.035591109201	1
2	1899	358078.035591109201	0
2	1905	359602.693953267562	1
2	1907	359602.693953267562	0
2	1922	361381.938745243062	1
2	1924	361381.938745243062	0
2	1949	370963.224363290056	1
2	1951	370963.224363290056	0
2	1967	376563.1457738322	1
2	1969	376563.1457738322	0
2	1986	385280.904584799068	1
2	1988	385280.904584799068	0
2	1991	385552.426995243937	1
2	1996	385582.662632928576	0
2	2019	388411.79461004212	1
2	2021	388411.79461004212	0
2	2024	388510.806565211158	1
2	2029	388693.21691640747	0
2	2035	389386.64478039754	1
2	2037	389386.64478039754	0
2	2071	401379.3352105576	1
2	2073	401379.3352105576	0
2	2088	404433.987946978665	1
2	2090	404433.987946978665	0
2	2097	405559.173776335008	1
2	2099	405559.173776335008	0
2	2105	406388.089355117594	1
2	2107	406388.089355117594	0
2	2138	409402.889282296582	1
2	2140	409402.889282296582	0
2	2155	413081.285918997271	1
2	2157	413081.285918997271	0
2	2164	414435.0023144694	1
2	2166	414435.0023144694	0
2	2177	415229.349134484875	1
2	2182	415445.792353023484	0
2	2188	416671.98380739397	1
2	2190	416671.98380739397	0
2	2205	417727.285963683709	1
2	2207	417727.285963683709	0
2	2229	419744.434669797276	1
2	2231	419744.434669797276	0
2	2255	423680.323913051559	1
2	2257	423680.323913051559	0
2	2263	424856.80778191928	1
2	2265	424856.80778191928	0
2	2271	425422.501954672639	1
2	2273	425422.501954672639	0
2	2305	431936.179598735299	1
2	2307	431936.179598735299	0
2	2323	437994.933108393083	1
2	2325	437994.933108393083	0
2	2332	438478.360844869668	1
2	2334	438478.360844869668	0
2	2345	440281.82478402149	1
2	2350	440322.435469311283	0
2	2365	442061.81648880337	1
2	2367	442061.81648880337	0
2	2381	443509.542134285602	1
2	2383	443509.542134285602	0
2	2409	455182.272405508458	1
2	2411	455182.272405508458	0
2	2426	457591.682721272186	1
2	2428	457591.682721272186	0
2	2431	457669.16685454965	1
2	2436	457908.972921028516	0
2	2451	459784.014818676707	1
2	2456	459904.311390238192	0
2	2476	462731.599846843714	1
2	2478	462731.599846843714	0
2	2484	463609.251650417429	1
2	2486	463609.251650417429	0
2	2506	465764.349156051177	1
2	2511	465797.03093775332	0
2	2526	469483.443397900541	1
2	2528	469483.443397900541	0
2	2540	471868.061906097421	1
2	2543	471960.167225130935	2
2	2548	472024.336036148927	1
2	2553	472309.843139446402	0
2	2576	474984.207846583946	1
2	2578	474984.207846583946	0
2	2584	476546.54444119581	1
2	2586	476546.54444119581	0
2	2611	483645.415232737974	1
2	2613	483645.415232737974	0
2	2628	486227.559355279699	1
2	2630	486227.559355279699	0
2	2636	487704.883484410795	1
2	2638	487704.883484410795	0
2	2661	490456.698875146789	1
2	2663	490456.698875146789	0
2	2670	492199.724841525211	1
2	2672	492199.724841525211	0
2	2686	493418.963441767596	1
2	2688	493418.963441767596	0
2	2715	507598.149032351098	1
2	2717	507598.149032351098	0
2	2723	509182.581004516391	1
2	2725	509182.581004516391	0
2	2749	515546.044375053835	1
2	2751	515546.044375053835	0
2	2763	517641.855075892796	1
2	2768	517767.99744384444	0
2	2783	521066.701646455599	1
2	2785	521066.701646455599	0
2	2788	521176.798857299282	1
2	2793	521373.181063365106	0
2	2800	522318.331702985441	1
2	2802	522318.331702985441	0
2	2808	522843.062483272979	1
2	2810	522843.062483272979	0
2	2829	523658.659998995912	1
2	2834	523808.586933629814	0
2	2837	523897.370464275225	1
2	2842	524099.210317199459	0
2	2883	531154.524646750837	1
2	2885	531154.524646750837	0
2	2900	534504.080367423472	1
2	2902	534504.080367423472	0
2	2905	534513.39343784941	1
2	2910	534780.782596759802	0
2	2921	536421.703800948058	1
2	2926	536672.018009554449	0
2	2941	537462.490450412206	1
2	2943	537462.490450412206	0
2	2957	539410.722630795369	1
2	2959	539410.722630795369	0
2	2974	541110.828510344667	1
2	2976	541110.828510344667	0
2	3001	551680.282534032825	1
2	3003	551680.282534032825	0
2	3019	556853.458190438015	1
2	3021	556853.458190438015	0
2	3028	558154.556601639841	1
2	3030	558154.556601639841	0
2	3053	561499.157163850976	1
2	3055	561499.157163850976	0
2	3070	565093.611327384162	1
2	3072	565093.611327384162	0
2	3075	565159.393469453388	1
2	3080	565408.138076121958	0
2	3086	566857.78212454021	1
2	3088	566857.78212454021	0
2	3111	568561.445203898436	1
2	3113	568561.445203898436	0
2	3137	574216.039046512022	1
2	3139	574216.039046512022	0
2	3145	574929.036659831408	1
2	3147	574929.036659831408	0
2	3170	578137.029834935572	1
2	3172	578137.029834935572	0
2	3179	579582.967463616974	1
2	3181	579582.967463616974	0
2	3205	585472.337332287942	1
2	3207	585472.337332287942	0
2	3213	587602.548369254977	1
2	3215	587602.548369254977	0
2	3239	593439.902121021703	1
2	3241	593439.902121021703	0
2	3244	593621.925021546295	1
2	3249	593771.778778408634	0
2	3256	594889.994385747426	1
2	3258	594889.994385747426	0
2	3261	594956.650341803697	1
2	3266	595167.475290437138	0
2	3305	597816.508135471668	1
2	3307	597816.508135471668	0
2	3322	602302.201489858711	1
2	3324	602302.201489858711	0
2	3340	606311.906741826971	1
2	3342	606311.906741826971	0
2	3357	609598.856352575294	1
2	3359	609598.856352575294	0
2	3375	615654.847632357658	1
2	3377	615654.847632357658	0
2	3394	625187.13949675532	1
2	3396	625187.13949675532	0
2	3399	625245.063812333304	1
2	3404	625429.251269569028	0
2	3427	629662.902399963829	1
2	3429	629662.902399963829	0
2	3436	630413.662241172953	1
2	3438	630413.662241172953	0
2	3444	630881.119799503147	1
2	3446	630881.119799503147	0
2	3478	636700.705078275641	1
2	3480	636700.705078275641	0
2	3486	637911.963799618401	1
2	3488	637911.963799618401	0
2	3508	640165.780920629098	1
2	3513	640337.297166366269	0
2	3519	640690.246920730861	1
2	3521	640690.246920730861	0
2	3528	642185.795916472057	1
2	3530	642185.795916472057	0
2	3544	642828.042500461403	1
2	3549	643009.489489627362	0
2	3568	644913.869843421325	1
2	3570	644913.869843421325	0
2	3585	645585.236159828057	1
2	3587	645585.236159828057	0
2	3593	645959.818733344044	1
2	3595	645959.818733344044	0
2	3626	648601.374048272363	1
2	3628	648601.374048272363	0
2	3644	655009.955827218717	1
2	3646	655009.955827218717	0
2	3661	659878.925878428347	1
2	3663	659878.925878428347	0
2	3670	662085.596143258668	1
2	3672	662085.596143258668	0
2	3678	662185.960420638957	1
2	3681	662190.113358457208	2
2	3686	662359.738482805605	1
2	3689	662485.91185905393	2
2	3694	662636.357690901012	1
2	3699	662909.507389892841	0
2	3744	668358.167035772768	1
2	3746	668358.167035772768	0
2	3753	669146.433265591756	1
2	3755	669146.433265591756	0
2	3761	669691.170918574526	1
2	3763	669691.170918574526	0
2	3785	671669.679318773195	1
2	3787	671669.679318773195	0
2	3799	672118.914943547925	1
2	3804	672201.685924326292	0
2	3827	676012.424650990341	1
2	3829	676012.424650990341	0
2	3835	677670.822651503284	1
2	3837	677670.822651503284	0
2	3852	679367.691414570048	1
2	3854	679367.691414570048	0
2	3880	690542.314536845068	1
2	3882	690542.314536845068	0
2	3888	691304.928524976203	1
2	3890	691304.928524976203	0
2	3913	694367.425782134198	1
2	3915	694367.425782134198	0
2	3930	696679.037744431479	1
2	3932	696679.037744431479	0
2	3947	701087.637692039643	1
2	3949	701087.637692039643	0
2	3952	701354.350366728039	1
2	3957	701394.086309937573	0
2	3963	701712.14497665336	1
2	3965	701712.14497665336	0
2	3972	703086.968665819161	1
2	3974	703086.968665819161	0
2	4005	705093.364718330063	1
2	4007	705093.364718330063	0
2	4013	705370.527274595634	1
2	4018	705376.633195727563	0
2	4047	711233.4535896897	1
2	4049	711233.4535896897	0
2	4060	713659.823968529552	1
2	4063	713811.648596481423	2
2	4068	713938.390750741328	1
2	4074	714239.191932848727	0
2	4080	715995.717245463801	1
2	4082	715995.717245463801	0
2	4093	716335.931412040669	1
2	4101	716648.118252213355	0
2	4131	723139.902584548355	1
2	4133	723139.902584548355	0
2	4148	727149.885700802153	1
2	4150	727149.885700802153	0
2	4153	727253.87980848837	1
2	4158	727485.356733173964	0
2	4164	727838.298098050984	1
2	4166	727838.298098050984	0
2	4197	730752.701958757405	1
2	4199	730752.701958757405	0
2	4216	740659.253816116631	1
2	4218	740659.253816116631	0
2	4233	743706.391835285978	1
2	4235	743706.391835285978	0
2	4250	745988.541640789772	1
2	4252	745988.541640789772	0
2	4268	750763.287980024896	1
2	4270	750763.287980024896	0
2	4285	754710.730675381911	1
2	4287	754710.730675381911	0
2	4294	756125.517836732925	1
2	4296	756125.517836732925	0
2	4310	757392.728184941713	1
2	4312	757392.728184941713	0
2	4340	775291.435284201523	1
2	4342	775291.435284201523	0
2	4357	777808.355132988456	1
2	4359	777808.355132988456	0
2	4375	785902.604261838608	1
2	4377	785902.604261838608	0
2	4393	790898.068443971018	1
2	4395	790898.068443971018	0
2	4410	793468.837748427493	1
2	4412	793468.837748427493	0
2	4418	794690.369290042605	1
2	4420	794690.369290042605	0
2	4427	795229.502467772805	1
2	4429	795229.502467772805	0
2	4463	807039.320857216173	1
2	4465	807039.320857216173	0
2	4483	820501.216090910645	1
2	4485	820501.216090910645	0
2	4497	822686.458017137906	1
2	4502	822896.902082132761	0
2	4517	825545.618295669791	1
2	4519	825545.618295669791	0
2	4534	829995.48889058324	1
2	4536	829995.48889058324	0
2	4543	831240.92807404621	1
2	4545	831240.92807404621	0
2	4559	833177.367387122703	1
2	4561	833177.367387122703	0
2	4588	848063.465621810657	1
2	4590	848063.465621810657	0
2	4593	848277.476641056284	1
2	4598	848357.321554377544	0
2	4622	852217.335707095404	1
2	4624	852217.335707095404	0
2	4639	857282.769191168494	1
2	4641	857282.769191168494	0
2	4657	863948.01079866469	1
2	4659	863948.01079866469	0
2	4666	865910.141486219129	1
2	4668	865910.141486219129	0
2	4691	868689.752217829994	1
2	4693	868689.752217829994	0
2	4700	870532.593053680423	1
2	4702	870532.593053680423	0
2	4727	880597.486191765991	1
2	4729	880597.486191765991	0
2	4744	884579.455109230761	1
2	4746	884579.455109230761	0
2	4753	885951.528843585581	1
2	4755	885951.528843585581	0
2	4775	888248.090265117147	1
2	4780	888267.456022115178	0
2	4783	888277.281782911548	1
2	4788	888602.995603604051	0
2	4811	892138.708100343337	1
2	4813	892138.708100343337	0
2	4819	893850.576374350614	1
2	4821	893850.576374350614	0
2	4824	893887.313890879775	1
2	4831	894076.11733646793	2
2	4836	894147.1930819628	1
2	4841	894443.375705116459	0
2	4849	894858.526805153871	1
2	4854	895032.986727536425	0
2	4890	897518.483208975062	1
2	4895	897672.76192953514	0
2	4911	903867.334753092056	1
2	4913	903867.334753092056	0
2	4919	904265.49184263226	1
2	4921	904265.49184263226	0
2	4927	904606.585927892377	1
2	4929	904606.585927892377	0
2	4932	904705.259737305085	1
2	4937	904904.62510744337	0
2	4957	906296.383731921896	1
2	4962	906352.84606293568	0
2	4993	910385.30372699205	1
2	4995	910385.30372699205	0
2	5002	912407.808415387982	1
2	5004	912407.808415387982	0
2	5015	912821.103546014772	1
2	5020	913008.610871007898	0
2	5045	921460.334890015936	1
2	5047	921460.334890015936	0
2	5063	929082.565201533454	1
2	5065	929082.565201533454	0
2	5071	929541.379911770466	1
2	5073	929541.379911770466	0
2	5080	930725.479309428785	1
2	5082	930725.479309428785	0
2	5104	932412.446584329207	1
2	5106	932412.446584329207	0
2	5109	932617.948629675894	1
2	5112	932658.750957639867	2
2	5117	932735.931373802165	1
2	5126	933025.71950721949	0
2	5163	939938.327634991813	1
2	5165	939938.327634991813	0
2	5171	941565.466716159471	1
2	5173	941565.466716159471	0
2	5193	943961.353207470342	1
2	5198	944007.588163346694	0
2	5214	949838.395568901214	1
2	5216	949838.395568901214	0
2	5219	949923.538415237179	1
2	5224	950147.956098351527	0
2	5230	950540.545775123173	1
2	5232	950540.545775123173	0
2	5264	954822.509869136323	1
2	5266	954822.509869136323	0
2	5272	955278.320444960571	1
2	5274	955278.320444960571	0
2	5297	958614.467104030227	1
2	5299	958614.467104030227	0
2	5306	960845.1185659693	1
2	5308	960845.1185659693	0
2	5333	971682.722195601782	1
2	5335	971682.722195601782	0
2	5338	971734.345275040523	1
2	5344	972028.551565536949	0
2	5369	981074.553316449721	1
2	5371	981074.553316449721	0
2	5386	986357.893947328675	1
2	5388	986357.893947328675	0
2	5406	996795.476541099925	1
2	5408	996795.476541099925	0
2	5414	997475.410696401866	1
2	5416	997475.410696401866	0
2	5427	998887.104125027445	1
2	5433	999083.738735806747	0
2	5447	1001101.929511785908	1
2	5449	1001101.929511785908	0
2	5464	1002202.854145432811	1
2	5466	1002202.854145432811	0
2	5472	1002554.21666260497	1
2	5474	1002554.21666260497	0
2	5488	1003908.181419338605	1
2	5490	1003908.181419338605	0
2	5521	1006533.576176062841	1
2	5523	1006533.576176062841	0
2	5538	1009101.010136825043	1
2	5540	1009101.010136825043	0
2	5546	1010300.881258062871	1
2	5548	1010300.881258062871	0
2	5573	1018902.499476185027	1
2	5575	1018902.499476185027	0
2	5582	1020420.142268476556	1
2	5584	1020420.142268476556	0
2	5598	1021167.558953987079	1
2	5600	1021167.558953987079	0
2	5623	1024182.81762248462	1
2	5625	1024182.81762248462	0
2	5640	1028845.69248074969	1
2	5642	1028845.69248074969	0
2	5657	1031860.90798964183	1
2	5659	1031860.90798964183	0
2	5674	1034576.839014998158	1
2	5676	1034576.839014998158	0
3	549	100589.40099787569	0
3	557	101623.404015753644	0
3	577	113167.16136212351	0
3	595	119226.940416208404	0
3	612	121901.304917776033	0
3	637	125306.198236204109	151.53228657644
3	662	126836.322441569796	0
3	670	128034.654756312587	0
3	678	128420.55823768962	0
3	703	131377.738975633547	0
3	711	131704.166926869724	140.46470465984
3	746	138606.383841327835	0
3	754	139667.234023907451	0
3	770	140398.85802662215	278.50209252352
3	779	142241.299347568602	0
3	804	144576.213215429324	32.03343662105
3	812	146506.240206700064	0
3	832	157274.964064190101	0
3	857	161710.209497114091	0
3	874	162501.643008380981	0
3	882	164399.257084242668	0
3	899	167831.810031609064	0
3	917	171370.0683973696	0
3	933	173787.693623113268	0
3	950	175991.793964476674	0
3	969	184928.631253773211	0
3	994	187899.050214108573	0
3	1003	189401.299766406033	0
3	1028	192431.288279164454	0
3	1036	193882.178848792574	0
3	1061	197987.164625918067	0
3	1070	198231.023598924127	200.70609218396
3	1088	204371.405363916544	0
3	1106	210156.96939885081	0
3	1123	213906.73863876008	0
3	1142	222706.466497765716	0
3	1169	232091.169771285594	154.82397362139
3	1201	233975.872748418942	0
3	1210	234660.660416314462	0
3	1218	234951.117983622692	157.88879914301
3	1226	235657.594857248127	0
3	1243	238180.287056740358	0
3	1260	242194.03930518313	0
3	1301	244659.266506948248	0
3	1309	245684.294489750173	0
3	1318	246021.983734163034	305.63561341386
3	1326	246300.431488704332	273.20243648689
3	1342	248586.677769727619	0
3	1359	251146.675606211891	0
3	1377	255704.64647833158	0
3	1403	261579.565572750598	0
3	1411	262723.938124358596	0
3	1455	275635.811466805476	448.38663015879
3	1463	275903.011876381918	190.23330158941
3	1472	276849.041014954474	0
3	1480	277145.093413943222	41.989306931611
3	1505	280129.687344912082	0
3	1513	280746.996249411694	0
3	1540	290009.087077956604	0
3	1548	290327.455202316078	135.95379864916
3	1565	293625.051167418506	0
3	1583	297267.311724989055	0
3	1599	299550.099277637264	0
3	1617	303071.78868979946	0
3	1634	308143.611469034681	0
3	1667	311927.605781806424	0
3	1676	312239.467040804422	0
3	1684	313225.213200300192	0
3	1717	317888.272473120586	0
3	1726	318805.51854280925	0
3	1742	319390.809987786336	120.53705557264
3	1751	321299.182776899453	0
3	1767	323598.16790268007	0
3	1794	330168.160999581516	0
3	1802	330706.149054468086	0
3	1819	334598.292650184191	0
3	1852	338508.037737670625	0
3	1861	339079.7111083287	0
3	1869	339718.47907012919	0
3	1887	345662.954582177157	0
3	1915	359899.45172313458	29.446364306355
3	1932	361682.387569952192	0
3	1941	363351.464613726319	0
3	1960	372857.849319707503	0
3	1978	378596.628564992889	0
3	2005	387524.26425106102	0
3	2013	387863.809534096658	144.23792411347
3	2046	390703.311559847667	0
3	2054	391090.968321565946	112.18909061164
3	2062	391379.62859618363	234.45675049469
3	2082	403681.75649860139	0
3	2115	406727.903300457306	42.955906579908
3	2123	407639.754247750888	0
3	2132	408659.91306805048	0
3	2149	411335.201793655665	0
3	2174	415122.752464480363	0
3	2198	416987.204996230216	303.05851833175
3	2215	418084.494622167314	252.8325204105
3	2223	418787.692736129262	0
3	2240	420055.293813131148	253.2487102739
3	2248	421819.574477497986	0
3	2281	425796.561527378726	0
3	2290	426872.437343848232	0
3	2298	427478.580416115495	0
3	2316	434070.776346717514	0
3	2342	439996.648307260688	0
3	2358	440612.069575851026	56.940119844195
3	2375	442422.134835488301	78.99051144739
3	2392	444290.513408675148	0
3	2400	445610.687557378935	0
3	2420	457133.031858962247	0
3	2445	459604.285384717429	0
3	2461	460191.360478946425	576.64510674815
3	2470	462391.479166274588	0
3	2495	465105.179476455076	0
3	2503	465457.663690436578	0
3	2519	467767.296732100176	0
3	2537	471709.189421880962	0
3	2562	474087.899286970232	0
3	2570	474344.316400421368	112.6346803068
3	2594	476997.173823761464	0
3	2603	478831.180195270921	0
3	2621	485631.543950514075	0
3	2646	488078.427093625496	0
3	2655	490068.513785278855	0
3	2680	492501.575268613335	94.554202125504
3	2696	494632.55632700032	0
3	2705	495588.545295418847	0
3	2733	509956.612053839068	0
3	2742	511183.408822213669	0
3	2760	517454.500938697402	0
3	2777	520310.701560480426	0
3	2818	523177.07180525613	0
3	2826	523531.364018207463	0
3	2850	524391.400064721451	172.54280578277
3	2858	524950.565641035115	0
3	2867	525997.254989240395	0
3	2875	526252.100253046876	123.60355918009
3	2893	533134.288747373529	0
3	2918	536392.866991777624	0
3	2935	537101.367349784729	0
3	2951	538844.007133559247	0
3	2967	539736.585092961781	162.01750001768
3	2984	541437.716655103445	67.558420570927
3	2993	543375.932178470659	0
3	3012	553920.329843973125	0
3	3038	558672.392987567058	0
3	3046	559795.909545529992	0
3	3063	563631.572120142361	0
3	3097	567150.96801383459	81.377088941881
3	3105	567626.326848767222	0
3	3121	568876.82358828986	0
3	3130	570911.609557925252	0
3	3156	576419.840608828376	0
3	3164	577090.348610769596	0
3	3189	580364.402341300361	0
3	3197	581601.882195761416	0
3	3223	587908.866822720234	101.48648046811
3	3232	589681.311575418361	0
3	3274	595491.689563432657	0
3	3282	595785.057477640744	74.891601158416
3	3291	597058.575662474066	0
3	3299	597378.680280912545	171.47464929158
3	3315	599874.963856373077	0
3	3333	604251.713430187749	0
3	3350	608803.187003027056	0
3	3367	611752.363665139034	0
3	3385	617936.701152717558	0
3	3413	627165.499035645794	0
3	3421	627464.769914816355	0
3	3454	631762.291258857886	0
3	3462	632513.940447012277	0
3	3470	632939.838621676022	0
3	3496	638624.189394973781	0
3	3505	640010.608824615271	0
3	3538	642736.967942326071	0
3	3554	643278.804997536308	530.09062256765
3	3562	644096.498795638102	0
3	3579	645168.650742995616	180.92126217812
3	3603	647087.351152417122	0
3	3611	647826.89390707424	0
3	3620	648146.782146027519	100.81029861702
3	3636	650926.823051711823	0
3	3654	656927.189444021017	0
3	3705	663238.10578045266	1060.0262930531
3	3713	664186.508263993046	0
3	3721	664464.681055708262	170.37268317599
3	3729	664826.984382798026	255.08083387165
3	3737	665330.506087750728	0
3	3771	670454.48163972398	0
3	3779	671211.716373136639	0
3	3795	671896.641273828101	36.22104468678
3	3812	673780.529444447288	0
3	3820	674336.487973309148	0
3	3845	677966.024875059735	165.33729206798
3	3862	679988.75149199261	0
3	3871	681495.020623132681	0
3	3898	692727.748920314029	0
3	3907	693148.728157395588	0
3	3924	696260.259207267963	0
3	3940	698567.932927756036	0
3	3985	703403.741365240897	192.31283190921
3	3993	703713.829322090678	411.86944697263
3	3998	704019.924695940117	311.35395131721
3	4023	705686.114627191239	579.78322059301
3	4031	707269.60119595701	0
3	4039	707563.470914538808	207.06469764115
3	4057	713580.049398180967	0
3	4090	716318.572700126912	0
3	4106	716904.671504835461	545.31550672156
3	4115	717891.055549642717	0
3	4123	718541.700338862806	0
3	4141	725264.620801148084	0
3	4174	728939.731080624388	0
3	4183	729548.632982609755	0
3	4191	729870.095070847146	204.68373811407
3	4208	732870.568867876983	0
3	4227	742517.60477850492	0
3	4244	745654.877021940352	0
3	4261	748034.70459602467	0
3	4278	752833.015452717859	0
3	4304	756685.107292030502	0
3	4320	758190.315910128262	0
3	4329	759639.995307704788	0
3	4351	777302.183121911254	0
3	4367	779843.127562297701	0
3	4386	788023.935747385998	0
3	4404	792996.671856793531	0
3	4437	795804.603718576914	0
3	4445	796728.059160590469	0
3	4453	797456.417251620274	0
3	4473	809241.377748030574	0
3	4494	822610.146188355597	0
3	4511	825001.284060532568	0
3	4527	827764.706674002306	0
3	4553	832020.552633413559	0
3	4569	833491.109180006811	169.5476684511
3	4578	834962.114322649277	0
3	4607	850207.806274236726	0
3	4615	850486.68010171588	150.63319044734
3	4632	854482.43769643304	0
3	4650	859269.648351638992	0
3	4676	866186.718290963388	0
3	4685	868040.787867042998	0
3	4710	870798.206806756618	73.604448527724
3	4718	872859.842030424217	0
3	4738	883151.978915282458	0
3	4763	886593.366384560856	0
3	4771	887935.64444685068	0
3	4796	890138.392390199694	0
3	4804	890459.406250444319	0
3	4846	894728.399419925343	773.66417257662
3	4862	895597.318793313682	0
3	4870	896349.875569798269	0
3	4878	896680.804560393343	104.34619947017
3	4887	897380.801638885954	0
3	4903	899841.766737562164	0
3	4945	905749.307931509196	0
3	4954	906049.750986816564	7.040717403632
3	4970	906675.180099534088	26.158386303102
3	4978	907023.868997857649	282.58956413235
3	4986	908509.242576302334	0
3	5012	912698.500920743259	58.098454395746
3	5028	914495.052779192981	0
3	5037	915124.540554477089	0
3	5055	923606.335723478824	0
3	5090	931029.186794911851	0
3	5098	931622.173986332557	0
3	5131	933332.384912833551	391.76886417442
3	5139	934358.595962341444	0
3	5147	934611.377634414606	106.13731180968
3	5155	935272.64489039693	0
3	5182	942303.442398055387	0
3	5190	943752.86189545358	0
3	5207	946176.963797611992	0
3	5241	951810.381758587849	0
3	5249	952243.389885053785	0
3	5257	952533.85346211995	0
3	5283	957351.073425892074	0
3	5291	957692.580012376379	324.96727078425
3	5316	961191.653724287475	257.56202553888
3	5325	963294.532904312196	0
3	5352	974012.176703233536	0
3	5360	974336.552717840742	246.96570950474
3	5379	983300.319157646232	0
3	5397	988251.313433566402	0
3	5424	998761.766188705862	0
3	5441	999522.933120509281	0
3	5457	1001439.803738995696	40.823428682977
3	5482	1003067.604024665104	0
3	5498	1004360.188999567113	0
3	5506	1004689.95903032965	34.838076824128
3	5515	1006146.602987572689	0
3	5532	1008668.807342255545	0
3	5557	1011261.810705938318	0
3	5565	1012280.515969707278	0
3	5592	1020866.078457437892	0
3	5608	1022547.844502011761	0
3	5617	1023239.340306864547	0
3	5634	1026565.03612419097	0
3	5651	1031160.073458538031	0
3	5668	1034004.401404624738	0
3	5685	1036734.070202628313	0
4	547	100589.40099787569	1
4	549	100589.40099787569	0
4	555	101623.404015753644	1
4	557	101623.404015753644	0
4	575	113167.16136212351	1
4	577	113167.16136212351	0
4	593	119226.940416208404	1
4	595	119226.940416208404	0
4	610	121901.304917776033	1
4	612	121901.304917776033	0
4	632	125154.665949627666	1
4	637	125306.198236204109	0
4	660	126836.322441569796	1
4	662	126836.322441569796	0
4	668	128034.654756312587	1
4	670	128034.654756312587	0
4	676	128420.55823768962	1
4	678	128420.55823768962	0
4	701	131377.738975633547	1
4	703	131377.738975633547	0
4	706	131563.70222220988	1
4	711	131704.166926869724	0
4	744	138606.383841327835	1
4	746	138606.383841327835	0
4	752	139667.234023907451	1
4	754	139667.234023907451	0
4	765	140120.355934098627	1
4	770	140398.85802662215	0
4	777	142241.299347568602	1
4	779	142241.299347568602	0
4	799	144544.179778808274	1
4	804	144576.213215429324	0
4	810	146506.240206700064	1
4	812	146506.240206700064	0
4	830	157274.964064190101	1
4	832	157274.964064190101	0
4	855	161710.209497114091	1
4	857	161710.209497114091	0
4	872	162501.643008380981	1
4	874	162501.643008380981	0
4	880	164399.257084242668	1
4	882	164399.257084242668	0
4	897	167831.810031609064	1
4	899	167831.810031609064	0
4	915	171370.0683973696	1
4	917	171370.0683973696	0
4	931	173787.693623113268	1
4	933	173787.693623113268	0
4	948	175991.793964476674	1
4	950	175991.793964476674	0
4	967	184928.631253773211	1
4	969	184928.631253773211	0
4	992	187899.050214108573	1
4	994	187899.050214108573	0
4	1001	189401.299766406033	1
4	1003	189401.299766406033	0
4	1026	192431.288279164454	1
4	1028	192431.288279164454	0
4	1034	193882.178848792574	1
4	1036	193882.178848792574	0
4	1059	197987.164625918067	1
4	1061	197987.164625918067	0
4	1065	198030.317506740167	1
4	1070	198231.023598924127	0
4	1086	204371.405363916544	1
4	1088	204371.405363916544	0
4	1104	210156.96939885081	1
4	1106	210156.96939885081	0
4	1121	213906.73863876008	1
4	1123	213906.73863876008	0
4	1140	222706.466497765716	1
4	1142	222706.466497765716	0
4	1164	231936.345797664201	1
4	1169	232091.169771285594	0
4	1199	233975.872748418942	1
4	1201	233975.872748418942	0
4	1208	234660.660416314462	1
4	1210	234660.660416314462	0
4	1213	234793.229184479679	1
4	1218	234951.117983622692	0
4	1224	235657.594857248127	1
4	1226	235657.594857248127	0
4	1241	238180.287056740358	1
4	1243	238180.287056740358	0
4	1258	242194.03930518313	1
4	1260	242194.03930518313	0
4	1299	244659.266506948248	1
4	1301	244659.266506948248	0
4	1307	245684.294489750173	1
4	1309	245684.294489750173	0
4	1312	245716.348120749178	1
4	1318	246021.983734163034	0
4	1321	246027.229052217443	1
4	1326	246300.431488704332	0
4	1340	248586.677769727619	1
4	1342	248586.677769727619	0
4	1357	251146.675606211891	1
4	1359	251146.675606211891	0
4	1375	255704.64647833158	1
4	1377	255704.64647833158	0
4	1401	261579.565572750598	1
4	1403	261579.565572750598	0
4	1409	262723.938124358596	1
4	1411	262723.938124358596	0
4	1442	275187.424836646686	1
4	1455	275635.811466805476	0
4	1458	275712.778574792504	1
4	1463	275903.011876381918	0
4	1470	276849.041014954474	1
4	1472	276849.041014954474	0
4	1475	277103.104107011611	1
4	1480	277145.093413943222	0
4	1503	280129.687344912082	1
4	1505	280129.687344912082	0
4	1511	280746.996249411694	1
4	1513	280746.996249411694	0
4	1538	290009.087077956604	1
4	1540	290009.087077956604	0
4	1543	290191.501403666914	1
4	1548	290327.455202316078	0
4	1563	293625.051167418506	1
4	1565	293625.051167418506	0
4	1581	297267.311724989055	1
4	1583	297267.311724989055	0
4	1597	299550.099277637264	1
4	1599	299550.099277637264	0
4	1615	303071.78868979946	1
4	1617	303071.78868979946	0
4	1632	308143.611469034681	1
4	1634	308143.611469034681	0
4	1665	311927.605781806424	1
4	1667	311927.605781806424	0
4	1674	312239.467040804422	1
4	1676	312239.467040804422	0
4	1682	313225.213200300192	1
4	1684	313225.213200300192	0
4	1715	317888.272473120586	1
4	1717	317888.272473120586	0
4	1724	318805.51854280925	1
4	1726	318805.51854280925	0
4	1737	319270.272932213694	1
4	1742	319390.809987786336	0
4	1749	321299.182776899453	1
4	1751	321299.182776899453	0
4	1765	323598.16790268007	1
4	1767	323598.16790268007	0
4	1792	330168.160999581516	1
4	1794	330168.160999581516	0
4	1800	330706.149054468086	1
4	1802	330706.149054468086	0
4	1817	334598.292650184191	1
4	1819	334598.292650184191	0
4	1850	338508.037737670625	1
4	1852	338508.037737670625	0
4	1859	339079.7111083287	1
4	1861	339079.7111083287	0
4	1867	339718.47907012919	1
4	1869	339718.47907012919	0
4	1885	345662.954582177157	1
4	1887	345662.954582177157	0
4	1910	359870.005358828225	1
4	1915	359899.45172313458	0
4	1930	361682.387569952192	1
4	1932	361682.387569952192	0
4	1939	363351.464613726319	1
4	1941	363351.464613726319	0
4	1958	372857.849319707503	1
4	1960	372857.849319707503	0
4	1976	378596.628564992889	1
4	1978	378596.628564992889	0
4	2003	387524.26425106102	1
4	2005	387524.26425106102	0
4	2008	387719.571609983187	1
4	2013	387863.809534096658	0
4	2044	390703.311559847667	1
4	2046	390703.311559847667	0
4	2049	390978.779230954304	1
4	2054	391090.968321565946	0
4	2057	391145.171845688943	1
4	2062	391379.62859618363	0
4	2080	403681.75649860139	1
4	2082	403681.75649860139	0
4	2110	406684.947393877398	1
4	2115	406727.903300457306	0
4	2121	407639.754247750888	1
4	2123	407639.754247750888	0
4	2130	408659.91306805048	1
4	2132	408659.91306805048	0
4	2147	411335.201793655665	1
4	2149	411335.201793655665	0
4	2172	415122.752464480363	1
4	2174	415122.752464480363	0
4	2193	416684.146477898466	1
4	2198	416987.204996230216	0
4	2210	417831.662101756815	1
4	2215	418084.494622167314	0
4	2221	418787.692736129262	1
4	2223	418787.692736129262	0
4	2234	419802.045102857249	1
4	2240	420055.293813131148	0
4	2246	421819.574477497986	1
4	2248	421819.574477497986	0
4	2279	425796.561527378726	1
4	2281	425796.561527378726	0
4	2288	426872.437343848232	1
4	2290	426872.437343848232	0
4	2296	427478.580416115495	1
4	2298	427478.580416115495	0
4	2314	434070.776346717514	1
4	2316	434070.776346717514	0
4	2340	439996.648307260688	1
4	2342	439996.648307260688	0
4	2353	440555.129456006831	1
4	2358	440612.069575851026	0
4	2370	442343.144324040911	1
4	2375	442422.134835488301	0
4	2390	444290.513408675148	1
4	2392	444290.513408675148	0
4	2398	445610.687557378935	1
4	2400	445610.687557378935	0
4	2418	457133.031858962247	1
4	2420	457133.031858962247	0
4	2443	459604.285384717429	1
4	2445	459604.285384717429	0
4	2448	459614.715372198274	1
4	2461	460191.360478946425	0
4	2468	462391.479166274588	1
4	2470	462391.479166274588	0
4	2493	465105.179476455076	1
4	2495	465105.179476455076	0
4	2501	465457.663690436578	1
4	2503	465457.663690436578	0
4	2517	467767.296732100176	1
4	2519	467767.296732100176	0
4	2535	471709.189421880962	1
4	2537	471709.189421880962	0
4	2560	474087.899286970232	1
4	2562	474087.899286970232	0
4	2565	474231.681720114564	1
4	2570	474344.316400421368	0
4	2592	476997.173823761464	1
4	2594	476997.173823761464	0
4	2601	478831.180195270921	1
4	2603	478831.180195270921	0
4	2619	485631.543950514075	1
4	2621	485631.543950514075	0
4	2644	488078.427093625496	1
4	2646	488078.427093625496	0
4	2653	490068.513785278855	1
4	2655	490068.513785278855	0
4	2675	492407.021066487831	1
4	2680	492501.575268613335	0
4	2694	494632.55632700032	1
4	2696	494632.55632700032	0
4	2703	495588.545295418847	1
4	2705	495588.545295418847	0
4	2731	509956.612053839068	1
4	2733	509956.612053839068	0
4	2740	511183.408822213669	1
4	2742	511183.408822213669	0
4	2758	517454.500938697402	1
4	2760	517454.500938697402	0
4	2775	520310.701560480426	1
4	2777	520310.701560480426	0
4	2816	523177.07180525613	1
4	2818	523177.07180525613	0
4	2824	523531.364018207463	1
4	2826	523531.364018207463	0
4	2845	524218.857258938676	1
4	2850	524391.400064721451	0
4	2856	524950.565641035115	1
4	2858	524950.565641035115	0
4	2865	525997.254989240395	1
4	2867	525997.254989240395	0
4	2870	526128.496693866784	1
4	2875	526252.100253046876	0
4	2891	533134.288747373529	1
4	2893	533134.288747373529	0
4	2916	536392.866991777624	1
4	2918	536392.866991777624	0
4	2933	537101.367349784729	1
4	2935	537101.367349784729	0
4	2949	538844.007133559247	1
4	2951	538844.007133559247	0
4	2962	539574.5675929441	1
4	2967	539736.585092961781	0
4	2979	541370.158234532518	1
4	2984	541437.716655103445	0
4	2991	543375.932178470659	1
4	2993	543375.932178470659	0
4	3010	553920.329843973125	1
4	3012	553920.329843973125	0
4	3036	558672.392987567058	1
4	3038	558672.392987567058	0
4	3044	559795.909545529992	1
4	3046	559795.909545529992	0
4	3061	563631.572120142361	1
4	3063	563631.572120142361	0
4	3092	567069.590924892709	1
4	3097	567150.96801383459	0
4	3103	567626.326848767222	1
4	3105	567626.326848767222	0
4	3119	568876.82358828986	1
4	3121	568876.82358828986	0
4	3128	570911.609557925252	1
4	3130	570911.609557925252	0
4	3154	576419.840608828376	1
4	3156	576419.840608828376	0
4	3162	577090.348610769596	1
4	3164	577090.348610769596	0
4	3187	580364.402341300361	1
4	3189	580364.402341300361	0
4	3195	581601.882195761416	1
4	3197	581601.882195761416	0
4	3218	587807.380342252129	1
4	3223	587908.866822720234	0
4	3230	589681.311575418361	1
4	3232	589681.311575418361	0
4	3272	595491.689563432657	1
4	3274	595491.689563432657	0
4	3277	595710.165876482328	1
4	3282	595785.057477640744	0
4	3289	597058.575662474066	1
4	3291	597058.575662474066	0
4	3294	597207.205631620964	1
4	3299	597378.680280912545	0
4	3313	599874.963856373077	1
4	3315	599874.963856373077	0
4	3331	604251.713430187749	1
4	3333	604251.713430187749	0
4	3348	608803.187003027056	1
4	3350	608803.187003027056	0
4	3365	611752.363665139034	1
4	3367	611752.363665139034	0
4	3383	617936.701152717558	1
4	3385	617936.701152717558	0
4	3411	627165.499035645794	1
4	3413	627165.499035645794	0
4	3419	627464.769914816355	1
4	3421	627464.769914816355	0
4	3452	631762.291258857886	1
4	3454	631762.291258857886	0
4	3460	632513.940447012277	1
4	3462	632513.940447012277	0
4	3468	632939.838621676022	1
4	3470	632939.838621676022	0
4	3494	638624.189394973781	1
4	3496	638624.189394973781	0
4	3503	640010.608824615271	1
4	3505	640010.608824615271	0
4	3536	642736.967942326071	1
4	3538	642736.967942326071	0
4	3541	642748.714374968654	1
4	3554	643278.804997536308	0
4	3560	644096.498795638102	1
4	3562	644096.498795638102	0
4	3573	644987.729480817497	1
4	3579	645168.650742995616	0
4	3601	647087.351152417122	1
4	3603	647087.351152417122	0
4	3609	647826.89390707424	1
4	3611	647826.89390707424	0
4	3615	648045.9718474105	1
4	3620	648146.782146027519	0
4	3634	650926.823051711823	1
4	3636	650926.823051711823	0
4	3652	656927.189444021017	1
4	3654	656927.189444021017	0
4	3675	662178.079487399535	1
4	3705	663238.10578045266	0
4	3711	664186.508263993046	1
4	3713	664186.508263993046	0
4	3716	664294.308372532269	1
4	3721	664464.681055708262	0
4	3724	664571.903548926375	1
4	3729	664826.984382798026	0
4	3735	665330.506087750728	1
4	3737	665330.506087750728	0
4	3769	670454.48163972398	1
4	3771	670454.48163972398	0
4	3777	671211.716373136639	1
4	3779	671211.716373136639	0
4	3790	671860.420229141321	1
4	3795	671896.641273828101	0
4	3810	673780.529444447288	1
4	3812	673780.529444447288	0
4	3818	674336.487973309148	1
4	3820	674336.487973309148	0
4	3840	677800.687582991752	1
4	3845	677966.024875059735	0
4	3860	679988.75149199261	1
4	3862	679988.75149199261	0
4	3869	681495.020623132681	1
4	3871	681495.020623132681	0
4	3896	692727.748920314029	1
4	3898	692727.748920314029	0
4	3905	693148.728157395588	1
4	3907	693148.728157395588	0
4	3922	696260.259207267963	1
4	3924	696260.259207267963	0
4	3938	698567.932927756036	1
4	3940	698567.932927756036	0
4	3977	703211.428533331685	1
4	3980	703301.959875118045	2
4	3985	703403.741365240897	1
4	3988	703708.570744622905	2
4	3993	703713.829322090678	1
4	3998	704019.924695940117	0
4	4010	705106.331406598229	1
4	4023	705686.114627191239	0
4	4029	707269.60119595701	1
4	4031	707269.60119595701	0
4	4034	707356.406216897653	1
4	4039	707563.470914538808	0
4	4055	713580.049398180967	1
4	4057	713580.049398180967	0
4	4088	716318.572700126912	1
4	4090	716318.572700126912	0
4	4096	716359.355998113905	1
4	4106	716904.671504835461	0
4	4113	717891.055549642717	1
4	4115	717891.055549642717	0
4	4121	718541.700338862806	1
4	4123	718541.700338862806	0
4	4139	725264.620801148084	1
4	4141	725264.620801148084	0
4	4172	728939.731080624388	1
4	4174	728939.731080624388	0
4	4181	729548.632982609755	1
4	4183	729548.632982609755	0
4	4186	729665.411332733073	1
4	4191	729870.095070847146	0
4	4206	732870.568867876983	1
4	4208	732870.568867876983	0
4	4225	742517.60477850492	1
4	4227	742517.60477850492	0
4	4242	745654.877021940352	1
4	4244	745654.877021940352	0
4	4259	748034.70459602467	1
4	4261	748034.70459602467	0
4	4276	752833.015452717859	1
4	4278	752833.015452717859	0
4	4302	756685.107292030502	1
4	4304	756685.107292030502	0
4	4318	758190.315910128262	1
4	4320	758190.315910128262	0
4	4327	759639.995307704788	1
4	4329	759639.995307704788	0
4	4349	777302.183121911254	1
4	4351	777302.183121911254	0
4	4365	779843.127562297701	1
4	4367	779843.127562297701	0
4	4384	788023.935747385998	1
4	4386	788023.935747385998	0
4	4402	792996.671856793531	1
4	4404	792996.671856793531	0
4	4435	795804.603718576914	1
4	4437	795804.603718576914	0
4	4443	796728.059160590469	1
4	4445	796728.059160590469	0
4	4451	797456.417251620274	1
4	4453	797456.417251620274	0
4	4471	809241.377748030574	1
4	4473	809241.377748030574	0
4	4492	822610.146188355597	1
4	4494	822610.146188355597	0
4	4509	825001.284060532568	1
4	4511	825001.284060532568	0
4	4525	827764.706674002306	1
4	4527	827764.706674002306	0
4	4551	832020.552633413559	1
4	4553	832020.552633413559	0
4	4564	833321.561511555716	1
4	4569	833491.109180006811	0
4	4576	834962.114322649277	1
4	4578	834962.114322649277	0
4	4605	850207.806274236726	1
4	4607	850207.806274236726	0
4	4610	850336.046911268545	1
4	4615	850486.68010171588	0
4	4630	854482.43769643304	1
4	4632	854482.43769643304	0
4	4648	859269.648351638992	1
4	4650	859269.648351638992	0
4	4674	866186.718290963388	1
4	4676	866186.718290963388	0
4	4683	868040.787867042998	1
4	4685	868040.787867042998	0
4	4705	870724.602358228894	1
4	4710	870798.206806756618	0
4	4716	872859.842030424217	1
4	4718	872859.842030424217	0
4	4736	883151.978915282458	1
4	4738	883151.978915282458	0
4	4761	886593.366384560856	1
4	4763	886593.366384560856	0
4	4769	887935.64444685068	1
4	4771	887935.64444685068	0
4	4794	890138.392390199694	1
4	4796	890138.392390199694	0
4	4802	890459.406250444319	1
4	4804	890459.406250444319	0
4	4827	893954.735247348721	1
4	4846	894728.399419925343	0
4	4860	895597.318793313682	1
4	4862	895597.318793313682	0
4	4868	896349.875569798269	1
4	4870	896349.875569798269	0
4	4873	896576.458360923175	1
4	4878	896680.804560393343	0
4	4885	897380.801638885954	1
4	4887	897380.801638885954	0
4	4901	899841.766737562164	1
4	4903	899841.766737562164	0
4	4943	905749.307931509196	1
4	4945	905749.307931509196	0
4	4949	906042.710269412932	1
4	4954	906049.750986816564	0
4	4965	906649.021713230986	1
4	4970	906675.180099534088	0
4	4973	906741.279433725303	1
4	4978	907023.868997857649	0
4	4984	908509.242576302334	1
4	4986	908509.242576302334	0
4	5007	912640.402466347513	1
4	5012	912698.500920743259	0
4	5026	914495.052779192981	1
4	5028	914495.052779192981	0
4	5035	915124.540554477089	1
4	5037	915124.540554477089	0
4	5053	923606.335723478824	1
4	5055	923606.335723478824	0
4	5088	931029.186794911851	1
4	5090	931029.186794911851	0
4	5096	931622.173986332557	1
4	5098	931622.173986332557	0
4	5120	932940.616048659131	1
4	5131	933332.384912833551	0
4	5137	934358.595962341444	1
4	5139	934358.595962341444	0
4	5142	934505.240322604925	1
4	5147	934611.377634414606	0
4	5153	935272.64489039693	1
4	5155	935272.64489039693	0
4	5180	942303.442398055387	1
4	5182	942303.442398055387	0
4	5188	943752.86189545358	1
4	5190	943752.86189545358	0
4	5205	946176.963797611992	1
4	5207	946176.963797611992	0
4	5239	951810.381758587849	1
4	5241	951810.381758587849	0
4	5247	952243.389885053785	1
4	5249	952243.389885053785	0
4	5255	952533.85346211995	1
4	5257	952533.85346211995	0
4	5281	957351.073425892074	1
4	5283	957351.073425892074	0
4	5286	957367.612741592129	1
4	5291	957692.580012376379	0
4	5311	960934.091698748594	1
4	5316	961191.653724287475	0
4	5323	963294.532904312196	1
4	5325	963294.532904312196	0
4	5350	974012.176703233536	1
4	5352	974012.176703233536	0
4	5355	974089.587008336005	1
4	5360	974336.552717840742	0
4	5377	983300.319157646232	1
4	5379	983300.319157646232	0
4	5395	988251.313433566402	1
4	5397	988251.313433566402	0
4	5422	998761.766188705862	1
4	5424	998761.766188705862	0
4	5439	999522.933120509281	1
4	5441	999522.933120509281	0
4	5452	1001398.980310312719	1
4	5457	1001439.803738995696	0
4	5480	1003067.604024665104	1
4	5482	1003067.604024665104	0
4	5496	1004360.188999567113	1
4	5498	1004360.188999567113	0
4	5501	1004655.120953505522	1
4	5506	1004689.95903032965	0
4	5513	1006146.602987572689	1
4	5515	1006146.602987572689	0
4	5530	1008668.807342255545	1
4	5532	1008668.807342255545	0
4	5555	1011261.810705938318	1
4	5557	1011261.810705938318	0
4	5563	1012280.515969707278	1
4	5565	1012280.515969707278	0
4	5590	1020866.078457437892	1
4	5592	1020866.078457437892	0
4	5606	1022547.844502011761	1
4	5608	1022547.844502011761	0
4	5615	1023239.340306864547	1
4	5617	1023239.340306864547	0
4	5632	1026565.03612419097	1
4	5634	1026565.03612419097	0
4	5649	1031160.073458538031	1
4	5651	1031160.073458538031	0
4	5666	1034004.401404624738	1
4	5668	1034004.401404624738	0
4	5683	1036734.070202628313	1
4	5685	1036734.070202628313	0
5	562	102000	2
5	563	105000	0
5	564	108000	0
5	570	111000	0
5	582	114000	1
5	583	117000	0
5	600	120000	1
5	617	123000	1
5	642	126000	2
5	683	129000	2
5	713	132000	2
5	717	135000	0
5	739	138000	2
5	775	141000	2
5	792	144000	1
5	817	147000	1
5	818	150000	0
5	819	153000	0
5	828	156000	1
5	837	159000	0
5	862	162000	2
5	887	165000	1
5	901	168000	1
5	913	171000	1
5	935	174000	1
5	955	177000	1
5	956	180000	0
5	962	183000	0
5	974	186000	1
5	999	189000	2
5	1021	192000	1
5	1041	195000	1
5	1063	198000	2
5	1075	201000	0
5	1084	204000	1
5	1093	207000	0
5	1102	210000	1
5	1119	213000	1
5	1128	216000	0
5	1129	219000	0
5	1138	222000	1
5	1147	225000	0
5	1148	228000	0
5	1157	231000	1
5	1203	234000	4
5	1239	237000	1
5	1248	240000	0
5	1273	243000	2
5	1314	246000	3
5	1352	249000	1
5	1364	252000	1
5	1373	255000	1
5	1382	258000	0
5	1399	261000	2
5	1416	264000	0
5	1417	267000	0
5	1418	270000	0
5	1419	273000	0
5	1465	276000	4
5	1501	279000	2
5	1518	282000	0
5	1519	285000	0
5	1525	288000	0
5	1553	291000	2
5	1570	294000	1
5	1579	297000	1
5	1604	300000	1
5	1613	303000	1
5	1627	306000	0
5	1639	309000	1
5	1669	312000	3
5	1689	315000	0
5	1719	318000	3
5	1747	321000	1
5	1772	324000	1
5	1773	327000	0
5	1790	330000	2
5	1815	333000	1
5	1824	336000	0
5	1857	339000	3
5	1874	342000	0
5	1883	345000	1
5	1892	348000	0
5	1893	351000	0
5	1894	354000	0
5	1895	357000	0
5	1917	360000	2
5	1937	363000	1
5	1946	366000	0
5	1947	369000	0
5	1956	372000	1
5	1965	375000	0
5	1974	378000	1
5	1983	381000	0
5	1984	384000	0
5	2001	387000	2
5	2042	390000	3
5	2067	393000	0
5	2068	396000	0
5	2069	399000	0
5	2078	402000	1
5	2095	405000	1
5	2128	408000	2
5	2145	411000	1
5	2162	414000	1
5	2200	417000	3
5	2236	420000	1
5	2253	423000	1
5	2283	426000	3
5	2303	429000	0
5	2309	432000	0
5	2321	435000	1
5	2327	438000	0
5	2363	441000	3
5	2388	444000	2
5	2405	447000	0
5	2406	450000	0
5	2407	453000	0
5	2416	456000	1
5	2441	459000	2
5	2466	462000	1
5	2491	465000	2
5	2521	468000	1
5	2533	471000	1
5	2558	474000	2
5	2596	477000	2
5	2608	480000	0
5	2609	483000	0
5	2626	486000	1
5	2651	489000	2
5	2668	492000	1
5	2701	495000	2
5	2710	498000	0
5	2711	501000	0
5	2712	504000	0
5	2713	507000	0
5	2735	510000	2
5	2747	513000	0
5	2756	516000	1
5	2773	519000	1
5	2798	522000	2
5	2860	525000	4
5	2880	528000	0
5	2881	531000	0
5	2898	534000	1
5	2931	537000	3
5	2969	540000	2
5	2989	543000	1
5	2998	546000	0
5	2999	549000	0
5	3008	552000	1
5	3017	555000	0
5	3026	558000	1
5	3051	561000	1
5	3068	564000	1
5	3090	567000	2
5	3126	570000	2
5	3135	573000	0
5	3152	576000	2
5	3177	579000	1
5	3202	582000	1
5	3203	585000	0
5	3225	588000	2
5	3237	591000	0
5	3251	594000	1
5	3287	597000	3
5	3317	600000	1
5	3329	603000	1
5	3338	606000	0
5	3352	609000	1
5	3372	612000	1
5	3373	615000	0
5	3387	618000	1
5	3391	621000	0
5	3392	624000	0
5	3409	627000	2
5	3434	630000	1
5	3472	633000	2
5	3476	636000	0
5	3501	639000	2
5	3526	642000	2
5	3575	645000	2
5	3613	648000	3
5	3638	651000	1
5	3642	654000	0
5	3656	657000	1
5	3665	660000	0
5	3701	663000	4
5	3742	666000	1
5	3751	669000	1
5	3797	672000	3
5	3825	675000	1
5	3847	678000	2
5	3867	681000	1
5	3876	684000	0
5	3877	687000	0
5	3878	690000	0
5	3900	693000	2
5	3920	696000	1
5	3945	699000	1
5	3967	702000	2
5	4003	705000	2
5	4044	708000	2
5	4045	711000	0
5	4070	714000	1
5	4108	717000	4
5	4128	720000	0
5	4129	723000	0
5	4146	726000	1
5	4176	729000	3
5	4204	732000	1
5	4213	735000	0
5	4214	738000	0
5	4223	741000	1
5	4240	744000	1
5	4257	747000	1
5	4266	750000	0
5	4280	753000	1
5	4292	756000	1
5	4325	759000	2
5	4334	762000	0
5	4335	765000	0
5	4336	768000	0
5	4337	771000	0
5	4338	774000	0
5	4347	777000	1
5	4369	780000	1
5	4373	783000	0
5	4379	786000	0
5	4391	789000	1
5	4400	792000	1
5	4425	795000	2
5	4458	798000	1
5	4459	801000	0
5	4460	804000	0
5	4461	807000	0
5	4478	810000	1
5	4479	813000	0
5	4480	816000	0
5	4481	819000	0
5	4490	822000	1
5	4507	825000	1
5	4529	828000	1
5	4541	831000	1
5	4574	834000	2
5	4583	837000	0
5	4584	840000	0
5	4585	843000	0
5	4586	846000	0
5	4603	849000	2
5	4620	852000	0
5	4637	855000	1
5	4646	858000	1
5	4655	861000	0
5	4661	864000	0
5	4681	867000	2
5	4698	870000	1
5	4720	873000	1
5	4724	876000	0
5	4725	879000	0
5	4734	882000	1
5	4751	885000	1
5	4773	888000	1
5	4809	891000	2
5	4829	894000	1
5	4883	897000	4
5	4905	900000	1
5	4909	903000	0
5	4947	906000	4
5	4991	909000	1
5	5000	912000	1
5	5033	915000	2
5	5042	918000	0
5	5043	921000	0
5	5060	924000	1
5	5061	927000	0
5	5078	930000	2
5	5122	933000	2
5	5160	936000	2
5	5161	939000	0
5	5178	942000	2
5	5203	945000	1
5	5212	948000	0
5	5237	951000	3
5	5262	954000	0
5	5279	957000	2
5	5304	960000	1
5	5321	963000	1
5	5330	966000	0
5	5331	969000	0
5	5340	972000	0
5	5365	975000	2
5	5366	978000	0
5	5367	981000	0
5	5384	984000	1
5	5393	987000	1
5	5402	990000	0
5	5403	993000	0
5	5404	996000	0
5	5429	999000	2
5	5462	1002000	2
5	5511	1005000	3
5	5528	1008000	1
5	5553	1011000	2
5	5570	1014000	0
5	5571	1017000	0
5	5580	1020000	1
5	5613	1023000	2
5	5630	1026000	1
5	5644	1029000	0
5	5661	1032000	1
5	5681	1035000	2
6	562	102000	3
6	563	105000	0
6	564	108000	0
6	570	111000	0
6	582	114000	1
6	583	117000	0
6	600	120000	1
6	617	123000	1
6	642	126000	1
6	683	129000	3
6	713	132000	1
6	717	135000	1
6	739	138000	0
6	775	141000	3
6	792	144000	1
6	817	147000	2
6	818	150000	0
6	819	153000	0
6	828	156000	0
6	837	159000	1
6	862	162000	1
6	887	165000	2
6	901	168000	0
6	913	171000	1
6	935	174000	1
6	955	177000	2
6	956	180000	0
6	962	183000	0
6	974	186000	1
6	999	189000	1
6	1021	192000	1
6	1041	195000	2
6	1063	198000	0
6	1075	201000	2
6	1084	204000	0
6	1093	207000	1
6	1102	210000	0
6	1119	213000	1
6	1128	216000	1
6	1129	219000	0
6	1138	222000	0
6	1147	225000	1
6	1148	228000	0
6	1157	231000	0
6	1203	234000	1
6	1239	237000	4
6	1248	240000	1
6	1273	243000	1
6	1314	246000	1
6	1352	249000	4
6	1364	252000	1
6	1373	255000	0
6	1382	258000	1
6	1399	261000	0
6	1416	264000	2
6	1417	267000	0
6	1418	270000	0
6	1419	273000	0
6	1465	276000	1
6	1501	279000	3
6	1518	282000	2
6	1519	285000	0
6	1525	288000	0
6	1553	291000	2
6	1570	294000	1
6	1579	297000	0
6	1604	300000	2
6	1613	303000	0
6	1627	306000	1
6	1639	309000	1
6	1669	312000	0
6	1689	315000	3
6	1719	318000	0
6	1747	321000	3
6	1772	324000	2
6	1773	327000	0
6	1790	330000	0
6	1815	333000	2
6	1824	336000	1
6	1857	339000	1
6	1874	342000	2
6	1883	345000	0
6	1892	348000	1
6	1893	351000	0
6	1894	354000	0
6	1895	357000	0
6	1917	360000	0
6	1937	363000	2
6	1946	366000	1
6	1947	369000	0
6	1956	372000	0
6	1965	375000	1
6	1974	378000	0
6	1983	381000	1
6	1984	384000	0
6	2001	387000	0
6	2042	390000	2
6	2067	393000	3
6	2068	396000	0
6	2069	399000	0
6	2078	402000	0
6	2095	405000	1
6	2128	408000	2
6	2145	411000	1
6	2162	414000	1
6	2200	417000	1
6	2236	420000	3
6	2253	423000	2
6	2283	426000	0
6	2303	429000	3
6	2309	432000	0
6	2321	435000	1
6	2327	438000	0
6	2363	441000	2
6	2388	444000	1
6	2405	447000	2
6	2406	450000	0
6	2407	453000	0
6	2416	456000	0
6	2441	459000	1
6	2466	462000	2
6	2491	465000	1
6	2521	468000	2
6	2533	471000	1
6	2558	474000	1
6	2596	477000	2
6	2608	480000	2
6	2609	483000	0
6	2626	486000	1
6	2651	489000	1
6	2668	492000	1
6	2701	495000	2
6	2710	498000	1
6	2711	501000	0
6	2712	504000	0
6	2713	507000	0
6	2735	510000	0
6	2747	513000	2
6	2756	516000	0
6	2773	519000	1
6	2798	522000	1
6	2860	525000	3
6	2880	528000	3
6	2881	531000	0
6	2898	534000	1
6	2931	537000	1
6	2969	540000	2
6	2989	543000	2
6	2998	546000	1
6	2999	549000	0
6	3008	552000	0
6	3017	555000	1
6	3026	558000	0
6	3051	561000	2
6	3068	564000	1
6	3090	567000	0
6	3126	570000	3
6	3135	573000	1
6	3152	576000	0
6	3177	579000	2
6	3202	582000	2
6	3203	585000	0
6	3225	588000	0
6	3237	591000	2
6	3251	594000	0
6	3287	597000	2
6	3317	600000	2
6	3329	603000	1
6	3338	606000	1
6	3352	609000	0
6	3372	612000	2
6	3373	615000	0
6	3387	618000	0
6	3391	621000	1
6	3392	624000	0
6	3409	627000	0
6	3434	630000	2
6	3472	633000	2
6	3476	636000	1
6	3501	639000	1
6	3526	642000	1
6	3575	645000	3
6	3613	648000	2
6	3638	651000	2
6	3642	654000	1
6	3656	657000	0
6	3665	660000	1
6	3701	663000	0
6	3742	666000	5
6	3751	669000	0
6	3797	672000	2
6	3825	675000	3
6	3847	678000	0
6	3867	681000	2
6	3876	684000	1
6	3877	687000	0
6	3878	690000	0
6	3900	693000	0
6	3920	696000	2
6	3945	699000	2
6	3967	702000	0
6	4003	705000	3
6	4044	708000	3
6	4045	711000	0
6	4070	714000	1
6	4108	717000	1
6	4128	720000	3
6	4129	723000	0
6	4146	726000	1
6	4176	729000	0
6	4204	732000	3
6	4213	735000	1
6	4214	738000	0
6	4223	741000	0
6	4240	744000	1
6	4257	747000	1
6	4266	750000	1
6	4280	753000	0
6	4292	756000	1
6	4325	759000	2
6	4334	762000	1
6	4335	765000	0
6	4336	768000	0
6	4337	771000	0
6	4338	774000	0
6	4347	777000	0
6	4369	780000	1
6	4373	783000	1
6	4379	786000	0
6	4391	789000	1
6	4400	792000	0
6	4425	795000	1
6	4458	798000	3
6	4459	801000	0
6	4460	804000	0
6	4461	807000	0
6	4478	810000	1
6	4479	813000	0
6	4480	816000	0
6	4481	819000	0
6	4490	822000	0
6	4507	825000	1
6	4529	828000	1
6	4541	831000	1
6	4574	834000	2
6	4583	837000	1
6	4584	840000	0
6	4585	843000	0
6	4586	846000	0
6	4603	849000	0
6	4620	852000	2
6	4637	855000	1
6	4646	858000	0
6	4655	861000	1
6	4661	864000	0
6	4681	867000	1
6	4698	870000	1
6	4720	873000	1
6	4724	876000	1
6	4725	879000	0
6	4734	882000	0
6	4751	885000	1
6	4773	888000	1
6	4809	891000	3
6	4829	894000	0
6	4883	897000	4
6	4905	900000	1
6	4909	903000	1
6	4947	906000	0
6	4991	909000	5
6	5000	912000	0
6	5033	915000	2
6	5042	918000	1
6	5043	921000	0
6	5060	924000	1
6	5061	927000	0
6	5078	930000	0
6	5122	933000	2
6	5160	936000	4
6	5161	939000	0
6	5178	942000	0
6	5203	945000	2
6	5212	948000	1
6	5237	951000	0
6	5262	954000	3
6	5279	957000	0
6	5304	960000	2
6	5321	963000	1
6	5330	966000	1
6	5331	969000	0
6	5340	972000	0
6	5365	975000	2
6	5366	978000	0
6	5367	981000	0
6	5384	984000	1
6	5393	987000	0
6	5402	990000	1
6	5403	993000	0
6	5404	996000	0
6	5429	999000	0
6	5462	1002000	3
6	5511	1005000	3
6	5528	1008000	1
6	5553	1011000	1
6	5570	1014000	2
6	5571	1017000	0
6	5580	1020000	0
6	5613	1023000	2
6	5630	1026000	1
6	5644	1029000	1
6	5661	1032000	1
6	5681	1035000	1
7	546	100589.40099787569	1
7	554	101623.404015753644	0
7	572	111252.256623467626	1
7	574	113167.16136212351	0
7	590	117634.674378748551	1
7	592	119226.940416208404	0
7	607	120297.489446344929	1
7	609	121901.304917776033	0
7	624	123417.196333077119	1
7	631	125154.665949627666	0
7	635	125306.198236204109	1
7	649	126376.871285419416	2
7	657	126647.458733281792	3
7	659	126836.322441569796	2
7	667	128034.654756312587	1
7	675	128420.55823768962	0
7	690	129386.104353478325	1
7	698	129827.521204352909	2
7	700	131377.738975633547	1
7	705	131563.70222220988	0
7	724	136447.608817067072	1
7	732	137841.208075361849	2
7	741	138303.556163309354	3
7	743	138606.383841327835	2
7	751	139667.234023907451	1
7	764	140120.355934098627	0
7	768	140398.85802662215	1
7	776	142241.299347568602	0
7	790	142983.854308872796	1
7	798	144544.179778808274	0
7	802	144576.213215429324	1
7	809	146506.240206700064	0
7	826	155692.899609846367	1
7	829	157274.964064190101	0
7	844	159880.322771765037	1
7	852	160546.061828757575	2
7	854	161710.209497114091	1
7	869	162438.410303813555	2
7	871	162501.643008380981	1
7	879	164399.257084242668	0
7	894	166077.268218710501	1
7	896	167831.810031609064	0
7	911	169607.450758473632	1
7	914	171370.0683973696	0
7	928	171966.410185409178	1
7	930	173787.693623113268	0
7	945	174388.895066455137	1
7	947	175991.793964476674	0
7	964	183070.26112691889	1
7	966	184928.631253773211	0
7	981	186453.436880372319	1
7	989	187576.713750646285	2
7	991	187899.050214108573	1
7	1000	189401.299766406033	0
7	1014	190435.319613089218	1
7	1023	192203.271515914235	2
7	1025	192431.288279164454	1
7	1033	193882.178848792574	0
7	1051	196056.733059967792	1
7	1056	196338.764345265245	2
7	1058	197987.164625918067	1
7	1064	198030.317506740167	0
7	1082	202515.06272870382	1
7	1085	204371.405363916544	0
7	1100	208630.014508403992	1
7	1103	210156.96939885081	0
7	1117	212115.92301371844	1
7	1120	213906.73863876008	0
7	1136	220916.277739631196	1
7	1139	222706.466497765716	0
7	1155	230389.079882640233	1
7	1163	231936.345797664201	0
7	1167	232091.169771285594	1
7	1180	232762.822271542546	2
7	1188	233169.17420707859	3
7	1196	233782.800911499136	4
7	1198	233975.872748418942	3
7	1207	234660.660416314462	2
7	1212	234793.229184479679	1
7	1223	235657.594857248127	0
7	1237	236301.194861447214	1
7	1240	238180.287056740358	0
7	1255	240340.601532801914	1
7	1257	242194.03930518313	0
7	1271	242782.91762984758	1
7	1286	243841.734690277835	2
7	1291	244124.605253456521	3
7	1296	244442.086805290888	4
7	1298	244659.266506948248	3
7	1306	245684.294489750173	2
7	1311	245716.348120749178	1
7	1320	246027.229052217443	0
7	1337	247225.757370419782	1
7	1339	248586.677769727619	0
7	1354	249147.708484306043	1
7	1356	251146.675606211891	0
7	1371	253868.184331549927	1
7	1374	255704.64647833158	0
7	1389	259468.17147895006	1
7	1397	260712.86964282947	2
7	1400	261579.565572750598	1
7	1408	262723.938124358596	0
7	1426	273331.567138336748	1
7	1434	273785.424482689314	2
7	1441	275187.424836646686	1
7	1448	275317.344096995625	2
7	1453	275635.811466805476	3
7	1457	275712.778574792504	2
7	1469	276849.041014954474	1
7	1474	277103.104107011611	0
7	1491	278178.916609437954	1
7	1499	278973.685501879098	2
7	1502	280129.687344912082	1
7	1510	280746.996249411694	0
7	1530	288109.475607911913	1
7	1535	288388.979582282893	2
7	1537	290009.087077956604	1
7	1542	290191.501403666914	0
7	1560	291731.20523355414	1
7	1562	293625.051167418506	0
7	1577	295602.918053368301	1
7	1580	297267.311724989055	0
7	1594	297823.738249371214	1
7	1596	299550.099277637264	0
7	1611	301000.078268836309	1
7	1614	303071.78868979946	0
7	1629	306283.816292830493	1
7	1631	308143.611469034681	0
7	1646	309888.472203306652	1
7	1654	310408.00332730451	2
7	1662	311437.016540056844	3
7	1664	311927.605781806424	2
7	1673	312239.467040804422	1
7	1681	313225.213200300192	0
7	1696	315908.026564081099	1
7	1704	316995.382827000208	2
7	1712	317573.784196943747	3
7	1714	317888.272473120586	2
7	1723	318805.51854280925	1
7	1736	319270.272932213694	0
7	1740	319390.809987786336	1
7	1748	321299.182776899453	0
7	1762	321874.482045012164	1
7	1764	323598.16790268007	0
7	1783	328665.027964666391	1
7	1788	328975.974537757488	2
7	1791	330168.160999581516	1
7	1799	330706.149054468086	0
7	1813	332828.138162831855	1
7	1816	334598.292650184191	0
7	1831	336558.551303878143	1
7	1839	337049.125713324056	2
7	1847	337840.658499857012	3
7	1849	338508.037737670625	2
7	1858	339079.7111083287	1
7	1866	339718.47907012919	0
7	1881	343775.015380194199	1
7	1884	345662.954582177157	0
7	1902	358445.682541525456	1
7	1909	359870.005358828225	0
7	1913	359899.45172313458	1
7	1927	361672.623255210507	2
7	1929	361682.387569952192	1
7	1938	363351.464613726319	0
7	1954	371233.624836685274	1
7	1957	372857.849319707503	0
7	1972	376872.464935852902	1
7	1975	378596.628564992889	0
7	1994	385582.662632928576	1
7	1999	385918.957378527036	2
7	2002	387524.26425106102	1
7	2007	387719.571609983187	0
7	2027	388693.21691640747	1
7	2032	389022.280520020138	2
7	2040	389688.04411160818	3
7	2043	390703.311559847667	2
7	2048	390978.779230954304	1
7	2056	391145.171845688943	0
7	2076	401625.018031566361	1
7	2079	403681.75649860139	0
7	2093	404750.773606440891	1
7	2102	405835.395794072693	2
7	2109	406684.947393877398	1
7	2113	406727.903300457306	2
7	2120	407639.754247750888	1
7	2129	408659.91306805048	0
7	2143	409660.634569103503	1
7	2146	411335.201793655665	0
7	2160	413326.67758354492	1
7	2169	414715.994821620619	2
7	2171	415122.752464480363	1
7	2185	415720.013721794725	2
7	2192	416684.146477898466	1
7	2196	416987.204996230216	2
7	2209	417831.662101756815	1
7	2213	418084.494622167314	2
7	2220	418787.692736129262	1
7	2233	419802.045102857249	0
7	2238	420055.293813131148	1
7	2245	421819.574477497986	0
7	2260	423959.124727710614	1
7	2268	425123.07261363283	2
7	2276	425688.246768737735	3
7	2278	425796.561527378726	2
7	2287	426872.437343848232	1
7	2295	427478.580416115495	0
7	2311	432269.975159608304	1
7	2313	434070.776346717514	0
7	2329	438348.135778564211	1
7	2337	438820.906403979279	2
7	2339	439996.648307260688	1
7	2352	440555.129456006831	0
7	2356	440612.069575851026	1
7	2369	442343.144324040911	0
7	2373	442422.134835488301	1
7	2386	443823.863900701116	2
7	2389	444290.513408675148	1
7	2397	445610.687557378935	0
7	2414	455471.174885353817	1
7	2417	457133.031858962247	0
7	2434	457908.972921028516	1
7	2439	458192.071934708706	2
7	2442	459604.285384717429	1
7	2447	459614.715372198274	0
7	2459	460191.360478946425	1
7	2467	462391.479166274588	0
7	2481	463006.277093000868	1
7	2489	463881.543178359082	2
7	2492	465105.179476455076	1
7	2500	465457.663690436578	0
7	2514	466114.750351747215	1
7	2516	467767.296732100176	0
7	2531	469774.681655834188	1
7	2534	471709.189421880962	0
7	2551	472309.843139446402	1
7	2556	472638.471059405396	2
7	2559	474087.899286970232	1
7	2564	474231.681720114564	0
7	2581	475301.333271946521	1
7	2589	476888.344486003258	2
7	2591	476997.173823761464	1
7	2600	478831.180195270921	0
7	2616	483937.048188541696	1
7	2618	485631.543950514075	0
7	2633	486527.876084323174	1
7	2641	487936.781208809334	2
7	2643	488078.427093625496	1
7	2652	490068.513785278855	0
7	2666	490734.886694031519	1
7	2674	492407.021066487831	0
7	2678	492501.575268613335	1
7	2691	493691.989013801859	2
7	2693	494632.55632700032	1
7	2702	495588.545295418847	0
7	2720	507871.463998428598	1
7	2728	509462.898382183611	2
7	2730	509956.612053839068	1
7	2739	511183.408822213669	0
7	2754	515871.927197539836	1
7	2757	517454.500938697402	0
7	2771	518054.947050866047	1
7	2774	520310.701560480426	0
7	2791	521373.181063365106	1
7	2796	521604.89467993277	2
7	2805	522648.190566457723	3
7	2813	523085.82748221698	4
7	2815	523177.07180525613	3
7	2823	523531.364018207463	2
7	2840	524099.210317199459	3
7	2844	524218.857258938676	2
7	2848	524391.400064721451	3
7	2855	524950.565641035115	2
7	2864	525997.254989240395	1
7	2869	526128.496693866784	0
7	2888	531407.760754627228	1
7	2890	533134.288747373529	0
7	2908	534780.782596759802	1
7	2913	535083.817644765825	2
7	2915	536392.866991777624	1
7	2929	536985.92071371468	2
7	2932	537101.367349784729	1
7	2946	537756.02800524853	2
7	2948	538844.007133559247	1
7	2961	539574.5675929441	0
7	2965	539736.585092961781	1
7	2978	541370.158234532518	0
7	2982	541437.716655103445	1
7	2990	543375.932178470659	0
7	3006	551944.227606013293	1
7	3009	553920.329843973125	0
7	3024	557147.612905124332	1
7	3033	558448.803361789039	2
7	3035	558672.392987567058	1
7	3043	559795.909545529992	0
7	3058	561786.918449485042	1
7	3060	563631.572120142361	0
7	3078	565408.138076121958	1
7	3083	565716.914586685384	2
7	3091	567069.590924892709	1
7	3095	567150.96801383459	2
7	3102	567626.326848767222	1
7	3116	568870.508403952056	2
7	3118	568876.82358828986	1
7	3127	570911.609557925252	0
7	3142	574517.63524943532	1
7	3150	575270.6010503491	2
7	3153	576419.840608828376	1
7	3161	577090.348610769596	0
7	3175	578455.356899900322	1
7	3184	579942.601021536421	2
7	3186	580364.402341300361	1
7	3194	581601.882195761416	0
7	3210	585854.462720747648	1
7	3217	587807.380342252129	0
7	3221	587908.866822720234	1
7	3229	589681.311575418361	0
7	3247	593771.778778408634	1
7	3253	594052.341592944724	2
7	3264	595167.475290437138	3
7	3269	595485.947429168203	4
7	3271	595491.689563432657	3
7	3276	595710.165876482328	2
7	3288	597058.575662474066	1
7	3293	597207.205631620964	0
7	3310	598110.558833286922	1
7	3312	599874.963856373077	0
7	3327	602625.578967635507	1
7	3330	604251.713430187749	0
7	3345	606653.751127739135	1
7	3347	608803.187003027056	0
7	3362	609961.000182644444	1
7	3364	611752.363665139034	0
7	3380	615965.339301775608	1
7	3382	617936.701152717558	0
7	3402	625429.251269569028	1
7	3407	625709.858951556866	2
7	3410	627165.499035645794	1
7	3418	627464.769914816355	0
7	3432	629966.108822882531	1
7	3441	630702.604597261275	2
7	3449	631196.233281821601	3
7	3451	631762.291258857886	2
7	3459	632513.940447012277	1
7	3467	632939.838621676022	0
7	3483	636996.084019916718	1
7	3491	638197.092460061045	2
7	3493	638624.189394973781	1
7	3502	640010.608824615271	0
7	3516	640633.015056512054	1
7	3524	641034.08735597988	2
7	3533	642562.99815706056	3
7	3535	642736.967942326071	2
7	3540	642748.714374968654	1
7	3552	643278.804997536308	2
7	3559	644096.498795638102	1
7	3572	644987.729480817497	0
7	3577	645168.650742995616	1
7	3590	645901.39064338795	2
7	3598	646258.234073450714	3
7	3600	647087.351152417122	2
7	3608	647826.89390707424	1
7	3614	648045.9718474105	0
7	3631	648885.758129439773	1
7	3633	650926.823051711823	0
7	3649	655323.050942953865	1
7	3651	656927.189444021017	0
7	3667	660171.322317383901	1
7	3674	662178.079487399535	0
7	3684	662359.738482805605	1
7	3692	662636.357690901012	2
7	3697	662909.507389892841	3
7	3703	663238.10578045266	4
7	3710	664186.508263993046	3
7	3715	664294.308372532269	2
7	3723	664571.903548926375	1
7	3734	665330.506087750728	0
7	3749	668636.348617337821	1
7	3758	669490.401092400283	2
7	3766	670002.525392710669	3
7	3768	670454.48163972398	2
7	3776	671211.716373136639	1
7	3789	671860.420229141321	0
7	3793	671896.641273828101	1
7	3807	672515.465707704094	2
7	3809	673780.529444447288	1
7	3817	674336.487973309148	0
7	3832	676336.342749887	1
7	3839	677800.687582991752	0
7	3843	677966.024875059735	1
7	3857	679705.270023315812	2
7	3859	679988.75149199261	1
7	3868	681495.020623132681	0
7	3885	690876.37810901608	1
7	3893	691547.310491939161	2
7	3895	692727.748920314029	1
7	3904	693148.728157395588	0
7	3918	694595.774859294092	1
7	3921	696260.259207267963	0
7	3935	696960.923214410087	1
7	3937	698567.932927756036	0
7	3955	701394.086309937573	1
7	3960	701704.88954835115	2
7	3969	702004.762037851516	3
7	3976	703211.428533331685	2
7	3979	703301.959875118045	1
7	3983	703403.741365240897	2
7	3987	703708.570744622905	1
7	4009	705106.331406598229	0
7	4016	705376.633195727563	1
7	4021	705686.114627191239	2
7	4028	707269.60119595701	1
7	4033	707356.406216897653	0
7	4052	711587.580182926258	1
7	4054	713580.049398180967	0
7	4072	714239.191932848727	1
7	4077	714509.121478645739	2
7	4085	716314.024365118631	3
7	4087	716318.572700126912	2
7	4095	716359.355998113905	1
7	4104	716904.671504835461	2
7	4112	717891.055549642717	1
7	4120	718541.700338862806	0
7	4136	723500.735816307695	1
7	4138	725264.620801148084	0
7	4156	727485.356733173964	1
7	4161	727808.147081286147	2
7	4169	728143.022362674217	3
7	4171	728939.731080624388	2
7	4180	729548.632982609755	1
7	4185	729665.411332733073	0
7	4202	731076.5503686909	1
7	4205	732870.568867876983	0
7	4221	740961.608587470775	1
7	4224	742517.60477850492	0
7	4238	743987.986617048304	1
7	4241	745654.877021940352	0
7	4255	746285.252404359637	1
7	4258	748034.70459602467	0
7	4273	751061.993228626794	1
7	4275	752833.015452717859	0
7	4290	755013.317862025128	1
7	4299	756431.353592547176	2
7	4301	756685.107292030502	1
7	4315	757653.557407900977	2
7	4317	758190.315910128262	1
7	4326	759639.995307704788	0
7	4345	775578.083694445775	1
7	4348	777302.183121911254	0
7	4362	778111.839732923638	1
7	4364	779843.127562297701	0
7	4381	786175.772255682579	1
7	4383	788023.935747385998	0
7	4398	791218.869373555395	1
7	4401	792996.671856793531	0
7	4415	793788.731818501714	1
7	4423	794989.651099010209	2
7	4432	795540.047111717838	3
7	4434	795804.603718576914	2
7	4442	796728.059160590469	1
7	4450	797456.417251620274	0
7	4468	807294.196147030261	1
7	4470	809241.377748030574	0
7	4488	820762.698054944244	1
7	4491	822610.146188355597	0
7	4505	823190.432945485844	1
7	4508	825001.284060532568	0
7	4522	825855.81258731934	1
7	4524	827764.706674002306	0
7	4539	830291.680979297918	1
7	4548	831562.409516199255	2
7	4550	832020.552633413559	1
7	4563	833321.561511555716	0
7	4567	833491.109180006811	1
7	4575	834962.114322649277	0
7	4596	848357.321554377544	1
7	4601	848631.442302230844	2
7	4604	850207.806274236726	1
7	4609	850336.046911268545	0
7	4627	852526.808638628691	1
7	4629	854482.43769643304	0
7	4644	857575.221390368115	1
7	4647	859269.648351638992	0
7	4663	864204.074847989402	1
7	4671	866147.204396451205	2
7	4673	866186.718290963388	1
7	4682	868040.787867042998	0
7	4696	868963.911261254083	1
7	4704	870724.602358228894	0
7	4708	870798.206806756618	1
7	4715	872859.842030424217	0
7	4732	880909.538902587096	1
7	4735	883151.978915282458	0
7	4749	884910.152483495249	1
7	4758	886248.553328968594	2
7	4760	886593.366384560856	1
7	4768	887935.64444685068	0
7	4786	888602.995603604051	1
7	4791	888938.417817748482	2
7	4793	890138.392390199694	1
7	4801	890459.406250444319	0
7	4816	892420.87628354144	1
7	4826	893954.735247348721	0
7	4834	894147.1930819628	1
7	4839	894443.375705116459	2
7	4844	894728.399419925343	3
7	4857	895369.13847810718	4
7	4859	895597.318793313682	3
7	4867	896349.875569798269	2
7	4872	896576.458360923175	1
7	4884	897380.801638885954	0
7	4898	897954.090832642747	1
7	4900	899841.766737562164	0
7	4916	904179.755263599153	1
7	4924	904551.374863554852	2
7	4935	904904.62510744337	3
7	4940	905208.829657200799	4
7	4942	905749.307931509196	3
7	4948	906042.710269412932	2
7	4964	906649.021713230986	1
7	4968	906675.180099534088	2
7	4972	906741.279433725303	1
7	4983	908509.242576302334	0
7	4998	910709.538190492472	1
7	5006	912640.402466347513	0
7	5010	912698.500920743259	1
7	5023	913350.712551169485	2
7	5025	914495.052779192981	1
7	5034	915124.540554477089	0
7	5050	921737.921236553335	1
7	5052	923606.335723478824	0
7	5068	929367.434296785632	1
7	5076	929826.375311890226	2
7	5085	931013.931987664627	3
7	5087	931029.186794911851	2
7	5095	931622.173986332557	1
7	5115	932735.931373802165	2
7	5119	932940.616048659131	1
7	5124	933025.71950721949	2
7	5129	933332.384912833551	3
7	5136	934358.595962341444	2
7	5141	934505.240322604925	1
7	5152	935272.64489039693	0
7	5168	940283.927908844901	1
7	5176	941883.200522197485	2
7	5179	942303.442398055387	1
7	5187	943752.86189545358	0
7	5201	944332.380925060702	1
7	5204	946176.963797611992	0
7	5222	950147.956098351527	1
7	5227	950460.058065751308	2
7	5235	950765.311746824017	3
7	5238	951810.381758587849	2
7	5246	952243.389885053785	1
7	5254	952533.85346211995	0
7	5269	955144.457925099232	1
7	5277	955609.313411459253	2
7	5280	957351.073425892074	1
7	5285	957367.612741592129	0
7	5302	958903.75563838848	1
7	5310	960934.091698748594	0
7	5314	961191.653724287475	1
7	5322	963294.532904312196	0
7	5342	972028.551565536949	1
7	5347	972304.988587931746	2
7	5349	974012.176703233536	1
7	5354	974089.587008336005	0
7	5374	981435.682493649027	1
7	5376	983300.319157646232	0
7	5391	986647.961634803089	1
7	5394	988251.313433566402	0
7	5411	997038.922929955496	1
7	5419	997764.07567559832	2
7	5421	998761.766188705862	1
7	5436	999464.68457459092	2
7	5438	999522.933120509281	1
7	5451	1001398.980310312719	0
7	5455	1001439.803738995696	1
7	5469	1002489.169548865582	2
7	5477	1002894.058510257858	3
7	5479	1003067.604024665104	2
7	5493	1004258.967076383572	3
7	5495	1004360.188999567113	2
7	5500	1004655.120953505522	1
7	5512	1006146.602987572689	0
7	5526	1006832.540575746916	1
7	5529	1008668.807342255545	0
7	5543	1009408.91613687564	1
7	5551	1010607.77143578392	2
7	5554	1011261.810705938318	1
7	5562	1012280.515969707278	0
7	5578	1019199.483991680043	1
7	5587	1020713.167745709056	2
7	5589	1020866.078457437892	1
7	5603	1021469.711714552497	2
7	5605	1022547.844502011761	1
7	5614	1023239.340306864547	0
7	5628	1024508.914340477665	1
7	5631	1026565.03612419097	0
7	5646	1029145.761128215728	1
7	5648	1031160.073458538031	0
7	5663	1032122.113787198776	1
7	5665	1034004.401404624738	0
7	5679	1034829.857303892748	1
7	5682	1036734.070202628313	0
