version 2
run ParkingMeasurement-54-20170108-17:30:44-5485
attr configname ParkingMeasurement
attr datetime 20170108-17:30:44
attr experiment ParkingMeasurement
attr inifile parkingStudy.ini
attr iterationvars ""
attr iterationvars2 $repetition=54
attr measurement ""
attr network controltower.SimNetwork
attr processid 5485
attr repetition 54
attr replication #54
attr resultdir results
attr runnumber 54
attr seedset 54
param SimNetwork.a.parkingLot.parkingDelay "truncnormal(30min, 3min)"
param SimNetwork.a.runway.landingTime "truncnormal(5min, 0.5min)"
param SimNetwork.a.runway.takeoffTime "truncnormal(5min, 0.5min)"
param SimNetwork.a.runway.throughputCheckInterval 50min
param SimNetwork.wg.interArrivalTime exponential(50min)

statistic SimNetwork.wg 	responseTime:stats
field count 300
field mean 5602.3101136407
field stddev 2977.4086116304
field sum 1680693.0340922
field sqrsum 12066387232.963
field min 2510.766910279
field max 20936.456397817
attr source  responseTimeSignal
scalar SimNetwork.a.landingQueue 	queueLength:timeavg 	0.010709644170733
attr source  queueLengthSignal
statistic SimNetwork.a.landingQueue 	queueLength:stats
field count 603
field mean 0.50746268656716
field stddev 0.50695563559599
field sum 306
field sqrsum 310
field min 0
field max 2
attr source  queueLengthSignal
statistic SimNetwork.a.landingQueue 	queueTime:stats
field count 301
field mean 32.637731795265
field stddev 78.980093454594
field sum 9823.9572703747
field sqrsum 2191988.2311876
field min 0
field max 443.88225219661
attr source  queueTimeSignal
scalar SimNetwork.a.takeoffQueue 	queueLength:timeavg 	0.0095468139390742
attr source  queueLengthSignal
statistic SimNetwork.a.takeoffQueue 	queueLength:stats
field count 600
field mean 0.50333333333333
field stddev 0.503731208854
field sum 302
field sqrsum 304
field min 0
field max 2
attr source  queueLengthSignal
statistic SimNetwork.a.takeoffQueue 	queueTime:stats
field count 300
field mean 29.59271030513
field stddev 85.521496063746
field sum 8877.8130915389
field sqrsum 2449582.5113664
field min 0
field max 517.08529798926
attr source  queueTimeSignal
scalar SimNetwork.a.parkingLot 	parkingOccupancy:timeavg 	0.58428213787296
attr source  parkingOccupancy
statistic SimNetwork.a.parkingLot 	parkingOccupancy:stats
field count 600
field mean 1.0433333333333
field stddev 0.86373159952359
field sum 626
field sqrsum 1100
field min 0
field max 5
attr source  parkingOccupancy
