file 93711 1483893046                                           
version 2
run ParkingMeasurement-62-20170108-17:30:46-5503
attr configname ParkingMeasurement
attr datetime 20170108-17:30:46
attr experiment ParkingMeasurement
attr inifile parkingStudy.ini
attr iterationvars ""
attr iterationvars2 $repetition=62
attr measurement ""
attr network controltower.SimNetwork
attr processid 5503
attr repetition 62
attr replication #62
attr resultdir results
attr runnumber 62
attr seedset 62
param SimNetwork.a.parkingLot.parkingDelay "truncnormal(30min, 3min)"
param SimNetwork.a.runway.landingTime "truncnormal(5min, 0.5min)"
param SimNetwork.a.runway.takeoffTime "truncnormal(5min, 0.5min)"
param SimNetwork.a.runway.throughputCheckInterval 50min
param SimNetwork.wg.interArrivalTime exponential(50min)

vector 2  SimNetwork.a.landingQueue  queueLength:vector  ETV
attr source  queueLengthSignal
vector 1  SimNetwork.a.landingQueue  queueTime:vector  ETV
attr source  queueTimeSignal
vector 7  SimNetwork.a.parkingLot  parkingOccupancy:vector  ETV
attr source  parkingOccupancy
vector 5  SimNetwork.a.runway  landedThroughput:vector  ETV
attr source  landedThroughputSignal
vector 6  SimNetwork.a.runway  tookoffThroughput:vector  ETV
attr source  tookoffThroughputSignal
vector 4  SimNetwork.a.takeoffQueue  queueLength:vector  ETV
attr source  queueLengthSignal
vector 3  SimNetwork.a.takeoffQueue  queueTime:vector  ETV
attr source  queueTimeSignal
vector 0  SimNetwork.wg  responseTime:vector  ETV
attr source  responseTimeSignal
0	1467 12662 689 5703 104310.2365525492 1032508.553230354034 296 2503.2436554459 21054.585648732 1660640.0389034 12020931072.794
1	14129 9287 661 5691 101205.133750104214 1030244.357484267284 296 0 372.68975192621 7442.5809403417 1473766.8722195
2	23416 17096 659 5691 101205.133750104214 1030244.357484267284 592 0 2 298 300
3	40512 9074 686 5700 104004.157960916378 1032259.704339830225 296 0 857.96022236294 7541.5740094551 2674108.4799171
4	49586 17076 673 5700 103443.725794192021 1032259.704339830225 592 0 2 300 304
5	66662 4985 666 5705 102000 1035000 312 0 4 296 530
6	71647 4985 666 5705 102000 1035000 312 0 4 296 514
7	76632 17079 664 5697 101484.072785636094 1032259.704339830225 592 0 4 578 960
