file 98020 1483715111                                           
version 2
run ParkingMeasurement-24-20170106-02:03:58-11159
attr configname ParkingMeasurement
attr datetime 20170106-02:03:58
attr experiment ParkingMeasurement
attr inifile parkingStudy.ini
attr iterationvars ""
attr iterationvars2 $repetition=24
attr measurement ""
attr network SimNetwork
attr processid 11159
attr repetition 24
attr replication #24
attr resultdir results
attr runnumber 24
attr seedset 24
param SimNetwork.a.parkingLot.parkingDelay "truncnormal(30min, 3min)"
param SimNetwork.a.runway.landingTime "truncnormal(5min, 0.5min)"
param SimNetwork.a.runway.takeoffTime "truncnormal(5min, 0.5min)"
param SimNetwork.a.runway.throughputCheckInterval 50min
param SimNetwork.wg.interArrivalTime exponential(50min)
vector 7  SimNetwork.a.parkingLot  parkingOccupancy:vector  ETV
attr source parkingOccupancy
7	80041 17979 386 5688 101208.994278603839 1035847.45049549806 624 0 5 672 1252
vector 4  SimNetwork.a.takeoffQueue  queueLength:vector  ETV
attr source queueLengthSignal
4	52147 17970 387 5665 101208.994278603839 1025660.596575721318 624 0 2 318 324
vector 3  SimNetwork.a.takeoffQueue  queueTime:vector  ETV
attr source queueTimeSignal
3	42509 9638 389 5665 101208.994278603839 1025660.596575721318 312 0 1256.8257732239 9316.9262006524 3415546.5820212
vector 0  SimNetwork.wg  responseTime:vector  ETV
attr source responseTimeSignal
0	1456 13309 392 5669 101580.03479583037 1026009.405911550869 312 2370.6969341148 20596.807557293 1688200.8511138 11738752979.467
vector 5  SimNetwork.a.runway  landedThroughput:vector  ETV
attr source landedThroughputSignal
5	70117 4962 399 5673 102000 1035000 312 0 5 311 585
vector 6  SimNetwork.a.runway  tookoffThroughput:vector  ETV
attr source tookoffThroughputSignal
6	75079 4962 399 5673 102000 1035000 312 0 5 313 605
vector 2  SimNetwork.a.landingQueue  queueLength:vector  ETV
attr source queueLengthSignal
2	24530 17979 405 5685 106341.705219021714 1035591.902015367874 624 0 1 312 312
vector 1  SimNetwork.a.landingQueue  queueTime:vector  ETV
attr source queueTimeSignal
1	14765 9765 407 5685 106341.705219021714 1035591.902015367874 312 0 351.40881815229 7165.8872909884 1423558.4193812
