version 2
run QueueMeasurement-80-20170109-14:01:15-5650
attr configname QueueMeasurement
attr datetime 20170109-14:01:15
attr experiment QueueMeasurement
attr inifile queueStudy.ini
attr iterationvars ""
attr iterationvars2 $repetition=80
attr measurement ""
attr network controltower.SimNetwork
attr processid 5650
attr repetition 80
attr replication #80
attr resultdir results
attr runnumber 80
attr seedset 80
param SimNetwork.a.parkingLot.parkingDelay "truncnormal(45min, 5 min)"
param SimNetwork.a.runway.landingTime "truncnormal(5min, 0.5min)"
param SimNetwork.a.runway.takeoffTime "truncnormal(5min, 0.5min)"
param SimNetwork.a.runway.throughputCheckInterval 20min
param SimNetwork.wg.interArrivalTime exponential(20min)

vector 5  SimNetwork.a.runway  landedThroughput:vector  ETV
attr source  landedThroughputSignal
vector 6  SimNetwork.a.runway  tookoffThroughput:vector  ETV
attr source  tookoffThroughputSignal
vector 0  SimNetwork.wg  responseTime:vector  ETV
attr source  responseTimeSignal
vector 2  SimNetwork.a.landingQueue  queueLength:vector  ETV
attr source  queueLengthSignal
vector 1  SimNetwork.a.landingQueue  queueTime:vector  ETV
attr source  queueTimeSignal
vector 7  SimNetwork.a.parkingLot  parkingOccupancy:vector  ETV
attr source  parkingOccupancy
vector 4  SimNetwork.a.takeoffQueue  queueLength:vector  ETV
attr source  queueLengthSignal
vector 3  SimNetwork.a.takeoffQueue  queueTime:vector  ETV
attr source  queueTimeSignal
0	770	61362.633257005341	5846.48910365
0	814	63386.456478380254	5310.6446125
0	820	63703.702496317643	4173.3968485296
0	848	65393.246986490517	5559.4881826955
0	862	65685.212860619793	4056.5144247694
0	873	66338.259262743078	3988.0602461134
0	878	66629.736698678767	4513.1263253321
0	886	67082.849558214774	4424.1632986994
0	895	67911.210348688282	4068.4207696553
0	904	68639.021902890392	3893.8012085194
0	955	72592.077462531779	7033.4419466768
0	964	73966.607702395691	4584.6217477436
0	972	74309.377585119242	3680.9831793992
0	984	74816.230982395464	3393.1790420373
0	997	75456.407128590313	4673.8117156572
0	1024	78527.802334930777	6577.4407667154
0	1037	81064.338372672578	3496.0067937844
0	1042	81349.326721035604	6794.3185975401
0	1086	85485.35423045045	7890.3897369153
0	1103	87333.905075038252	5299.1987483253
0	1112	87786.587166831013	3977.2693573683
0	1120	88772.876193110958	4654.5041346317
0	1130	90022.556444603133	5100.2877099686
0	1191	96129.122275384228	9400.546606599
0	1202	96453.860342543921	3787.5321756214
0	1210	96781.909547150063	4656.081118477
0	1224	97389.415600602275	4264.0475408887
0	1236	98491.636458769482	4588.5378553609
0	1241	98697.751242883513	3403.964469639
0	1266	100457.847427991079	5075.3809073899
0	1276	102839.331748979827	6063.3356593029
0	1285	103453.706577544873	4060.7609369084
0	1305	108741.305336172873	9105.6786011777
0	1340	112581.402811046055	7419.6404998062
0	1358	114040.704108795646	4996.3102094453
0	1372	114414.697036506647	3922.540280098
0	1416	116786.893176216147	5561.9561231355
0	1427	117530.016294753199	4093.2282503756
0	1433	117846.015577483301	3443.5497028324
0	1450	118370.521653372259	3957.7900814759
0	1485	119839.824695218826	4647.0095007535
0	1491	120144.877689351167	4190.7220505687
0	1516	121688.079828042705	5692.1343871923
0	1535	122341.58645942862	4041.4676227334
0	1541	122626.534084319145	4391.4534056132
0	1549	123045.480574206358	4540.4985173679
0	1561	124046.124120111498	5195.1593765913
0	1574	124602.796090631517	4096.9779830427
0	1583	125133.800107718636	4013.6883168597
0	1600	127104.470450991745	5374.4707684097
0	1621	129523.858970451095	5666.6992682676
0	1636	131381.712088459352	5587.5544535744
0	1653	133043.444129049666	4754.6919743961
0	1663	134995.638455582253	5612.7652363996
0	1714	138170.368499039777	5728.591270443
0	1726	139574.774338657901	4368.4671314059
0	1745	140162.393027360959	3996.469849403
0	1751	140404.002377142992	4091.9363911036
0	1759	140721.958886655964	4157.3268380358
0	1776	142495.845605121978	5202.5241958361
0	1794	144154.53088923011	4660.5153093197
0	1816	145925.253827171099	5495.994730832
0	1841	147387.170949449196	5095.5026807187
0	1853	148228.680548285736	4168.0380544296
0	1870	149471.887971740458	4552.2754814871
0	1883	149990.689671795305	4018.845483486
0	1912	151722.905966459038	5152.4180779421
0	1937	153001.519034579553	3665.4843256362
0	1945	153326.066560823706	5327.7480895908
0	1962	153925.030874826412	3826.4141880367
0	1976	155262.801107890847	4452.5192727946
0	1984	155613.60137958547	4110.4490961397
0	2009	156850.76004474891	4552.0760188482
0	2018	157300.03502414742	4067.3534316166
0	2033	159503.600846897205	3535.8875347277
0	2055	160395.296508811353	6493.720535539
0	2086	162634.299080243163	6366.8009406223
0	2094	163048.618953131716	3707.0306258658
0	2106	163830.523261663062	4361.3417151612
0	2117	164109.848844624582	3672.2280888882
0	2128	164716.018552929652	4412.4084740184
0	2189	167462.004246314309	6643.7397917544
0	2212	168149.669978656167	3338.3115914703
0	2233	169100.921094868424	5236.6536685361
0	2239	169383.572757184982	4315.9070981889
0	2250	169668.158024949999	4457.741157505
0	2255	170011.557498153816	4652.3764697673
0	2266	170287.698491947701	3824.0439121302
0	2277	170930.472342240403	4073.4614180439
0	2300	171694.028661824398	4285.9988385487
0	2318	172557.489144228591	4628.506516989
0	2335	173892.507433032822	5844.1532824279
0	2355	174893.030378640499	4679.1009528296
0	2367	175231.379877865808	3760.0108203785
0	2388	176150.912163824894	4218.303799273
0	2394	176440.414192479554	5326.862228551
0	2405	177185.015034021247	4586.280284599
0	2422	178111.664867479535	4147.237964757
0	2436	179182.189267182026	4250.6529628591
0	2448	180565.38403127758	5582.5951734414
0	2470	181629.253087440395	4505.4343080088
0	2515	184291.027662375875	6271.9943330901
0	2523	184601.981017108629	4300.2484700988
0	2529	184906.51225843105	4319.0962726532
0	2557	186251.51626896914	4566.0551840906
0	2568	186563.833148848896	3458.6954954766
0	2578	187108.546687729483	3910.7518020448
0	2587	188205.524235942856	4651.6457118881
0	2607	188999.734935210831	3799.7205504037
0	2629	189882.030679947345	4197.8211673562
0	2661	192558.341850996876	6230.2090754862
0	2666	192916.012571387678	4064.5535318848
0	2672	193216.793598145377	4799.3522189628
0	2700	195157.502357990638	5987.4446578497
0	2705	195482.767469733495	3846.1386232484
0	2734	197417.515998804297	5691.1041747323
0	2739	197685.656113968244	3705.4809474516
0	2748	198791.740414166037	4243.576236584
0	2759	199135.366194577504	3292.6984236056
0	2799	202736.10433417815	6641.8457517927
0	2812	204239.424580795016	3444.1500852715
0	2817	204583.14019373975	5699.5311193388
0	2842	206291.543891781251	4904.9721637538
0	2852	208334.954936309133	6247.505203405
0	2863	208731.343052900122	3472.1125351025
0	2922	212318.788950552249	3842.2427331543
0	2928	212628.809365010112	7064.8206143258
0	2940	213942.231876179945	4599.6856787834
0	2948	214277.681503597092	3959.1228860413
0	2956	214589.240512220583	3924.32768546
0	2962	214854.405255023833	3890.7866172062
0	3013	218965.065028377909	7421.0099264423
0	3021	219293.433865540721	3312.4557804023
0	3030	219901.705768615838	3613.2589358217
0	3042	221239.865962008131	4947.1097543197
0	3047	221576.944766145749	3545.8574227316
0	3109	224957.574282218588	6724.4547435299
0	3114	225298.685808608375	3546.6011664402
0	3142	226749.000539792883	3409.7411914034
0	3148	227066.608046801625	5223.0704413216
0	3159	227715.724659157427	4231.8685514711
0	3165	228020.714111846141	4135.5243660141
0	3182	229212.25847818435	5220.5331044081
0	3190	229573.763666159767	3685.720243921
0	3215	231464.004464435319	5396.2198399846
0	3228	233428.409438563731	5274.0228148162
0	3233	233768.015319158876	3743.6888890742
0	3260	236922.532423224134	6573.3162337472
0	3289	239005.533167983633	5126.3729301227
0	3311	240000.24834107318	4253.9511238119
0	3320	241570.155828292798	4444.5285152664
0	3343	242583.781222201561	4283.2297176969
0	3356	243200.026726060951	4277.002919966
0	3382	245288.56339240097	6163.5209123068
0	3399	246257.370049757628	4340.3777346181
0	3404	246564.086024187323	4045.865342613
0	3435	248128.253497270737	4979.07892195
0	3465	249529.166056518938	5505.9421426412
0	3482	250220.383064713	5037.3012472911
0	3487	250503.297919529819	3296.8716922401
0	3496	251694.260692953878	4389.1592354266
0	3508	252126.021213214742	4135.3866231437
0	3513	252387.060510138322	4403.7167702964
0	3530	253245.462608282792	4269.5043908591
0	3540	256029.466897081213	6693.5929816526
0	3583	259358.079477535874	6689.0070506928
0	3607	260347.542379822929	4186.4467898617
0	3624	261132.380403487223	4227.9591182783
0	3633	261690.349216271978	3919.9474523812
0	3644	262453.905274242438	3698.5679016427
0	3649	262736.814410348006	3241.5537581773
0	3666	263835.242236866218	4187.1999016068
0	3676	266339.569037026829	5872.4829959901
0	3703	269606.616502214688	6765.1466370603
0	3715	270325.883936190259	3795.3896575766
0	3758	273875.223967263976	3691.900967865
0	3763	274184.218403878559	7460.6541445297
0	3777	274575.69531673764	2897.8328466067
0	3796	275478.107638247302	4462.4201089572
0	3814	277879.455383485906	3516.8331946666
0	3822	278217.47183896607	6342.5627367058
0	3839	279224.732660664732	4457.9295066577
0	3865	281739.706695169987	6085.3332585317
0	3875	283598.935041771939	5249.7069339193
0	3886	284379.091815460201	4095.975313185
0	3910	287736.070237591191	6618.5733023425
0	3939	289741.950529575695	5597.7723179969
0	3953	291375.694297917478	4842.1855683885
0	3970	292268.5125239875	4029.9389578215
0	3987	293193.939213671756	4035.9411666054
0	3996	295184.226783676924	5667.1341823753
0	4014	296502.044014153079	4798.93949313
0	4035	299208.570680445337	6606.6166130804
0	4049	300134.195399404357	4589.472801261
0	4067	302712.598533635898	5439.2294221162
0	4087	304526.747103711223	5466.9365598547
0	4113	306321.460227125144	5443.1766347875
0	4133	307811.409284056761	4710.4575926924
0	4152	309190.457714044911	4916.3806451929
0	4163	309518.127327700574	4364.4217145211
0	4184	311106.314804240626	5036.8940670339
0	4194	311747.611300285465	4130.4973033193
0	4207	313313.770825094406	5665.9364936241
0	4229	314766.597047672043	5442.9483469329
0	4254	316297.583861203364	5198.2483530815
0	4263	316878.426136765533	3662.5389782482
0	4280	318778.001662156177	4961.3730047169
0	4288	319143.089379931567	3985.8635988584
0	4301	320589.723045296267	4954.7924269877
0	4344	324203.824158134068	3769.0324868763
0	4352	324523.676598211797	7542.3680866962
0	4377	325426.356032221907	3759.9457270485
0	4385	325716.858586991631	5016.2604044714
0	4402	327249.546430548907	5039.3576977707
0	4447	329035.47515074062	4794.338232581
0	4474	330268.164805199556	5651.5894358404
0	4482	330605.251238667276	5010.7112971751
0	4496	331146.766708267876	3394.3417562235
0	4513	331683.611270490668	4529.2437276763
0	4526	332273.124372556166	4400.9548802125
0	4543	332843.340378594601	4686.6975768319
0	4551	333112.202980689134	4105.568190927
0	4559	333390.455704152938	4135.1825680448
0	4573	334527.278652859938	4958.340772776
0	4585	335040.33386197635	4065.6668432282
0	4590	335328.858409694891	3924.1136286037
0	4602	336273.343089394843	4279.6277810955
0	4629	339740.42733851053	6386.3972259491
0	4642	340289.005044626683	4033.1396687823
0	4652	342496.739824516743	5920.5335023339
0	4687	345798.579731184796	6100.9787654827
0	4701	346686.161303100291	3879.446749288
0	4712	347325.21005841429	3340.7412127086
0	4738	349526.80912072658	5083.3110320331
0	4747	350720.313619560399	4153.9471133706
0	4764	352119.868348136208	4270.2495342772
0	4782	355041.435883322276	6124.9087630703
0	4871	358449.245442898028	7307.0665620738
0	4888	359130.831455302626	3815.2114007921
0	4899	359415.162495015943	5083.2579827471
0	4904	359708.170716152915	3640.6935925758
0	4919	360001.163760566681	4279.4235921831
0	4935	360602.410212427384	4289.095021662
0	4946	360943.158306902495	4516.2130495126
0	4982	362490.032523806128	5781.1713978897
0	4987	362736.848723713193	5732.5200521602
0	4995	363009.372949399612	5850.4272830809
0	5000	363315.815995702559	5621.8324510358
0	5009	363644.275722167743	5238.7848376559
0	5031	364190.513326680715	4345.24458721
0	5044	364736.517937666975	3963.0439279827
0	5058	365427.813130568619	4516.5569035211
0	5063	365764.308997588914	4655.566674771
0	5080	366452.006877827634	4866.247839826
0	5089	367647.140086630439	4083.970857813
0	5097	368163.519552913321	4134.2955985979
0	5117	369167.43454128126	4520.9334860125
0	5148	371344.370550581561	5481.5535530069
0	5157	372467.679408764338	3978.268000872
0	5165	373097.284002043108	4166.6559528296
0	5177	373666.725865051529	3675.7541518167
0	5212	376985.285401972853	3577.0881718108
0	5223	377337.355393101237	7138.7689073216
0	5250	378377.618258387918	4094.1942912435
0	5259	380399.792199481143	5654.593187734
0	5268	380819.016389772941	3513.1423365231
0	5276	381248.968503107003	3960.9027335515
0	5303	384458.553406071	6671.3750404792
0	5321	386742.582988271431	5215.4190343308
0	5379	389475.482215426934	6115.5782183763
0	5407	390946.399675610687	3378.1838911528
0	5413	391255.958218781838	5392.9721466002
0	5427	391600.295681351173	3714.7569683086
0	5435	391917.168350119561	4486.1718875659
0	5449	392453.610220783132	4643.3929750585
0	5460	392762.312522462763	4933.4698379893
0	5470	393360.308929628312	4761.0829810797
0	5479	393926.839627030783	4087.4434943898
0	5488	395296.097166877725	5179.3916675348
0	5497	396383.756757167962	4754.2931471252
0	5532	400634.767520394835	8029.7444091068
0	5552	401771.983051722519	3657.8824908509
0	5558	402049.475040818484	4558.4036293332
0	5587	404550.741798612372	6270.4695739241
0	5608	405585.900090731979	4439.443203847
0	5626	407113.880325948526	4781.8264329982
0	5634	407784.331779556718	4157.2428077776
0	5643	408449.884851481012	4078.7426351955
0	5651	408790.186027519943	3914.7577100869
0	5687	412994.609631525704	7161.7953335559
0	5696	414492.579220778913	5443.9708089622
0	5705	415445.060578855538	4211.1480740503
0	5740	419349.163038995887	6968.8708223694
0	5766	421337.141434294185	5126.8107712769
0	5786	422421.945705762547	4411.1504147303
0	5819	423702.998375001976	5029.2721737564
0	5827	423980.585518409687	3585.1707481224
0	5832	424274.1247483336	3468.4575326145
0	5841	425464.647005781115	3115.5714264261
0	5849	425817.403525616746	4466.8689854382
0	5861	426671.166780638239	4219.1888410022
0	5885	429739.124670602894	7102.6998206129
0	5926	431807.761417985339	5190.7820548246
0	5951	432836.489555798467	4134.4822317289
0	5960	433217.431641185948	3438.4377258649
0	5971	433727.067588004169	3926.2876434121
0	5976	434061.317920436466	3520.9288621348
0	5985	434528.487639658351	3914.6757394777
0	5993	435057.667641278572	3243.5076655937
0	6038	441187.142651526748	9305.6141296475
0	6047	441686.09211462011	3736.5040967076
0	6063	442436.449490694867	3852.7964379556
0	6075	443008.479425853795	4242.590364382
0	6097	444917.843869459946	5383.1169661681
0	6106	446024.727244856522	4319.2229274687
0	6115	446530.239057223367	3629.6101617014
0	6169	450253.476769967698	6767.4547579649
0	6174	450537.660028831532	3493.8816103558
0	6194	451978.171639722027	4896.3207750347
0	6205	452239.003172939364	3368.0577600975
0	6238	453475.166306563683	4226.4105693782
0	6249	454107.715407941974	4706.4636207537
0	6272	455575.60159403764	4566.8759156175
0	6277	455865.241129891975	3770.0010069219
0	6283	456172.566227479095	4127.1706567472
0	6294	456754.767016134355	3964.9394357707
0	6328	457837.571765033894	4613.516558941
0	6369	459915.435677854812	5678.4093889964
0	6385	460505.417648137918	3973.5661387035
0	6399	461069.591325315621	4068.1797430048
0	6410	461492.696758178162	3899.4925072966
0	6429	461996.88999809112	4207.153182175
0	6441	462321.205880973132	4561.1268858225
0	6451	462890.768392178716	5087.8768216194
0	6459	463116.919421394531	4706.8068548291
0	6473	463907.93673301747	4244.0857470285
0	6482	464584.212613506577	4149.9183315876
0	6499	465862.889091707079	4643.7739261095
0	6507	466409.451695370995	4217.1060821258
0	6549	468126.827250497629	5072.1730883599
0	6558	469820.18622409937	5076.5707026824
0	6573	470444.434929766562	3524.5121177379
0	6581	470730.570067046266	4195.2782598375
0	6594	471305.430838071725	4228.6898811838
0	6640	474511.212501775221	7412.9100317255
0	6650	475062.90959015245	4455.4637068934
0	6698	477281.2671382651	6175.911828138
0	6704	477633.807140540562	4294.4827161675
0	6709	477935.51579493809	4664.3775145533
0	6717	478306.767733090233	4732.2986680144
0	6740	479401.759702983105	4971.6743889771
0	6748	479723.018755672509	3976.1213916882
0	6753	479980.074792819958	4147.0762109223
0	6762	480280.151736348506	4386.1193872995
0	6779	482258.883384243255	5793.7170031144
0	6796	483530.681054998186	4769.2765133449
0	6827	485694.241281538233	5613.531116149
0	6839	486764.650624492077	4826.9333492466
0	6844	487075.104628195455	3615.2332284744
0	6864	488297.510212198366	4230.0656334269
0	6899	490858.438648284096	6001.6594519172
0	6929	492224.898868157029	5015.3266582659
0	6957	493832.002131738411	3916.9214489902
0	6968	494124.308275579895	5972.1369681423
0	6973	494362.76198057633	3651.4234973171
0	6985	494664.232050932737	4490.1471049043
0	6998	495207.058230358902	4106.8509728502
0	7020	496359.879756206865	4727.2387432373
0	7029	497214.442926619156	4292.5264888879
0	7049	498185.848109025102	3600.8421848971
0	7054	498440.567769604546	5458.7622997476
0	7062	498981.460294184713	3879.8347329461
0	7072	500958.044866334825	5318.7319088803
0	7117	506547.43643514813	9003.5357776952
0	7158	508232.435566483189	4492.5798331478
0	7166	508729.479571507223	3709.5973180392
0	7175	509044.618871666733	4127.1178230028
0	7183	509864.691566169366	4803.3027593719
0	7192	510506.65263960208	3859.6241995924
0	7203	510913.629382571659	4092.1231202737
0	7209	511239.949540415012	3932.7785756765
0	7244	515546.330306367508	8154.9811493018
0	7257	517583.129264448197	6025.2102082555
0	7270	518217.071063183154	4389.0492160652
0	7305	521047.370283906784	6098.7848570574
0	7320	522510.847726716224	5148.4703705848
0	7330	523145.753343224489	3747.7885793151
0	7339	523900.985704138634	4477.2577005279
0	7376	526362.500421535577	5910.3914380571
0	7405	528021.006359279506	5679.774762361
0	7423	528852.813785146758	4254.9338476248
0	7432	529240.540963576649	3898.5672987094
0	7443	530081.458959789936	4521.8656903956
0	7460	530754.566406108802	4642.4646371946
0	7485	531718.899823859924	4584.1412351515
0	7496	532023.867422669011	4275.1297638914
0	7526	533628.390137574887	5413.1569841076
0	7531	533921.538222583881	4106.3588783134
0	7548	534647.329123439708	4163.7875473334
0	7587	536194.665601230589	4449.167002315
0	7593	536473.104609304454	5403.0773793164
0	7598	536811.128465617641	4800.1251143009
0	7637	538504.840129726625	5736.7340071084
0	7642	538757.651473414781	4706.1594093509
0	7651	538999.01646147327	4037.3669465208
0	7659	539344.27182904157	4365.552361498
0	7673	540579.78492062065	5220.5293151181
0	7684	541067.433324783735	3887.6667493507
0	7690	541399.62114032795	4215.1805720046
0	7699	542561.577600733671	5141.4188029476
0	7771	545980.001385734903	3272.7468163169
0	7788	546635.962138799948	7420.0742450336
0	7793	546987.96036191672	4112.9740456576
0	7817	547343.864685208588	4538.4194503205
0	7838	548548.785041602841	5518.1496506451
0	7849	548925.905847724637	5719.6319305845
0	7862	549523.266801601276	6075.7271273721
0	7876	550067.636841183111	6583.8172977413
0	7884	550371.914424359696	4496.4691009638
0	7889	550696.920217867673	3705.9318273421
0	7898	551458.650260185821	4408.5340119287
0	7915	552180.790065307796	4854.2583859352
0	7923	553120.000921213441	4272.4711272133
0	7949	555118.658939878046	5685.4988367541
0	7970	557197.89939106011	3130.2284405122
0	7975	557533.521229624835	5987.5419608996
0	8003	558936.873746588468	4437.8157747238
0	8056	561351.880880878502	5254.4608589391
0	8070	561937.395381194803	4201.7806027333
0	8075	562301.822427925441	4057.2518947799
0	8084	563281.302633077694	4605.9052497439
0	8099	564093.246982089369	4238.3865552523
0	8107	564392.207864532217	4316.7101533146
0	8112	564701.090977011227	4504.8938654105
0	8120	564944.745622544168	4688.0182703382
0	8163	568380.366962728512	7324.8881979019
0	8171	568677.082554671671	3608.7381632782
0	8177	569035.842776884585	4094.7123741957
0	8185	569527.205883220685	4126.3989051457
0	8207	572590.805578812634	6236.9142588441
0	8230	575677.734378452329	5956.8367621307
0	8243	577339.376919215776	4782.3220518613
0	8290	580539.755336214339	6372.9472313754
0	8299	581090.812120742372	2836.9499135294
0	8310	581725.210217801365	4523.4146641219
0	8324	582329.218573519277	4004.1110794621
0	8332	582992.976301994949	4063.9155332164
0	8358	585234.867004998931	5435.7965894272
0	8375	586587.069361663829	4914.6261003601
0	8387	587250.011913489765	3975.815577337
0	8417	588876.608266881003	4342.4500729145
0	8427	590620.20496101263	3375.41429602
0	8435	590910.016269377271	5577.9223058239
0	8444	592080.822254397777	4680.7840277847
0	8466	596107.425915713326	7766.9764784136
0	8522	599369.727530635152	6911.9836425574
0	8542	600024.833439615567	3563.7024190357
0	8550	600271.094564816816	4247.1025465114
0	8561	600600.361084395183	3979.8731510768
0	8574	601172.229614258926	3861.9231559585
0	8580	601439.042098748114	3942.544802001
0	8597	602868.346148388915	5303.9338336801
0	8614	604220.264871539896	4769.6142423975
0	8639	605185.423523416433	4876.7372474495
0	8660	607288.214355869773	5316.8245812569
0	8679	607987.900240678557	4360.1722042392
0	8693	608522.616321593487	4302.1939188783
0	8718	610185.257408468048	5768.4300163482
0	8726	610489.466454588462	3871.3647613676
0	8743	611354.411769897801	4306.4273790898
0	8757	612040.530444652417	4254.269790426
0	8768	612869.956149270889	4446.598588176
0	8790	613958.152911799149	4702.0111925409
0	8807	615268.133783709923	4982.7301800641
0	8816	616350.325154874471	5149.6979739769
0	8828	617030.207133966898	4327.5823300939
0	8833	617281.7473524592	3929.5971353994
0	8873	623641.740883940971	9307.1385985433
0	8915	626194.152373742823	6097.0421087135
0	8924	626495.277441508655	3673.0656293965
0	8940	627070.839720758786	4109.7938677862
0	8945	627307.988974096327	3899.404751829
0	8968	628624.590577765738	4191.7012368718
0	8979	629193.78002925813	3900.5236853171
0	8987	629732.730277995188	4239.9186216139
0	9005	631221.197682874919	4908.0962173016
0	9021	631894.712138811072	3879.5076956723
0	9038	633474.371750623668	5114.781012481
0	9047	634605.473159234797	4501.9692656888
0	9065	636523.08229878556	5198.2329138875
0	9087	639671.241590693608	6841.3945105247
0	9092	639990.119929944807	4069.7835408038
0	9127	644227.674041202385	7369.6440985177
0	9139	645141.180233182033	4626.8731170283
0	9154	647178.779710254454	5173.1052246391
0	9171	648047.291157136195	4453.923973252
0	9184	650661.190558348357	5556.8398674467
0	9230	654509.730952123092	7265.6300328739
0	9235	654811.677930399611	4263.472409131
0	9246	655100.409726437711	3914.8496178465
0	9282	656921.882684474448	5322.3002563316
0	9294	658306.304376839754	4814.8230899662
0	9311	658899.585663813053	3888.9749564967
0	9319	659204.981852258786	3554.3162593024
0	9344	660067.82900160898	5200.9723403478
0	9382	661585.861228114527	5666.248582158
0	9394	662558.453517565794	4452.2006062619
0	9399	662838.321493933907	3893.1182450061
0	9410	663083.184020157409	3820.1296993265
0	9427	663735.249282967263	3776.4455537181
0	9435	664048.07907821794	3457.0416373735
0	9440	664361.190504329133	4050.8723085801
0	9474	666714.717353328264	5778.3454401012
0	9489	668067.622193375517	5127.9889103431
0	9522	669387.397397171732	4721.9758829895
0	9536	669987.084336923584	4194.7840192354
0	9564	671361.666125166589	5265.4545440785
0	9569	671684.065319068152	3888.3506080616
0	9574	671949.288503074969	4032.8673300473
0	9594	672801.686147947104	4624.2184607016
0	9599	673121.097899495319	3749.8774278911
0	9609	674408.879345270757	4679.9209193368
0	9620	674947.074379517731	4286.6358201789
0	9667	677892.54396264284	5803.0056061252
0	9684	678955.520856216717	4272.2028981595
0	9704	680164.210021125474	4597.5181336327
0	9710	680483.813786885484	4260.091581642
0	9718	680891.346648233075	3916.1465018013
0	9726	681588.837650813799	4456.5600854365
0	9735	682586.401651021943	4243.7343467895
0	9772	687770.320885709113	8186.4149095573
0	9783	688263.067656583418	4010.8364430399
0	9805	689236.401878282909	4451.1898980336
0	9817	691152.368014133467	5807.668429353
0	9831	691993.26676355476	3838.0726953614
0	9873	694685.885702639061	6282.6547958941
0	9885	695947.744904764476	4948.5493234196
0	9905	696465.730520279189	3982.2550504416
0	9918	697057.911330111005	4166.2543077959
0	9924	697358.078038431663	3744.8460270647
0	9933	699032.236177515465	5261.2600157204
0	9953	699910.3117827291	4072.764325181
0	9992	702505.613769323436	6192.7494554476
0	10001	703281.45574518197	4233.6407002412
0	10009	703581.646597975826	3726.7915557398
0	10017	703922.82896011673	3441.6987707033
0	10042	705132.702970566592	4289.5521803515
0	10063	707942.828276580058	3707.235233979
0	10069	708284.617335843307	7146.0644460259
0	10078	709425.323156109372	4903.1743989465
0	10121	713650.714440357476	7726.5387025263
0	10138	714970.437447827227	4846.2877807671
0	10147	715869.731338877719	4324.5410371992
0	10167	716700.026356610054	3914.1375143185
0	10180	717378.477965025224	4315.9676338317
0	10190	719295.766881488546	5250.8811811793
0	10201	719794.49893281619	3689.4903908659
0	10225	723231.031997462338	6552.0400851705
0	10234	723689.362188948316	4158.8665278763
0	10261	727671.417318483747	7204.7196058785
0	10278	728476.863241820832	4115.4795097211
0	10315	731775.444529505443	6456.4048143409
0	10338	733788.182308005484	6055.0846794355
0	10349	734285.534207424115	3682.8081843921
0	10361	734596.351825184309	3818.9676656554
0	10371	735163.30317852948	3991.1455106154
0	10383	736591.732300987471	5002.4392505738
0	10398	738217.45984303352	5025.6826584106
0	10407	740341.534307835735	5870.5801285592
0	10455	745287.564364908229	3592.0658825454
0	10463	745585.986408993938	9160.5366864069
0	10471	745950.09892294398	3479.7993326607
0	10476	746285.44079757218	4351.8536945184
0	10522	752968.342275139651	10145.300660873
0	10542	753906.359403971042	4379.3197661265
0	10567	755058.159272512323	4952.6593975311
0	10592	756069.502362048547	4181.1193605564
0	10597	756380.685057041611	3976.9189263046
0	10605	756834.032782638387	3744.7209426566
0	10614	757423.127003949834	3712.1081980656
0	10666	759281.912909346352	4919.6165511201
0	10674	759556.602299424239	4616.077391739
0	10695	760981.164994454754	5528.6305147244
0	10758	763109.103652088293	5476.9773312437
0	10764	763385.848610239805	5030.1624170679
0	10769	763657.198895677614	5854.9683797198
0	10777	763946.218794464921	6149.4347790783
0	10782	764201.595095979979	5597.29623424
0	10794	764510.624552309896	5028.0333711623
0	10818	765409.096465583095	4650.012740448
0	10827	765753.368633808472	4988.0613835628
0	10835	766068.546212931941	4780.9192137027
0	10840	766331.691758561698	4965.8059188057
0	10845	766638.52347553719	4499.2189587574
0	10857	767598.973886016134	5329.4004703236
0	10862	767943.645675186944	3661.2488447136
0	10938	771803.076989428765	7405.624264281
0	10949	772579.480908582917	3370.8029490237
0	10955	772927.552699953377	4648.8204792554
0	10966	773266.405676984297	3861.4270112114
0	10974	773560.969980227371	3709.7543904826
0	10994	774184.88661946866	3884.7091389243
0	11010	774800.436679298978	4920.7931367104
0	11096	777890.184920035178	7681.0767792199
0	11104	778223.237373843309	7523.5136261158
0	11109	778517.106917594456	5091.0635354083
0	11117	778793.877694062504	4771.2068165327
0	11126	779135.87807536701	4347.2953187242
0	11140	779465.314757212983	4586.3345287235
0	11156	779996.067920574186	5190.0137392875
0	11162	780251.552342073008	5190.984973787
0	11173	780557.369205236349	5012.8932396094
0	11200	781877.001521144872	6606.6349081174
0	11214	782175.715995604159	6477.3683248249
0	11253	783647.736346316776	7410.5848076152
0	11261	783957.378305600548	7150.0598278163
0	11266	784266.09658868457	3840.7488492923
0	11271	784515.695204492587	5053.8593926863
0	11280	784825.134673451129	4053.403770981
0	11293	785461.618996280347	4393.4393286968
0	11305	786007.019155126387	3948.5001535015
0	11313	786343.736707524572	4248.7043405795
0	11318	786694.696338248052	4376.592126223
0	11335	788109.30278434911	5079.3570827872
0	11345	790020.279377628667	5416.6955476476
0	11439	796559.059349542384	9526.1426667892
0	11472	797655.311780325763	5089.6107313704
0	11480	797983.097672833398	5198.4549182038
0	11486	798305.793894172672	5008.5559560923
0	11494	798644.854206846802	4872.4163418157
0	11502	798958.832896288503	4964.9948663316
0	11511	799310.078600898737	4414.9663426547
0	11522	799624.344041183475	4260.6726950355
0	11533	799973.813015469298	4268.4721009786
0	11560	801233.576646219387	5618.2349941519
0	11565	801527.846381692633	4977.5886879667
0	11571	801795.962190127479	5121.5305249079
0	11607	803286.63083819948	6261.4279516633
0	11632	804199.376802781287	4452.5284437679
0	11637	804567.282113234386	4778.3381224633
0	11648	805005.276357639068	3207.2116166772
0	11665	805654.199052477407	5330.6566227536
0	11676	805940.883543312476	3835.2922049936
0	11726	807898.201268849404	5527.4809640224
0	11731	808243.98625691183	5225.3413140786
0	11736	808516.18159569971	5143.1551490672
0	11748	809404.441054561876	3513.1587591477
0	11756	809718.40631453538	3951.9529537565
0	11768	810078.553866904285	5126.6731490266
0	11784	810730.774841113635	4620.3895753016
0	11795	811342.159709258261	4603.3036843839
0	11812	813272.336854124844	6326.913336068
0	11829	814348.943864963835	4576.6538355383
0	11838	815501.923094356173	5023.6364674864
0	11864	817279.17533905586	5323.3394518681
0	11892	819494.60375458141	5818.1715618696
0	11898	819767.008709777764	3952.3735275803
0	11934	821530.213142258349	4820.7474407683
0	11939	821837.027396467151	3832.373697601
0	11965	823658.171580386833	4758.1336275656
0	11976	823917.118931556901	3739.1766605869
0	11990	824486.857096541338	3858.8721287178
0	11998	824816.832824577639	3907.6243902205
0	12023	826397.785007251928	4307.9298177886
0	12048	827791.935841142213	4735.4667775691
0	12071	828784.931807047719	3299.2406903343
0	12090	829707.717613247712	5871.9003203771
0	12101	830362.334657852631	4552.4578958286
0	12110	830684.008145326185	3772.8307851108
0	12115	830995.010037065787	3989.296619288
0	12127	831922.597213722464	3301.7547102655
0	12132	832213.101633840331	4277.7106647185
0	12180	838762.628049169823	9690.6664376505
0	12189	839081.56777688951	4161.8184506423
0	12202	839712.866960928422	3602.9617730311
0	12226	841349.191526431267	5140.5647949028
0	12253	842849.488198191579	4671.8074361439
0	12262	844020.825791615179	5127.6737593832
0	12281	844682.479585553099	4330.1013245347
0	12293	845035.265644404538	3893.0029251877
0	12306	845699.481446755393	4518.1169874013
0	12321	847542.245086995563	6109.5501502305
0	12333	848559.747073625361	4484.3645296206
0	12352	849316.736993634259	4316.9115292617
0	12388	851543.494242960773	6084.7178557108
0	12397	852353.23730320695	3879.1958407041
0	12405	852943.384793510775	3736.9914246822
0	12414	853375.56904696213	4110.5010138573
0	12422	854147.292630771657	4384.857516338
0	12457	857756.343985406076	3188.2599424989
0	12469	858078.316944942507	7174.7547295388
0	12474	858346.189584297981	3638.7799621773
0	12525	862044.86359830722	6964.3957794102
0	12536	862755.790915986381	3125.7070749274
0	12572	863966.986591113611	5103.8507010681
0	12586	864574.073733604356	3478.3626375279
0	12591	864918.69606106763	4917.809680323
0	12600	865838.447739907419	4331.5949775141
0	12612	866807.901799901417	4189.6515039252
0	12617	867126.405912151266	4168.8134370248
0	12628	867520.063521329282	4506.8244809761
0	12652	870546.603395702605	6665.0736083524
0	12661	872328.446951092437	5008.2600225253
0	12697	876112.711174655596	7197.4319338574
0	12705	877097.806683826951	4169.7041052938
0	12734	878970.213850359317	5127.2321840143
0	12768	881162.088430071845	5644.0119359834
0	12773	881448.491860381548	3463.553101698
0	12782	882358.386627003085	4281.8123688732
0	12790	882784.520720483011	4001.1286331238
0	12799	883826.66454608627	4115.9978680503
0	12846	891798.906056184916	11379.049054208
0	12863	892825.125589292496	4241.2562655654
0	12871	893257.017931264258	3936.754888038
0	12882	893620.135321411191	3657.3355072044
0	12896	895191.017031593413	4766.9076957261
0	12933	897428.074085458419	5469.3926962952
0	12948	899143.277278218761	5794.3484798351
0	12956	899608.018144342836	3822.5256077507
0	12968	900429.030661181077	3822.5735148294
0	12973	900714.018915053722	4035.4082826739
0	13027	904413.766081768686	7138.9355546764
0	13032	904715.35170176825	3719.7493436783
0	13049	905888.302164489367	4468.5389908537
0	13061	906273.26918145803	3688.1173216855
0	13074	906910.087593778813	3922.3653002519
0	13092	908516.350122662975	4955.7056909339
0	13100	909049.348286492678	4189.9136502479
0	13118	911206.309749681322	4992.3475880112
0	13146	912801.28648507315	4845.2179765104
0	13177	914953.645338567593	5725.2309324499
0	13188	915305.408618807497	4060.3992089059
0	13202	916052.051087354286	3966.3867533608
0	13210	916372.925394373338	3689.4181671984
0	13227	917691.278101501384	4848.5512758835
0	13247	918962.130409124062	4816.1640592687
0	13273	920676.740390572243	5558.6662367194
0	13278	920948.497701645165	3853.8416403828
0	13303	922568.72620031906	4816.8283018146
0	13312	923180.031838660802	4497.9603321527
0	13345	924695.777793338659	4709.8339710017
0	13365	925302.590005118588	3700.66191275
0	13382	926752.223361303569	3569.2996001895
0	13387	927080.453115957472	5329.0774962576
0	13401	927582.228300095893	3802.5814541091
0	13415	928223.426412467446	4389.5888299276
0	13429	928858.687920011921	4136.4425396227
0	13466	931434.221535985482	6333.752137613
0	13471	931687.539220782272	4343.3300681855
0	13479	932114.354062544358	4103.0782907609
0	13488	933434.209407658476	4123.1825572407
0	13505	934195.51642082668	3783.1004232832
0	13534	936970.953926653472	6484.7195317592
0	13555	938433.398222769258	4884.9934928129
0	13573	939340.990491883059	4180.372934713
0	13590	940456.188695861376	5085.5812225427
0	13599	941828.290181094878	5147.0973958277
0	13616	942565.687095370911	4221.3285252345
0	13625	943416.069094250507	4674.1101137051
0	13642	945000.859518441037	5157.6135192599
0	13668	947503.976286734519	5602.6552630291
0	13686	948579.627977006187	4565.2897043406
0	13726	950331.471532138861	5165.2883564806
1	775	61628.698435850379	0
1	783	62116.61037334667	0
1	792	62414.271555065593	64.072538435909
1	803	62799.536941507821	140.85068199248
1	825	63842.789579032937	0
1	833	64745.220694371018	0
1	864	65685.212860619793	126.57734476481
1	909	69381.985954652106	0
1	918	70628.394405720064	0
1	927	70892.544013095366	109.9486001622
1	935	71423.051940358172	0
1	943	71950.361568215362	0
1	986	74816.230982395464	261.22285889993
1	1004	77568.331578888201	0
1	1012	77875.60382854823	280.63933501308
1	1048	82034.706326712967	0
1	1057	83809.31780946272	0
1	1066	84142.092980347177	23.720921867877
1	1074	84922.268734634488	0
1	1092	86728.575668785193	0
1	1136	92125.828428673027	0
1	1145	92666.328166922496	0
1	1153	93125.368059713582	0
1	1162	93903.09860340856	0
1	1171	95293.786773244557	0
1	1182	95550.805598535896	168.33907793472
1	1212	96781.909547150063	5.913457473152
1	1246	99392.945640636428	0
1	1255	99717.265501809715	81.638766814518
1	1291	105161.762311239883	0
1	1310	109044.393899350322	0
1	1320	110492.156756408632	0
1	1328	111224.937053080683	0
1	1346	113436.788044377596	0
1	1374	114414.697036506647	12.231161855752
1	1379	114728.172470641035	315.44089874466
1	1387	115192.815194465363	0
1	1396	115954.155638782465	0
1	1407	116220.787733572836	224.84229272246
1	1452	118370.521653372259	135.4409746663
1	1460	118664.680633935651	364.56179724041
1	1469	118940.774871687666	435.7928148492
1	1477	119250.808619579394	399.84387605921
1	1496	120505.818107588853	0
1	1504	121120.11179085896	0
1	1521	121729.999682581998	0
1	1563	124046.124120111498	188.96441792805
1	1588	125794.157634884908	0
1	1606	128288.75215465361	0
1	1623	129523.858970451095	140.98575126842
1	1642	132441.777228596771	0
1	1668	135206.307207251968	0
1	1677	136165.923177957962	0
1	1685	136456.680347162939	144.61436112356
1	1693	136782.061493066155	217.42944444601
1	1702	137293.321409285833	0
1	1728	139574.774338657901	80.758758747474
1	1761	140721.958886655964	292.6997903169
1	1778	142495.845605121978	204.17733639146
1	1796	144154.53088923011	93.888395373963
1	1804	144919.612490253397	0
1	1821	145971.844188309324	0
1	1830	146570.487888516892	0
1	1855	148228.680548285736	230.3620770528
1	1872	149471.887971740458	135.85326279713
1	1889	150098.616686789687	0
1	1897	150810.281835096242	0
1	1914	151722.905966459038	219.75368301332
1	1922	152298.684025900727	0
1	1947	153326.066560823706	93.384968292928
1	1964	153925.030874826412	23.454901554055
1	1989	155967.713312169499	0
1	2001	156302.542239643214	35.044100022316
1	2035	159503.600846897205	162.01251963128
1	2044	159803.076140451996	333.89459395013
1	2057	160395.296508811353	91.686429900076
1	2065	160701.909746898582	264.2889911622
1	2074	160977.102279425774	158.8378248659
1	2119	164109.848844624582	245.58141829224
1	2133	164811.35838718588	0
1	2141	165102.950174444946	35.284515448878
1	2152	165403.719019001049	193.30215155602
1	2158	165728.247294460096	369.0662660736
1	2166	166463.654579817517	0
1	2175	166857.010924196518	0
1	2191	167462.004246314309	53.974423038619
1	2214	168149.669978656167	220.68735141655
1	2219	168426.836958515249	378.48280791032
1	2268	170287.698491947701	73.769066136766
1	2282	171113.551963928546	0
1	2302	171694.028661824398	222.65960433706
1	2310	171998.707028272964	66.098663721079
1	2323	172598.734749422237	0
1	2340	173964.426902722583	0
1	2369	175231.379877865808	299.84357354289
1	2380	175543.970602369495	561.18174453327
1	2407	177185.015034021247	61.196254589692
1	2424	178111.664867479535	92.63153819375
1	2450	180565.38403127758	263.65148426773
1	2458	180849.45943602483	262.04345024694
1	2475	181685.461084878542	0
1	2484	183105.137653372338	0
1	2492	183401.399502651113	203.60461696645
1	2504	183665.061471263296	111.18294720855
1	2534	185200.014384807089	0
1	2542	185684.20951259112	0
1	2570	186563.833148848896	235.7003733382
1	2593	188417.441379182581	0
1	2609	188999.734935210831	148.27589570792
1	2617	189278.652687249257	108.59498710836
1	2635	191636.628846485085	0
1	2643	191945.045328967631	218.63350489564
1	2677	193980.175166516676	0
1	2686	194548.164177582079	0
1	2711	195842.667770971903	0
1	2719	196121.971817283646	27.713234898244
1	2761	199135.366194577504	251.75712017653
1	2771	200795.274495523558	0
1	2779	201386.571728027482	0
1	2788	202087.449732904161	0
1	2823	205259.230517797668	0
1	2834	205597.712153531488	33.723402847209
1	2865	208731.343052900122	254.7968355022
1	2874	209342.54619739652	0
1	2883	210318.5586175558	0
1	2891	210664.912826760579	0
1	2899	210963.618637817612	0
1	2908	211544.055101935624	0
1	2967	215980.978085138468	0
1	2976	216288.446832794131	0
1	2984	216526.107616551236	233.35140886284
1	2993	218031.087343414106	0
1	3001	218336.198638778905	103.07910009019
1	3052	221752.084642168176	0
1	3061	222024.307937311441	180.77033183139
1	3070	223339.259348389486	0
1	3078	223692.264788153861	208.40868046757
1	3089	224045.499955321812	160.31020948982
1	3094	224392.126448778777	400.40107500256
1	3120	225888.043422238806	0
1	3128	226183.522408798551	115.73778434787
1	3170	228154.386623747512	0
1	3195	230024.326430084629	0
1	3203	230349.216189476907	0
1	3238	233879.160237860896	0
1	3248	235746.297217261326	0
1	3265	237125.627313026427	0
1	3274	238300.551504504614	0
1	3291	239005.533167983633	82.509361888657
1	3299	239329.231293935405	204.18881384126
1	3325	241916.992315139523	0
1	3345	242583.781222201561	65.560540627213
1	3358	243200.026726060951	50.852150740251
1	3367	244023.223913877769	0
1	3384	245288.56339240097	105.48157497911
1	3410	247206.426227289766	0
1	3421	247462.05544210405	156.95398457678
1	3437	248128.253497270737	144.9097574288
1	3443	248447.779996637965	457.14540656694
1	3451	248975.958217423649	0
1	3467	249529.166056518938	193.29214109031
1	3518	252669.072426843093	0
1	3545	256161.095589961211	0
1	3554	256904.421285208885	0
1	3562	257770.401763890767	0
1	3571	258755.337372599756	0
1	3588	259495.260652170712	0
1	3596	259778.364660102118	130.3223248427
1	3613	260467.086041036734	0
1	3655	262841.469865154408	0
1	3682	266530.494278613666	0
1	3690	266866.332992687546	142.76873333869
1	3717	270325.883936190259	142.56093679133
1	3725	271015.687529290071	0
1	3734	271677.862470130923	0
1	3742	271991.460113465272	116.55101120499
1	3779	274575.69531673764	213.07312791829
1	3788	274916.295326895839	149.49217288883
1	3801	275654.373436638307	0
1	3827	278349.228107852677	0
1	3845	280283.116502275158	0
1	3854	281117.496935248661	0
1	3888	284379.091815460201	234.91360388145
1	3898	286533.508729528974	0
1	3916	288238.573566166015	0
1	3924	289157.998047066357	0
1	3941	289741.950529575695	224.85792827406
1	3959	291703.104521023044	0
1	3975	292601.954067364956	0
1	4002	295544.722598143319	0
1	4019	297273.369111519692	0
1	4037	299208.570680445337	148.76013658883
1	4054	300878.283592337605	0
1	4072	303100.951691364347	0
1	4089	304526.747103711223	252.6700348592
1	4098	305153.705613179498	0
1	4115	306321.460227125144	252.03948991839
1	4135	307811.409284056761	194.29528709059
1	4140	308130.906535198037	483.07220372772
1	4165	309518.127327700574	194.47862696148
1	4186	311106.314804240626	6.979296118746
1	4209	313313.770825094406	97.883666577117
1	4217	313816.628657439234	0
1	4234	315157.225781073206	0
1	4243	315634.930618308564	0
1	4268	316981.308511515575	0
1	4303	320589.723045296267	154.93137403853
1	4311	320899.728983902631	199.13080138242
1	4320	321666.410305173426	0
1	4328	322210.188732778194	0
1	4354	324523.676598211797	282.53968005221
1	4362	324821.849438493226	205.27406913409
1	4387	325716.858586991631	122.31864549943
1	4404	327249.546430548907	95.178887734535
1	4413	327752.42495204439	0
1	4424	328083.737092533708	211.56760018999
1	4432	328426.364979246405	269.72217748368
1	4449	329035.47515074062	28.840360978526
1	4457	329344.567034978217	89.293898870095
1	4465	329654.325488087616	85.387608003664
1	4498	331146.766708267876	172.0996895197
1	4515	331683.611270490668	278.86648939952
1	4528	332273.124372556166	279.40906425681
1	4561	333390.455704152938	36.425591591508
1	4604	336273.343089394843	17.477713550451
1	4612	336595.139416250402	18.933094067568
1	4631	339740.42733851053	42.826372808474
1	4657	342806.71455381228	0
1	4666	343984.468845705665	0
1	4675	344443.498088693465	0
1	4703	346686.161303100291	119.79479691048
1	4717	347849.618813859024	0
1	4726	348916.527120252009	0
1	4752	351142.178880824244	0
1	4771	354331.904512268802	0
1	4788	355315.620054510555	0
1	4796	355721.740168383583	0
1	4804	356067.477123577115	0
1	4813	356403.930175388913	90.614984623522
1	4821	356704.30598822781	277.36073083792
1	4832	357010.902622518488	302.04149660202
1	4840	357306.87053837823	302.54186682523
1	4848	357566.776832069183	407.83116575049
1	4857	357876.036129914418	182.05258524764
1	4873	358449.245442898028	43.754558386209
1	4921	360001.163760566681	155.89502109593
1	4948	360943.158306902495	169.68429721826
1	4957	361262.940704309207	351.68447726172
1	4962	361558.523740200567	449.78141738266
1	4973	361865.313582478402	279.55454447677
1	5011	363644.275722167743	81.106493350276
1	5033	364190.513326680715	161.28937236534
1	5046	364736.517937666975	90.016882398218
1	5068	365862.816997574645	0
1	5103	368489.411407892302	0
1	5119	369167.43454128126	236.80649206778
1	5128	369990.971713234809	0
1	5136	370274.558336099268	75.971850319665
1	5179	373666.725865051529	258.52863488947
1	5187	374283.423967144419	0
1	5196	374745.199011747135	0
1	5225	377337.355393101237	49.289623545731
1	5233	377586.885296181002	281.01124293117
1	5241	377884.053219233325	96.874853641552
1	5281	381527.163953940595	0
1	5291	383359.903997050594	0
1	5309	385862.986072181593	0
1	5326	387430.996462553672	0
1	5335	387729.629506173103	161.41372171521
1	5349	388041.801008706465	231.5837629818
1	5354	388307.308070529961	478.4653860565
1	5359	388573.633503645833	688.09479060321
1	5368	388911.733927163787	312.50797861515
1	5384	389839.396132640935	0
1	5393	390156.076623921396	39.371124578429
1	5437	391917.168350119561	287.70474007677
1	5462	392762.312522462763	157.28941117476
1	5503	397491.071411485285	0
1	5511	398114.100560871634	0
1	5520	398442.49997858997	162.22775390172
1	5538	401146.45688688496	0
1	5563	402332.053892950334	0
1	5572	403627.088971779114	0
1	5589	404550.741798612372	179.59958232691
1	5597	404875.428317433062	0
1	5614	405832.814297969787	0
1	5656	409048.608411816714	0
1	5666	411233.912504805189	0
1	5675	412380.292216626516	0
1	5710	416210.330663017244	0
1	5720	418010.795291032202	0
1	5728	418673.726201245555	0
1	5746	420395.414770287248	0
1	5754	420805.667215719105	0
1	5771	421350.53454017851	0
1	5788	422421.945705762547	72.870126407571
1	5799	422758.724509069014	306.74656943301
1	5804	423033.999345450961	397.57449546098
1	5863	426671.166780638239	54.187417477526
1	5873	428702.007324069536	0
1	5890	429778.993915321021	0
1	5898	430098.803732816757	298.02378822471
1	5906	430540.389058301671	0
1	5914	430793.169540227932	179.35764004731
1	5931	431814.159975684894	0
1	5940	432112.204989584059	230.67646770482
1	6000	437949.588017912467	0
1	6009	438583.653052739249	0
1	6017	438847.901971659797	82.012910188047
1	6026	439534.726903291837	0
1	6052	441705.504317387808	0
1	6077	443008.479425853795	107.85053033188
1	6085	443486.022012002755	0
1	6120	447043.778418475778	0
1	6128	447285.551647947452	203.70078326009
1	6138	448870.94541284184	0
1	6146	449248.755737185473	0
1	6154	449596.275914824483	195.02412763625
1	6179	451008.725678420096	0
1	6207	452239.003172939364	193.60760220749
1	6213	452521.568329987792	426.32820701772
1	6224	452857.447336677104	67.619756313435
1	6240	453475.166306563683	251.11110047083
1	6254	454237.026288858452	0
1	6296	456754.767016134355	222.91550669994
1	6304	457044.771076091018	43.359493780231
1	6330	457837.571765033894	244.36751415234
1	6335	458136.982170512278	376.90317536163
1	6340	458346.32157820033	556.58476228417
1	6349	458606.765764071744	803.87419351242
1	6354	458883.81494108961	473.70237452415
1	6371	459915.435677854812	251.58469186581
1	6387	460505.417648137918	71.123366218944
1	6412	461492.696758178162	273.5815925806
1	6443	462321.205880973132	128.8602677279
1	6461	463116.919421394531	62.265259256774
1	6487	464743.615521416953	0
1	6512	466535.291807208806	0
1	6521	466919.922812028677	0
1	6532	467210.878654596952	134.13769770903
1	6540	467504.059554893247	405.7570848435
1	6583	470730.570067046266	123.12418378721
1	6596	471305.430838071725	200.07552794461
1	6606	473271.138280384795	0
1	6614	473535.001595341546	195.67717096846
1	6622	473822.788912180593	248.31984710473
1	6642	474511.212501775221	81.127187769247
1	6656	475746.897363984311	0
1	6670	476033.564308039607	200.56572614197
1	6675	476331.896682042913	437.86433299395
1	6684	476598.034266390118	132.86788526125
1	6722	478761.404541653326	0
1	6764	480280.151736348506	199.4415709593
1	6781	482258.883384243255	321.16610899779
1	6798	483530.681054998186	70.809655277154
1	6807	484067.444578771487	0
1	6816	484856.779196366893	0
1	6850	487209.572209891123	0
1	6866	488297.510212198366	145.33890476077
1	6876	489915.080682748194	0
1	6887	490263.757151121509	89.672205093104
1	6901	490858.438648284096	147.10016502487
1	6909	491128.393037799433	28.185780290758
1	6917	491632.641012969577	0
1	6934	492921.91643773128	0
1	6949	493270.656952440823	288.85148258385
1	6987	494664.232050932737	79.226126804743
1	7000	495207.058230358902	105.43266912028
1	7009	495639.312957454493	0
1	7034	497543.900657452942	0
1	7079	503739.85573333541	0
1	7088	504917.501048663967	0
1	7100	505228.813949638345	208.93169617032
1	7105	505531.26021325677	469.87140645932
1	7122	506647.028440009723	0
1	7130	506957.035364119256	135.52910182128
1	7138	507322.6345584354	15.46359369691
1	7147	507652.775967496814	261.42681043108
1	7214	511557.919056192688	0
1	7224	513828.021847117913	0
1	7233	514948.585426849424	0
1	7259	517583.129264448197	220.75190831676
1	7276	519397.964763909436	0
1	7285	519693.671461472137	269.94345786144
1	7293	520452.108983478429	0
1	7322	522510.847726716224	169.6161297977
1	7345	524597.87993752199	0
1	7353	525341.973664867263	0
1	7365	525667.964753619145	108.37148422479
1	7378	526362.500421535577	250.39865262139
1	7387	527134.758588708445	0
1	7407	528021.006359279506	272.26870050187
1	7415	528345.379600461681	130.14644699437
1	7445	530081.458959789936	266.27961551948
1	7462	530754.566406108802	271.02483000253
1	7473	531079.329919384875	9.302689396845
1	7498	532023.867422669011	278.36882375339
1	7503	532284.477232737708	273.47388142095
1	7511	532768.106122618179	0
1	7537	534051.49206406385	0
1	7553	534961.64951495246	0
1	7562	535283.840211229406	305.12074368585
1	7573	535613.075787100465	253.82018159788
1	7603	537179.76657543304	0
1	7620	537489.64481725248	305.20424892915
1	7629	537833.694568602874	413.53577081684
1	7661	539344.27182904157	128.38393527518
1	7704	542707.254569417995	0
1	7715	543024.409391252691	218.96415636456
1	7726	543285.544584127226	410.55826786809
1	7737	543586.762315038931	556.12692408115
1	7743	543896.863161598643	690.58924445848
1	7748	544262.014244260719	814.47457003155
1	7753	544542.132175689026	1058.3126322473
1	7773	545980.001385734903	104.55606233902
1	7819	547343.864685208588	352.876294683
1	7824	547662.336705570684	612.22045731358
1	7829	547935.64701424353	609.11533487094
1	7851	548925.905847724637	78.376053724542
1	7864	549523.266801601276	90.106698477355
1	7903	551545.979268725243	0
1	7929	554067.670950547931	0
1	7938	554499.057971864657	0
1	7955	556097.420021939371	0
1	7980	557735.614778461516	0
1	7989	558244.570533145562	0
1	8005	558936.873746588468	261.4763632547
1	8014	559854.860426837061	0
1	8022	560139.722416449937	64.224705232293
1	8034	560406.780018463894	210.58290686322
1	8042	560683.809026839621	427.08167463362
1	8058	561351.880880878502	296.4021160519
1	8122	564944.745622544168	3.615219855257
1	8131	565288.299825317351	219.95543392392
1	8139	565620.390788116262	219.58381004123
1	8147	566353.891319968571	0
1	8190	569720.89761632165	0
1	8209	572590.805578812634	33.750711458125
1	8218	574166.808104838936	0
1	8245	577339.376919215776	137.58136553632
1	8253	578253.862207213017	0
1	8262	578551.375672697207	226.26817864004
1	8270	578929.060768778596	0
1	8279	579799.07041557176	0
1	8312	581725.210217801365	52.766956497612
1	8338	583274.196336152814	0
1	8347	584534.15819396655	0
1	8363	585332.093963553335	0
1	8389	587250.011913489765	5.22124849709
1	8397	587555.864241944437	155.82601533139
1	8406	588340.449437299677	0
1	8449	592457.743888077798	0
1	8468	596107.425915713326	83.433897407911
1	8477	596461.131020579875	0
1	8485	596765.0141462928	144.52621297443
1	8493	597310.306458300379	0
1	8501	597554.583919770234	58.086623023077
1	8510	597861.708216907393	297.29590219854
1	8527	599450.650629142368	0
1	8563	600600.361084395183	291.67480842826
1	8585	601971.389774612872	0
1	8603	603627.72803643934	0
1	8619	604220.422402715152	0
1	8627	604520.190141589341	103.36274946951
1	8645	606618.101693220835	0
1	8662	607288.214355869773	240.22996506173
1	8681	607987.900240678557	201.63958645211
1	8695	608522.616321593487	99.25876049859
1	8703	609256.141719258297	0
1	8728	610489.466454588462	204.06285094266
1	8745	611354.411769897801	153.78458900018
1	8770	612869.956149270889	167.33134539788
1	8779	613352.150217059849	0
1	8795	614334.602285397684	0
1	8840	620097.110265029274	0
1	8851	622822.211812112167	0
1	8859	623093.310650557157	132.26479758458
1	8875	623641.740883940971	233.15666167362
1	8884	624432.889340893907	0
1	8893	625293.256343940985	0
1	8904	625598.131437500754	105.31978111944
1	8926	626495.277441508655	182.17597593532
1	8951	628015.20444313877	0
1	8970	628624.590577765738	264.99983962307
1	8993	630103.503893546016	0
1	9010	631324.849384898052	0
1	9027	632829.847080168865	0
1	9053	635920.336389141013	0
1	9070	636858.029942684732	0
1	9097	640514.307116153699	0
1	9107	642005.674485615386	0
1	9116	643593.367183884195	0
1	9141	645141.180233182033	36.82954228036
1	9159	647244.10091924915	0
1	9186	650661.190558348357	112.98503707976
1	9194	651185.56010859124	0
1	9202	651599.582428142819	0
1	9212	653491.481286873526	0
1	9248	655100.409726437711	233.55306517649
1	9254	655488.450786718549	477.84007940223
1	9262	655710.947331117514	60.281738161132
1	9270	655993.724904996972	74.112259040448
1	9296	658306.304376839754	200.05146553582
1	9321	659204.981852258786	259.778603331
1	9332	659528.747475076935	265.693154246
1	9346	660067.82900160898	109.02527235977
1	9354	660342.808767918579	32.490572169518
1	9362	660652.747532153367	61.71009130896
1	9370	660947.061079887382	10.689166660368
1	9412	663083.184020157409	143.55073712503
1	9445	664665.421514182258	0
1	9454	665792.300317688195	0
1	9463	666096.211581088137	0
1	9491	668067.622193375517	271.90748236898
1	9499	668361.813529467405	445.39235643969
1	9505	668693.49418803627	516.02650079079
1	9524	669387.397397171732	16.176925567471
1	9538	669987.084336923584	258.12591098962
1	9546	670660.438559338859	0
1	9580	672089.538356517617	0
1	9622	674947.074379517731	263.75642146047
1	9630	675566.691887492743	0
1	9639	676223.722205243519	0
1	9648	676975.200146431803	0
1	9656	677284.989052501913	152.71148712464
1	9673	678342.667304232408	0
1	9690	679583.905976151787	0
1	9742	684252.231213543559	0
1	9750	684785.211980249294	0
1	9759	685344.699584780483	0
1	9785	688263.067656583418	107.87358839006
1	9796	688578.656943899601	175.42603715464
1	9819	691152.368014133467	153.17243278857
1	9837	692483.475469837583	0
1	9845	692891.657022315101	0
1	9854	693613.232011367009	0
1	9862	693859.914544224566	88.938382429513
1	9887	695947.744904764476	110.19744721636
1	9907	696465.730520279189	152.86620640331
1	9938	699047.815044940755	0
1	9955	699910.3117827291	55.456740493055
1	9963	700481.130189413444	0
1	9972	700843.150790215117	0
1	9980	701138.552889817384	0
1	10022	704235.59304260101	0
1	10031	704522.148757162833	0
1	10048	705924.175737831194	0
1	10083	710124.149667060098	0
1	10092	711545.19030167856	0
1	10101	712785.888842291561	0
1	10110	713068.534562423724	6.024231230229
1	10127	714044.885700309244	0
1	10152	716105.00854195027	0
1	10169	716700.026356610054	21.034444318258
1	10203	719794.49893281619	264.00327174421
1	10212	720466.697712605198	0
1	10239	724361.383732099723	0
1	10248	725319.0397151645	0
1	10266	727733.097628570021	0
1	10284	730602.726023031976	0
1	10296	730885.879053932313	108.49489440341
1	10304	731214.384875122038	42.227207207928
1	10317	731775.444529505443	186.15147909175
1	10326	733191.777184622908	0
1	10363	734596.351825184309	125.3976459078
1	10385	736591.732300987471	166.28257840045
1	10414	741695.498482362864	0
1	10422	742035.358131589725	101.77102853595
1	10430	742470.299590283325	0
1	10439	742823.04161426629	0
1	10484	749527.039637844528	0
1	10493	750105.499874981207	0
1	10502	751888.383001492103	0
1	10511	752403.766130737028	0
1	10527	753089.311839981762	0
1	10544	753906.359403971042	195.34059808676
1	10552	754362.296358226269	0
1	10569	755058.159272512323	117.63436482708
1	10577	755452.534479730354	0
1	10619	757632.126320844588	0
1	10630	757885.257162898085	88.473147511427
1	10635	758159.292807638548	357.06229168072
1	10650	758456.787637887653	101.10144471572
1	10658	758731.204811577281	126.90594983733
1	10676	759556.602299424239	74.011118276678
1	10697	760981.164994454754	222.08126931965
1	10705	761283.046540678538	517.73929043286
1	10719	761594.399142453713	306.77214322449
1	10730	761925.47499024002	559.58915048399
1	10739	762251.907823721943	112.60330694218
1	10747	762517.068511674118	247.49509598159
1	10796	764510.624552309896	228.22772183653
1	10801	764793.446233924915	395.99350877711
1	10868	768278.732220697987	0
1	10877	769208.677959559219	0
1	10885	769490.886809964158	85.908144191228
1	10893	769851.2155897448	0
1	10901	770093.605392259157	213.96184967054
1	10913	770435.879456605309	226.77131579004
1	10921	770719.635172214584	419.4576916702
1	10926	771025.372955262622	325.64920753514
1	10976	773560.969980227371	134.92659804117
1	10996	774184.88661946866	162.21574193881
1	11012	774800.436679298978	11.853922656146
1	11026	775094.291580630278	288.23739934364
1	11035	775428.510273584758	549.53004509527
1	11046	775774.743879831407	714.1765115454
1	11051	776099.737805402458	829.37119237494
1	11060	776403.112176049215	858.63621042227
1	11068	776687.65173054462	989.30405976541
1	11076	777009.484839477485	772.33330077593
1	11081	777331.463110714118	524.14463292989
1	11142	779465.314757212983	3.478945406658
1	11175	780557.369205236349	132.02146584409
1	11183	780912.118324732094	140.38742226198
1	11192	781242.726645297038	174.54697771348
1	11216	782175.715995604159	117.19699397924
1	11225	782476.36249188532	381.33012494025
1	11230	782792.077900831623	473.97368880662
1	11238	783105.699532273943	75.753830711985
1	11282	784825.134673451129	221.55084347003
1	11323	787032.916682753139	0
1	11352	792565.701048955377	0
1	11360	792853.135908509499	68.493153879857
1	11369	793297.237938080323	0
1	11377	793772.437865031081	0
1	11385	794116.998468400247	123.16043844339
1	11394	794895.112258243994	0
1	11402	795363.671346147953	0
1	11414	795676.668166667489	61.326514599983
1	11422	795997.197741175814	291.85682668515
1	11441	796559.059349542384	8.801655816447
1	11450	796829.983922263051	155.55225704347
1	11458	797140.681061824877	115.47817528873
1	11535	799973.813015469298	226.96465645588
1	11540	800275.174014330493	486.23002355936
1	11552	800571.024698190542	247.48226846671
1	11576	801798.064740961874	0
1	11584	802105.5913383189	0
1	11592	802394.92816500215	24.207860175135
1	11609	803286.63083819948	267.98589536622
1	11620	803591.246831128586	218.22038449604
1	11650	805005.276357639068	53.395639761396
1	11678	805940.883543312476	174.43018253357
1	11686	806202.051040607606	310.76874519347
1	11692	806528.811855641852	418.42658982986
1	11700	806880.205691509988	141.34966663561
1	11714	807266.227454402055	320.80393634525
1	11770	810078.553866904285	306.26383747872
1	11786	810730.774841113635	252.48821424383
1	11800	811955.835887187798	0
1	11818	813676.432192711803	0
1	11843	815814.635182197462	0
1	11852	816709.465701490051	0
1	11869	818004.653698866138	0
1	11878	818900.03795282127	0
1	11903	820177.942270969967	0
1	11911	820627.98496782355	0
1	11923	820956.65844885328	47.450014496098
1	11945	822089.855189463377	0
1	11953	823056.469063573156	0
1	11978	823917.118931556901	81.301638686333
1	12003	825485.691116713433	0
1	12015	825847.699055096248	37.822293072246
1	12029	826911.17736021538	0
1	12040	827161.935376474231	156.2219586964
1	12053	827935.390969121868	0
1	12073	828784.931807047719	164.0893035908
1	12081	829126.40367721315	54.44206569383
1	12139	834919.74932624716	0
1	12148	836109.905187897283	0
1	12156	836397.009014117039	188.38228258852
1	12166	838177.680762047662	0
1	12191	839081.56777688951	188.41574465756
1	12208	840352.378261018351	0
1	12228	841349.191526431267	206.92880721442
1	12236	841642.91742896394	461.55296960982
1	12241	841952.078944211546	519.38400744647
1	12267	844075.382544004791	0
1	12295	845035.265644404538	35.440180031954
1	12308	845699.481446755393	240.70505950544
1	12335	848559.747073625361	85.705611122502
1	12354	849316.736993634259	110.34362480567
1	12360	849672.045979237989	406.97794613314
1	12368	850001.063835360709	238.62872092703
1	12377	850903.562215403663	0
1	12428	854568.084042907172	0
1	12436	854856.241725211102	148.83210309046
1	12444	855148.628589211749	68.160770314721
1	12479	858863.135890045505	0
1	12488	859630.083841058933	0
1	12496	860000.886380744678	0
1	12505	861095.711096076448	0
1	12513	861506.852762393293	0
1	12538	862755.790915986381	137.54062001016
1	12550	863033.976597085081	76.384121958624
1	12558	863338.712309314582	325.47326896136
1	12574	863966.986591113611	85.45680376339
1	12630	867520.063521329282	199.87659276212
1	12640	868915.279240798192	0
1	12667	872928.102578533114	0
1	12676	873842.981666345056	0
1	12685	875518.076494088415	0
1	12711	877984.938758683582	0
1	12719	878279.556572364124	202.98231423427
1	12736	878970.213850359317	186.82176300008
1	12745	879710.666678035977	0
1	12753	880419.85700197706	0
1	12808	888583.869323727078	0
1	12817	889320.263043226286	0
1	12825	889962.799814206823	0
1	12834	890424.10933586729	0
1	12851	891958.681389163219	0
1	12884	893620.135321411191	271.20652302748
1	12902	895785.492536592151	0
1	12911	896606.457146351693	0
1	12922	896886.16971273678	207.55908035697
1	12935	897428.074085458419	153.24355836615
1	12978	900995.602358089956	0
1	12987	901419.763173635712	0
1	12996	902585.15185977252	0
1	13004	902987.72229352688	0
1	13012	903560.644431729074	0
1	13038	904859.434636244801	0
1	13063	906273.26918145803	59.307019787929
1	13080	907956.068508562775	0
1	13105	909228.414406117724	0
1	13123	911245.009409901608	0
1	13132	912085.664333993487	0
1	13148	912801.28648507315	117.77925789821
1	13156	913117.481815573041	274.75498995515
1	13165	914145.966349855321	0
1	13190	915305.408618807497	187.33446495467
1	13216	917094.656061262414	0
1	13232	917751.897898504478	0
1	13249	918962.130409124062	280.05890261596
1	13258	919985.943822336923	0
1	13284	921601.928092368582	0
1	13292	921883.788571333034	132.41295163314
1	13317	923182.923761114113	0
1	13325	923779.646845986827	0
1	13334	924100.215332015689	266.37774947587
1	13350	924722.245380389227	0
1	13367	925302.590005118588	202.1206067461
1	13403	927582.228300095893	238.01914749916
1	13417	928223.426412467446	212.15064068397
1	13434	929311.026850417813	0
1	13443	930412.415997543476	0
1	13454	930753.055058665284	266.82066377098
1	13493	933548.404729956405	0
1	13511	935160.617557170098	0
1	13519	935399.622694243893	29.015220925168
1	13536	936970.953926653472	289.76114138631
1	13557	938433.398222769258	89.039652632864
1	13565	938743.736649689026	1.777669143582
1	13579	939843.245999181168	0
1	13604	941901.321023705448	0
1	13630	944014.338272665602	0
1	13647	945166.183175658222	0
1	13656	946668.942530385538	0
1	13688	948579.627977006187	308.09917528474
1	13693	948856.334049005748	385.75117252699
1	13698	949155.038019598515	661.85443208222
1	13707	949416.655273504682	135.65103335474
1	13715	949690.376975749732	147.86512017448
2	773	61628.698435850379	1
2	775	61628.698435850379	0
2	781	62116.61037334667	1
2	783	62116.61037334667	0
2	786	62350.199016629684	1
2	792	62414.271555065593	0
2	798	62658.686259515342	1
2	803	62799.536941507821	0
2	823	63842.789579032937	1
2	825	63842.789579032937	0
2	831	64745.220694371018	1
2	833	64745.220694371018	0
2	856	65558.635515854985	1
2	864	65685.212860619793	0
2	907	69381.985954652106	1
2	909	69381.985954652106	0
2	916	70628.394405720064	1
2	918	70628.394405720064	0
2	921	70782.595412933161	1
2	927	70892.544013095366	0
2	933	71423.051940358172	1
2	935	71423.051940358172	0
2	941	71950.361568215362	1
2	943	71950.361568215362	0
2	981	74555.008123495529	1
2	986	74816.230982395464	0
2	1002	77568.331578888201	1
2	1004	77568.331578888201	0
2	1007	77594.964493535145	1
2	1012	77875.60382854823	0
2	1046	82034.706326712967	1
2	1048	82034.706326712967	0
2	1055	83809.31780946272	1
2	1057	83809.31780946272	0
2	1061	84118.3720584793	1
2	1066	84142.092980347177	0
2	1072	84922.268734634488	1
2	1074	84922.268734634488	0
2	1090	86728.575668785193	1
2	1092	86728.575668785193	0
2	1134	92125.828428673027	1
2	1136	92125.828428673027	0
2	1143	92666.328166922496	1
2	1145	92666.328166922496	0
2	1151	93125.368059713582	1
2	1153	93125.368059713582	0
2	1160	93903.09860340856	1
2	1162	93903.09860340856	0
2	1169	95293.786773244557	1
2	1171	95293.786773244557	0
2	1174	95382.466520601173	1
2	1182	95550.805598535896	0
2	1207	96775.996089676911	1
2	1212	96781.909547150063	0
2	1244	99392.945640636428	1
2	1246	99392.945640636428	0
2	1250	99635.626734995197	1
2	1255	99717.265501809715	0
2	1289	105161.762311239883	1
2	1291	105161.762311239883	0
2	1308	109044.393899350322	1
2	1310	109044.393899350322	0
2	1318	110492.156756408632	1
2	1320	110492.156756408632	0
2	1326	111224.937053080683	1
2	1328	111224.937053080683	0
2	1344	113436.788044377596	1
2	1346	113436.788044377596	0
2	1366	114402.465874650895	1
2	1369	114412.731571896372	2
2	1374	114414.697036506647	1
2	1379	114728.172470641035	0
2	1385	115192.815194465363	1
2	1387	115192.815194465363	0
2	1394	115954.155638782465	1
2	1396	115954.155638782465	0
2	1399	115995.94544085038	1
2	1407	116220.787733572836	0
2	1441	118235.080678705958	1
2	1444	118300.118836695238	2
2	1452	118370.521653372259	1
2	1455	118504.982056838464	2
2	1460	118664.680633935651	1
2	1464	118850.964743520182	2
2	1469	118940.774871687666	1
2	1477	119250.808619579394	0
2	1494	120505.818107588853	1
2	1496	120505.818107588853	0
2	1502	121120.11179085896	1
2	1504	121120.11179085896	0
2	1519	121729.999682581998	1
2	1521	121729.999682581998	0
2	1558	123857.159702183448	1
2	1563	124046.124120111498	0
2	1586	125794.157634884908	1
2	1588	125794.157634884908	0
2	1604	128288.75215465361	1
2	1606	128288.75215465361	0
2	1618	129382.873219182674	1
2	1623	129523.858970451095	0
2	1640	132441.777228596771	1
2	1642	132441.777228596771	0
2	1666	135206.307207251968	1
2	1668	135206.307207251968	0
2	1675	136165.923177957962	1
2	1677	136165.923177957962	0
2	1680	136312.065986039379	1
2	1685	136456.680347162939	0
2	1688	136564.632048620147	1
2	1693	136782.061493066155	0
2	1700	137293.321409285833	1
2	1702	137293.321409285833	0
2	1723	139494.015579910427	1
2	1728	139574.774338657901	0
2	1756	140429.259096339065	1
2	1761	140721.958886655964	0
2	1773	142291.66826873052	1
2	1778	142495.845605121978	0
2	1791	144060.642493856147	1
2	1796	144154.53088923011	0
2	1802	144919.612490253397	1
2	1804	144919.612490253397	0
2	1819	145971.844188309324	1
2	1821	145971.844188309324	0
2	1828	146570.487888516892	1
2	1830	146570.487888516892	0
2	1850	147998.318471232935	1
2	1855	148228.680548285736	0
2	1867	149336.034708943327	1
2	1872	149471.887971740458	0
2	1887	150098.616686789687	1
2	1889	150098.616686789687	0
2	1895	150810.281835096242	1
2	1897	150810.281835096242	0
2	1909	151503.152283445721	1
2	1914	151722.905966459038	0
2	1920	152298.684025900727	1
2	1922	152298.684025900727	0
2	1942	153232.681592530778	1
2	1947	153326.066560823706	0
2	1959	153901.575973272357	1
2	1964	153925.030874826412	0
2	1987	155967.713312169499	1
2	1989	155967.713312169499	0
2	1996	156267.498139620898	1
2	2001	156302.542239643214	0
2	2027	159341.588327265928	1
2	2030	159469.181546501865	2
2	2035	159503.600846897205	1
2	2044	159803.076140451996	0
2	2052	160303.610078911277	1
2	2057	160395.296508811353	0
2	2060	160437.620755736386	1
2	2065	160701.909746898582	0
2	2069	160818.264454559877	1
2	2074	160977.102279425774	0
2	2111	163864.267426332346	1
2	2119	164109.848844624582	0
2	2131	164811.35838718588	1
2	2133	164811.35838718588	0
2	2136	165067.665658996068	1
2	2141	165102.950174444946	0
2	2144	165210.416867445028	1
2	2147	165359.181028386498	2
2	2152	165403.719019001049	1
2	2158	165728.247294460096	0
2	2164	166463.654579817517	1
2	2166	166463.654579817517	0
2	2173	166857.010924196518	1
2	2175	166857.010924196518	0
2	2186	167408.02982327569	1
2	2191	167462.004246314309	0
2	2202	167928.982627239617	1
2	2206	168048.354150604926	2
2	2214	168149.669978656167	1
2	2219	168426.836958515249	0
2	2260	170213.929425810935	1
2	2268	170287.698491947701	0
2	2280	171113.551963928546	1
2	2282	171113.551963928546	0
2	2296	171471.369057487336	1
2	2302	171694.028661824398	0
2	2305	171932.608364551885	1
2	2310	171998.707028272964	0
2	2321	172598.734749422237	1
2	2323	172598.734749422237	0
2	2338	173964.426902722583	1
2	2340	173964.426902722583	0
2	2360	174931.536304322918	1
2	2363	174982.788857836222	2
2	2369	175231.379877865808	1
2	2380	175543.970602369495	0
2	2402	177123.818779431555	1
2	2407	177185.015034021247	0
2	2419	178019.033329285785	1
2	2424	178111.664867479535	0
2	2445	180301.732547009852	1
2	2450	180565.38403127758	0
2	2453	180587.415985777887	1
2	2458	180849.45943602483	0
2	2473	181685.461084878542	1
2	2475	181685.461084878542	0
2	2482	183105.137653372338	1
2	2484	183105.137653372338	0
2	2487	183197.79488568466	1
2	2492	183401.399502651113	0
2	2495	183553.87852405475	1
2	2504	183665.061471263296	0
2	2532	185200.014384807089	1
2	2534	185200.014384807089	0
2	2540	185684.20951259112	1
2	2542	185684.20951259112	0
2	2562	186328.132775510694	1
2	2570	186563.833148848896	0
2	2591	188417.441379182581	1
2	2593	188417.441379182581	0
2	2604	188851.459039502913	1
2	2609	188999.734935210831	0
2	2612	189170.057700140899	1
2	2617	189278.652687249257	0
2	2633	191636.628846485085	1
2	2635	191636.628846485085	0
2	2638	191726.411824071987	1
2	2643	191945.045328967631	0
2	2675	193980.175166516676	1
2	2677	193980.175166516676	0
2	2684	194548.164177582079	1
2	2686	194548.164177582079	0
2	2709	195842.667770971903	1
2	2711	195842.667770971903	0
2	2714	196094.258582385402	1
2	2719	196121.971817283646	0
2	2756	198883.609074400977	1
2	2761	199135.366194577504	0
2	2769	200795.274495523558	1
2	2771	200795.274495523558	0
2	2777	201386.571728027482	1
2	2779	201386.571728027482	0
2	2786	202087.449732904161	1
2	2788	202087.449732904161	0
2	2821	205259.230517797668	1
2	2823	205259.230517797668	0
2	2829	205563.988750684279	1
2	2834	205597.712153531488	0
2	2860	208476.546217397922	1
2	2865	208731.343052900122	0
2	2872	209342.54619739652	1
2	2874	209342.54619739652	0
2	2881	210318.5586175558	1
2	2883	210318.5586175558	0
2	2889	210664.912826760579	1
2	2891	210664.912826760579	0
2	2897	210963.618637817612	1
2	2899	210963.618637817612	0
2	2906	211544.055101935624	1
2	2908	211544.055101935624	0
2	2965	215980.978085138468	1
2	2967	215980.978085138468	0
2	2974	216288.446832794131	1
2	2976	216288.446832794131	0
2	2979	216292.756207688395	1
2	2984	216526.107616551236	0
2	2991	218031.087343414106	1
2	2993	218031.087343414106	0
2	2996	218233.119538688715	1
2	3001	218336.198638778905	0
2	3050	221752.084642168176	1
2	3052	221752.084642168176	0
2	3055	221843.53760548005	1
2	3061	222024.307937311441	0
2	3068	223339.259348389486	1
2	3070	223339.259348389486	0
2	3073	223483.856107686291	1
2	3078	223692.264788153861	0
2	3081	223885.189745831993	1
2	3084	223991.72537377622	2
2	3089	224045.499955321812	1
2	3094	224392.126448778777	0
2	3118	225888.043422238806	1
2	3120	225888.043422238806	0
2	3123	226067.784624450679	1
2	3128	226183.522408798551	0
2	3168	228154.386623747512	1
2	3170	228154.386623747512	0
2	3193	230024.326430084629	1
2	3195	230024.326430084629	0
2	3201	230349.216189476907	1
2	3203	230349.216189476907	0
2	3236	233879.160237860896	1
2	3238	233879.160237860896	0
2	3246	235746.297217261326	1
2	3248	235746.297217261326	0
2	3263	237125.627313026427	1
2	3265	237125.627313026427	0
2	3272	238300.551504504614	1
2	3274	238300.551504504614	0
2	3286	238923.023806094976	1
2	3291	239005.533167983633	0
2	3294	239125.042480094145	1
2	3299	239329.231293935405	0
2	3323	241916.992315139523	1
2	3325	241916.992315139523	0
2	3340	242518.220681574348	1
2	3345	242583.781222201561	0
2	3353	243149.1745753207	1
2	3358	243200.026726060951	0
2	3365	244023.223913877769	1
2	3367	244023.223913877769	0
2	3379	245183.081817421855	1
2	3384	245288.56339240097	0
2	3408	247206.426227289766	1
2	3410	247206.426227289766	0
2	3416	247305.101457527265	1
2	3421	247462.05544210405	0
2	3429	247983.343739841932	1
2	3432	247990.63459007102	2
2	3437	248128.253497270737	1
2	3443	248447.779996637965	0
2	3449	248975.958217423649	1
2	3451	248975.958217423649	0
2	3462	249335.873915428631	1
2	3467	249529.166056518938	0
2	3516	252669.072426843093	1
2	3518	252669.072426843093	0
2	3543	256161.095589961211	1
2	3545	256161.095589961211	0
2	3552	256904.421285208885	1
2	3554	256904.421285208885	0
2	3560	257770.401763890767	1
2	3562	257770.401763890767	0
2	3569	258755.337372599756	1
2	3571	258755.337372599756	0
2	3586	259495.260652170712	1
2	3588	259495.260652170712	0
2	3591	259648.042335259421	1
2	3596	259778.364660102118	0
2	3611	260467.086041036734	1
2	3613	260467.086041036734	0
2	3653	262841.469865154408	1
2	3655	262841.469865154408	0
2	3680	266530.494278613666	1
2	3682	266530.494278613666	0
2	3685	266723.564259348853	1
2	3690	266866.332992687546	0
2	3712	270183.322999398933	1
2	3717	270325.883936190259	0
2	3723	271015.687529290071	1
2	3725	271015.687529290071	0
2	3732	271677.862470130923	1
2	3734	271677.862470130923	0
2	3737	271874.90910226028	1
2	3742	271991.460113465272	0
2	3774	274362.62218881935	1
2	3779	274575.69531673764	0
2	3782	274766.803154007012	1
2	3788	274916.295326895839	0
2	3799	275654.373436638307	1
2	3801	275654.373436638307	0
2	3825	278349.228107852677	1
2	3827	278349.228107852677	0
2	3843	280283.116502275158	1
2	3845	280283.116502275158	0
2	3852	281117.496935248661	1
2	3854	281117.496935248661	0
2	3883	284144.17821157875	1
2	3888	284379.091815460201	0
2	3896	286533.508729528974	1
2	3898	286533.508729528974	0
2	3914	288238.573566166015	1
2	3916	288238.573566166015	0
2	3922	289157.998047066357	1
2	3924	289157.998047066357	0
2	3936	289517.092601301633	1
2	3941	289741.950529575695	0
2	3957	291703.104521023044	1
2	3959	291703.104521023044	0
2	3973	292601.954067364956	1
2	3975	292601.954067364956	0
2	4000	295544.722598143319	1
2	4002	295544.722598143319	0
2	4017	297273.369111519692	1
2	4019	297273.369111519692	0
2	4032	299059.810543856511	1
2	4037	299208.570680445337	0
2	4052	300878.283592337605	1
2	4054	300878.283592337605	0
2	4070	303100.951691364347	1
2	4072	303100.951691364347	0
2	4084	304274.077068852027	1
2	4089	304526.747103711223	0
2	4096	305153.705613179498	1
2	4098	305153.705613179498	0
2	4110	306069.420737206754	1
2	4115	306321.460227125144	0
2	4127	307617.113996966174	1
2	4130	307647.834331470319	2
2	4135	307811.409284056761	1
2	4140	308130.906535198037	0
2	4160	309323.648700739093	1
2	4165	309518.127327700574	0
2	4181	311099.33550812188	1
2	4186	311106.314804240626	0
2	4204	313215.887158517289	1
2	4209	313313.770825094406	0
2	4215	313816.628657439234	1
2	4217	313816.628657439234	0
2	4232	315157.225781073206	1
2	4234	315157.225781073206	0
2	4241	315634.930618308564	1
2	4243	315634.930618308564	0
2	4266	316981.308511515575	1
2	4268	316981.308511515575	0
2	4298	320434.791671257735	1
2	4303	320589.723045296267	0
2	4306	320700.598182520214	1
2	4311	320899.728983902631	0
2	4318	321666.410305173426	1
2	4320	321666.410305173426	0
2	4326	322210.188732778194	1
2	4328	322210.188732778194	0
2	4349	324241.136918159591	1
2	4354	324523.676598211797	0
2	4357	324616.575369359134	1
2	4362	324821.849438493226	0
2	4382	325594.539941492198	1
2	4387	325716.858586991631	0
2	4399	327154.367542814372	1
2	4404	327249.546430548907	0
2	4411	327752.42495204439	1
2	4413	327752.42495204439	0
2	4416	327872.169492343714	1
2	4424	328083.737092533708	0
2	4427	328156.64280176273	1
2	4432	328426.364979246405	0
2	4444	329006.634789762094	1
2	4449	329035.47515074062	0
2	4452	329255.273136108122	1
2	4457	329344.567034978217	0
2	4460	329568.937880083952	1
2	4465	329654.325488087616	0
2	4490	330974.667018748176	1
2	4498	331146.766708267876	0
2	4507	331404.74478109115	1
2	4515	331683.611270490668	0
2	4523	331993.715308299354	1
2	4528	332273.124372556166	0
2	4556	333354.03011256143	1
2	4561	333390.455704152938	0
2	4599	336255.865375844392	1
2	4604	336273.343089394843	0
2	4607	336576.206322182834	1
2	4612	336595.139416250402	0
2	4626	339697.600965702056	1
2	4631	339740.42733851053	0
2	4655	342806.71455381228	1
2	4657	342806.71455381228	0
2	4664	343984.468845705665	1
2	4666	343984.468845705665	0
2	4673	344443.498088693465	1
2	4675	344443.498088693465	0
2	4695	346566.366506189812	1
2	4703	346686.161303100291	0
2	4715	347849.618813859024	1
2	4717	347849.618813859024	0
2	4724	348916.527120252009	1
2	4726	348916.527120252009	0
2	4750	351142.178880824244	1
2	4752	351142.178880824244	0
2	4769	354331.904512268802	1
2	4771	354331.904512268802	0
2	4786	355315.620054510555	1
2	4788	355315.620054510555	0
2	4794	355721.740168383583	1
2	4796	355721.740168383583	0
2	4802	356067.477123577115	1
2	4804	356067.477123577115	0
2	4807	356313.315190765391	1
2	4813	356403.930175388913	0
2	4816	356426.945257389895	1
2	4821	356704.30598822781	0
2	4824	356708.861125916472	1
2	4827	357004.328671552998	2
2	4832	357010.902622518488	1
2	4835	357158.945666318694	2
2	4840	357306.87053837823	1
2	4848	357566.776832069183	0
2	4852	357693.983544666774	1
2	4857	357876.036129914418	0
2	4868	358405.490884511819	1
2	4873	358449.245442898028	0
2	4909	359845.268739470752	1
2	4921	360001.163760566681	0
2	4940	360773.474009684234	1
2	4943	360911.256227047482	2
2	4948	360943.158306902495	1
2	4951	361108.742322817908	2
2	4957	361262.940704309207	1
2	4962	361558.523740200567	0
2	4965	361585.759038001629	1
2	4973	361865.313582478402	0
2	5005	363563.169228817467	1
2	5011	363644.275722167743	0
2	5025	364029.223954315375	1
2	5033	364190.513326680715	0
2	5041	364646.501055268757	1
2	5046	364736.517937666975	0
2	5066	365862.816997574645	1
2	5068	365862.816997574645	0
2	5101	368489.411407892302	1
2	5103	368489.411407892302	0
2	5114	368930.628049213478	1
2	5119	369167.43454128126	0
2	5126	369990.971713234809	1
2	5128	369990.971713234809	0
2	5131	370198.586485779603	1
2	5136	370274.558336099268	0
2	5174	373408.197230162056	1
2	5179	373666.725865051529	0
2	5185	374283.423967144419	1
2	5187	374283.423967144419	0
2	5194	374745.199011747135	1
2	5196	374745.199011747135	0
2	5217	377288.065769555506	1
2	5220	377305.874053249835	2
2	5225	377337.355393101237	1
2	5233	377586.885296181002	0
2	5236	377787.178365591773	1
2	5241	377884.053219233325	0
2	5279	381527.163953940595	1
2	5281	381527.163953940595	0
2	5289	383359.903997050594	1
2	5291	383359.903997050594	0
2	5307	385862.986072181593	1
2	5309	385862.986072181593	0
2	5324	387430.996462553672	1
2	5326	387430.996462553672	0
2	5329	387568.215784457895	1
2	5335	387729.629506173103	0
2	5338	387810.217245724662	1
2	5341	387828.842684473462	2
2	5344	387885.538713042618	3
2	5349	388041.801008706465	2
2	5354	388307.308070529961	1
2	5359	388573.633503645833	0
2	5362	388599.225948548638	1
2	5368	388911.733927163787	0
2	5382	389839.396132640935	1
2	5384	389839.396132640935	0
2	5388	390116.705499342967	1
2	5393	390156.076623921396	0
2	5432	391629.463610042796	1
2	5437	391917.168350119561	0
2	5454	392605.023111288001	1
2	5462	392762.312522462763	0
2	5501	397491.071411485285	1
2	5503	397491.071411485285	0
2	5509	398114.100560871634	1
2	5511	398114.100560871634	0
2	5514	398280.272224688251	1
2	5520	398442.49997858997	0
2	5536	401146.45688688496	1
2	5538	401146.45688688496	0
2	5561	402332.053892950334	1
2	5563	402332.053892950334	0
2	5570	403627.088971779114	1
2	5572	403627.088971779114	0
2	5583	404371.142216285466	1
2	5589	404550.741798612372	0
2	5595	404875.428317433062	1
2	5597	404875.428317433062	0
2	5612	405832.814297969787	1
2	5614	405832.814297969787	0
2	5654	409048.608411816714	1
2	5656	409048.608411816714	0
2	5664	411233.912504805189	1
2	5666	411233.912504805189	0
2	5673	412380.292216626516	1
2	5675	412380.292216626516	0
2	5708	416210.330663017244	1
2	5710	416210.330663017244	0
2	5718	418010.795291032202	1
2	5720	418010.795291032202	0
2	5726	418673.726201245555	1
2	5728	418673.726201245555	0
2	5744	420395.414770287248	1
2	5746	420395.414770287248	0
2	5752	420805.667215719105	1
2	5754	420805.667215719105	0
2	5769	421350.53454017851	1
2	5771	421350.53454017851	0
2	5782	422349.075579354976	1
2	5788	422421.945705762547	0
2	5791	422451.977939636008	1
2	5794	422636.424849989986	2
2	5799	422758.724509069014	1
2	5804	423033.999345450961	0
2	5858	426616.979363160713	1
2	5863	426671.166780638239	0
2	5871	428702.007324069536	1
2	5873	428702.007324069536	0
2	5888	429778.993915321021	1
2	5890	429778.993915321021	0
2	5893	429800.779944592046	1
2	5898	430098.803732816757	0
2	5904	430540.389058301671	1
2	5906	430540.389058301671	0
2	5909	430613.811900180624	1
2	5914	430793.169540227932	0
2	5929	431814.159975684894	1
2	5931	431814.159975684894	0
2	5934	431881.528521879241	1
2	5940	432112.204989584059	0
2	5998	437949.588017912467	1
2	6000	437949.588017912467	0
2	6007	438583.653052739249	1
2	6009	438583.653052739249	0
2	6012	438765.88906147175	1
2	6017	438847.901971659797	0
2	6024	439534.726903291837	1
2	6026	439534.726903291837	0
2	6050	441705.504317387808	1
[...]
7	7994	558592.607401747691	2
7	8009	559238.665859523416	3
7	8020	560139.722416449937	4
7	8032	560406.780018463894	5
7	8036	560510.550780333517	4
7	8040	560683.809026839621	5
7	8045	561001.215780840486	6
7	8052	561270.11918839542	5
7	8060	561516.989202708322	4
7	8065	561632.978745843797	5
7	8078	562994.337839394457	4
7	8086	563744.657504585804	3
7	8091	563853.890010437187	2
7	8094	563966.797731541327	1
7	8103	564147.019897639748	0
7	8129	565288.299825317351	1
7	8137	565620.390788116262	2
7	8142	565880.905228804794	3
7	8151	566675.263749124081	4
7	8154	568093.611179429578	3
7	8159	568178.12915087508	2
7	8167	568639.821186238725	1
7	8179	569179.357066533598	0
7	8194	570013.219397881511	1
7	8197	572250.474760605352	0
7	8212	572892.932057208477	1
7	8221	574445.036713426009	2
7	8224	575366.115527349539	1
7	8233	577043.320578054697	0
7	8248	577620.242102245812	1
7	8260	578551.375672697207	2
7	8265	578818.93674483636	3
7	8273	579221.824645097202	4
7	8282	580097.806282713149	5
7	8284	580255.048800682368	4
7	8293	580808.047226412883	3
7	8301	581431.357864298448	2
7	8314	581806.863039398666	1
7	8319	582012.326848672287	2
7	8326	582661.161892696275	1
7	8341	583589.397366608218	2
7	8350	584864.933648667804	3
7	8352	584922.190997343544	2
7	8367	585606.436248350966	3
7	8369	586296.388803425384	2
7	8378	586974.690279835816	1
7	8395	587555.864241944437	2
7	8400	587838.261259095832	3
7	8408	588579.990664547609	2
7	8412	588617.131458422891	3
7	8420	590297.749719467887	2
7	8429	590627.175195627348	1
7	8438	591829.822819474893	0
7	8453	592808.180530935804	1
7	8457	595754.981153880343	0
7	8472	596408.771175190054	1
7	8483	596765.0141462928	2
7	8488	597066.620446551027	3
7	8499	597554.583919770234	4
7	8508	597861.708216907393	5
7	8513	598157.582693604437	6
7	8516	599093.952585092676	5
7	8529	599549.095461656878	4
7	8532	599650.152453643229	3
7	8536	599710.450701954178	4
7	8546	600193.269647142164	3
7	8557	600474.26225550792	2
7	8565	600705.503828103879	1
7	8569	600922.819507050918	2
7	8588	602289.448407885038	3
7	8591	602534.977530300629	2
7	8605	603758.692012069012	1
7	8609	603938.321211922266	2
7	8625	604520.190141589341	3
7	8629	604694.535807693684	2
7	8634	604818.636684710808	3
7	8647	606862.838228014016	2
7	8651	606945.502532991497	3
7	8665	607617.624581555758	4
7	8667	607660.327808786507	3
7	8675	607851.614969248038	2
7	8684	608258.366701761533	3
7	8698	608809.13838568768	4
7	8706	609533.976293734941	5
7	8709	609879.66276553543	4
7	8714	610119.240198715465	3
7	8732	610807.94045418013	4
7	8734	611004.617087954657	3
7	8748	611642.408623116125	4
7	8750	611712.427911349465	3
7	8759	612553.68121881933	2
7	8773	613166.121274836633	3
7	8781	613604.094913631539	2
7	8785	613643.786319333854	3
7	8799	614644.354093568424	4
7	8801	614968.926951614221	3
7	8810	616043.69422555033	2
7	8818	616675.62536399006	1
7	8824	617007.779299393211	0
7	8844	620416.773416905966	1
7	8857	623093.310650557157	2
7	8861	623279.081562422054	1
7	8865	623371.447683304725	2
7	8878	623982.611212961718	3
7	8887	624723.789752974339	4
7	8895	625378.856840811134	3
7	8902	625598.131437500754	4
7	8907	625884.649990318706	5
7	8911	625910.571046970114	4
7	8928	626563.932056321922	3
7	8932	626771.219325481974	4
7	8936	626923.656324625968	3
7	8953	628118.299825911856	2
7	8957	628307.026261784905	3
7	8964	628552.230325883433	2
7	8974	628939.306470295699	3
7	8981	629411.725622994404	2
7	8996	630422.738539652216	3
7	8998	630869.037639446013	2
7	9012	631540.597997836915	1
7	9016	631633.718707005394	2
7	9029	632949.407599718206	1
7	9033	633117.070724609218	2
7	9041	634350.174750285894	1
7	9056	636059.4706081581	0
7	9060	636233.302692660304	1
7	9073	637105.340446859514	2
7	9077	639352.571704349089	1
7	9082	639435.007936692499	0
7	9101	640843.169397374392	1
7	9110	642282.716740677556	2
7	9118	643771.012548321113	1
7	9122	643899.670670405157	2
7	9130	644902.391157352644	1
7	9144	645470.864220622301	2
7	9148	646898.244823902936	1
7	9162	647565.354459899363	2
7	9164	647737.843589135222	1
7	9174	650352.957160585079	0
7	9189	650987.250422416189	1
7	9197	651504.088409649436	2
7	9206	651876.653058776437	3
7	9215	653769.136728772903	4
7	9218	654172.19021842388	3
7	9223	654448.857732325505	2
7	9226	654486.102463308835	1
7	9252	655488.450786718549	2
7	9260	655710.947331117514	3
7	9268	655993.724904996972	4
7	9273	656281.80664068436	5
7	9276	656601.041278087346	4
7	9285	658008.346062809452	3
7	9298	658389.259930566272	2
7	9302	658606.946834663769	3
7	9306	658760.699457590947	2
7	9323	659256.576325855722	1
7	9330	659528.747475076935	2
7	9335	659767.367219294882	3
7	9352	660342.808767918579	4
7	9360	660652.747532153367	5
7	9368	660947.061079887382	6
7	9373	661248.673644652443	5
7	9377	661286.034844112399	6
7	9384	662260.56274452526	5
7	9390	662506.073249553294	4
7	9401	662866.880872911904	3
7	9414	663278.22269146747	2
7	9418	663399.676171536975	3
7	9423	663660.436645286502	2
7	9431	663986.904956830068	1
7	9449	664962.378178565787	2
7	9458	666084.907093377356	3
7	9465	666182.069602272227	2
7	9469	666420.436905026221	3
7	9477	667766.573455484995	2
7	9497	668361.813529467405	3
7	9503	668693.49418803627	4
7	9507	668790.18365558572	3
7	9511	669029.650104195812	4
7	9515	669145.336339631241	3
7	9528	669717.412965735253	4
7	9541	670330.305831093281	5
7	9550	670960.371859619792	6
7	9552	671082.507106381574	5
7	9557	671281.391573803767	4
7	9560	671324.85045594957	3
7	9583	672361.248661356343	4
7	9585	672558.433440503718	3
7	9590	672762.703580502131	2
7	9602	674132.459501498826	1
7	9611	674674.280978699943	0
7	9625	675196.350352515985	1
7	9634	675812.700480850096	2
7	9642	676537.562825429295	3
7	9654	677284.989052501913	4
7	9658	677382.702083751158	3
7	9662	677576.873456202001	4
7	9675	678366.421256843305	3
7	9679	678659.385762994582	4
7	9692	679775.831496016156	3
7	9696	679841.033189781019	4
7	9700	679917.816287664634	3
7	9712	680582.808904839807	2
7	9720	681323.28321448137	1
7	9729	682295.247380202186	0
7	9745	684504.802432667307	1
7	9753	685075.002411111493	2
7	9762	685674.092608623196	3
7	9765	687470.703271802473	2
7	9774	687993.945783088295	1
7	9787	688328.167330676003	0
7	9794	688578.656943899601	1
7	9800	688898.156461641059	2
7	9808	690828.876225602583	1
7	9823	691445.19600223895	2
7	9825	691708.312799725243	1
7	9840	692763.418902531976	2
7	9848	693159.070454179283	3
7	9860	693859.914544224566	4
7	9865	694203.682796699813	5
7	9867	694382.053842086479	4
7	9876	695614.497966940464	3
7	9889	695975.052118998465	2
7	9894	696197.232617855553	3
7	9901	696407.401246214777	2
7	9909	696592.20341237747	1
7	9913	696778.046040352759	2
7	9927	698731.675504351343	1
7	9941	699352.745929939387	2
7	9943	699583.915169823256	1
7	9958	700217.622184258724	2
7	9966	700751.2390385996	3
7	9975	701111.914435282557	4
7	9983	701470.952037270448	5
7	9986	702218.867891729035	4
7	9994	703032.726190219502	3
7	10003	703286.965687804271	2
7	10011	703639.172502175679	1
7	10026	704512.574152892043	2
7	10033	704755.590228565916	1
7	10037	704833.205952627034	2
7	10051	706183.383345721556	3
7	10054	707596.060208883279	2
7	10059	707641.733340172661	1
7	10071	709108.248625868421	0
7	10087	710452.437302347992	1
7	10096	711811.05922596389	2
7	10108	713068.534562423724	3
7	10112	713321.973035605428	2
7	10116	713398.366402967398	3
7	10130	714390.747730928215	4
7	10132	714715.808577224965	3
7	10141	715548.187087509199	2
7	10154	716216.599996528358	1
7	10159	716420.993094270882	2
7	10172	716932.498182511757	3
7	10174	717104.551988854208	2
7	10184	719012.71238586097	1
7	10192	719493.34353660327	0
7	10207	720131.429474561685	1
7	10215	720808.043902581327	2
7	10219	722924.105785627837	1
7	10227	723372.002262951129	0
7	10242	724613.957814026746	1
7	10251	725597.58058311271	2
7	10255	727349.848510175805	1
7	10269	728033.887087999857	2
7	10271	728175.953626961453	1
7	10289	730795.258825801357	0
7	10294	730885.879053932313	1
7	10302	731214.384875122038	2
7	10307	731501.871063883482	3
7	10321	732067.751457643752	4
7	10329	733432.355280332355	3
7	10333	733517.529218942161	4
7	10340	734082.289205221054	3
7	10345	734108.20036953076	2
7	10353	734290.310067985529	1
7	10366	734873.884780842065	2
7	10374	736322.584714456521	1
7	10389	736863.243613709398	2
7	10391	737945.770451439815	1
7	10401	740053.885469177083	0
7	10420	742035.358131589725	1
7	10425	742301.493494371757	2
7	10434	742800.186737292765	3
7	10442	743096.215643078384	4
7	10445	744965.237705790743	3
7	10451	745201.956356452145	2
7	10459	745552.339496345497	1
7	10467	745697.54211196238	0
7	10487	749796.251505108242	1
7	10496	750397.482086781922	2
7	10505	752131.168325809722	3
7	10513	752607.98241110378	2
7	10517	752707.624810360939	3
7	10530	753468.238160298459	4
7	10533	753616.565243653893	3
7	10547	754243.140249070383	4
7	10555	754659.428273134645	5
7	10557	754694.986015299922	4
7	10572	755353.184700780302	5
7	10579	755482.402009397152	4
7	10582	755523.991485577069	3
7	10586	755787.860949891367	4
7	10599	756553.267338610218	3
7	10607	757103.472821371644	2
7	10628	757885.257162898085	3
7	10633	758159.292807638548	4
7	10637	758323.964320486384	3
7	10640	758325.896641116303	2
7	10648	758456.787637887653	3
7	10656	758731.204811577281	4
7	10661	759006.577802387497	5
7	10680	759812.007779180611	6
7	10682	760638.461388106664	5
7	10699	761058.736281454275	4
7	10703	761283.046540678538	5
7	10710	761322.844138860933	4
7	10717	761594.399142453713	5
7	10721	761760.341580510415	4
7	10724	761772.585649366354	3
7	10728	761925.47499024002	4
7	10737	762251.907823721943	5
7	10745	762517.068511674118	6
7	10749	762562.396775204305	5
7	10753	762812.976702977503	6
7	10773	763791.457557191467	5
7	10799	764793.446233924915	6
7	10803	764825.667637869324	5
7	10806	764930.758053048984	4
7	10809	764949.874616864709	3
7	10813	765101.507028093005	4
7	10822	765430.391247322077	3
7	10831	765955.231777355932	2
7	10848	767250.618487273608	1
7	10853	767447.919574286636	0
7	10871	768571.419955118332	1
7	10883	769490.886809964158	2
7	10888	769772.651749042554	3
7	10899	770093.605392259157	4
7	10911	770435.879456605309	5
7	10919	770719.635172214584	6
7	10924	771025.372955262622	7
7	10929	771348.847627905134	8
7	10931	771515.339284912398	7
7	10940	772319.377765088003	6
7	10945	772428.850573092691	5
7	10957	772977.692497972948	4
7	10962	773100.05426564279	3
7	10978	773805.448110230263	2
7	10981	773851.232095399031	1
7	10985	773863.911281981118	2
7	10998	774396.867299273144	1
7	11002	774505.314632883776	2
7	11024	775094.291580630278	3
7	11033	775428.510273584758	4
7	11044	775774.743879831407	5
7	11049	776099.737805402458	6
7	11058	776403.112176049215	7
7	11062	776539.952495574659	6
7	11066	776687.65173054462	7
7	11074	777009.484839477485	8
7	11079	777331.463110714118	9
7	11083	777408.445459049169	8
7	11087	777582.676767627551	9
7	11092	777755.120580621201	8
7	11100	777914.930095004215	7
7	11113	778530.674566722675	6
7	11122	778932.819473197653	5
7	11130	779339.526437944111	4
7	11133	779405.681719371661	3
7	11144	779536.495005747239	2
7	11148	779723.6270039227	3
7	11152	779785.58535208454	2
7	11166	780306.78198052842	1
7	11181	780912.118324732094	2
7	11190	781242.726645297038	3
7	11195	781586.012072572949	4
7	11204	781928.023951048623	3
7	11223	782476.36249188532	4
7	11228	782792.077900831623	5
7	11236	783105.699532273943	6
7	11240	783297.266196414976	5
7	11244	783355.202762543986	6
7	11249	783631.90000619219	5
7	11257	783721.858757598841	4
7	11284	785037.66324241579	3
7	11288	785186.830805766517	4
7	11295	785681.243943622701	3
7	11300	785983.69250160985	2
7	11309	786237.800442845606	1
7	11327	787321.240654257358	2
7	11329	787843.998554198347	1
7	11339	789685.814875840564	0
7	11358	792853.135908509499	1
7	11363	793128.999017427169	2
7	11372	793616.873942274737	3
7	11383	794116.998468400247	4
7	11388	794391.477621223904	5
7	11397	795189.699829707939	6
7	11408	795642.671280167811	5
7	11412	795676.668166667489	6
7	11420	795997.197741175814	7
7	11425	796284.879646335351	8
7	11429	796316.095730440159	7
7	11432	796508.626934214329	6
7	11448	796829.983922263051	7
7	11456	797140.681061824877	8
7	11460	797169.256409493176	7
7	11463	797179.015247678597	6
7	11467	797415.68872472725	7
7	11476	797967.021482981065	6
7	11490	798547.505037569857	5
7	11498	798894.139039245848	4
7	11506	799118.74637988916	3
7	11515	799375.538783599668	2
7	11518	799554.864923551674	1
7	11538	800275.174014330493	2
7	11546	800485.478105365867	1
7	11550	800571.024698190542	2
7	11555	800912.33342403316	3
7	11579	802095.222813459527	4
7	11590	802394.92816500215	5
7	11595	802697.984436489403	6
7	11598	803002.101780435501	5
7	11611	803361.866432224959	4
7	11618	803591.246831128586	5
7	11623	803887.297006613373	6
7	11628	804178.196596452866	5
7	11639	804657.061883410185	4
7	11654	805274.336306426014	5
7	11656	805369.24298128173	4
7	11661	805631.996931556662	3
7	11684	806202.051040607606	4
7	11690	806528.811855641852	5
7	11698	806880.205691509988	6
7	11705	807100.852123793142	5
7	11708	807103.996316735626	4
7	11712	807266.227454402055	5
7	11717	807566.262984477988	6
7	11722	807824.567053827692	5
7	11739	809164.610248744221	4
7	11744	809231.266414623282	3
7	11752	809503.525852595992	2
7	11763	809865.126665125662	1
7	11772	810165.342887609596	0
7	11776	810424.123634201392	1
7	11789	811028.264627807271	2
7	11803	812295.803036543205	3
7	11806	812971.595461597985	2
7	11820	813760.507625239911	1
7	11824	814018.153083270921	2
7	11832	815174.425379433874	1
7	11847	816116.114755059118	2
7	11854	816826.757158012635	1
7	11858	817004.888436989216	2
7	11872	818276.668517293312	3
7	11880	819117.231954587902	2
7	11884	819181.958590907989	3
7	11888	819272.016547441815	2
7	11906	820462.461705959471	3
7	11914	820818.023678786118	2
7	11921	820956.65844885328	3
7	11926	821230.278909207151	4
7	11930	821399.56973889771	3
7	11948	822324.841025554058	4
7	11955	823137.983999009114	3
7	11960	823351.04419643214	4
7	11967	823665.579630580858	3
7	11980	823938.755549698794	2
7	11984	824178.199842272051	3
7	11992	824529.796098391368	2
7	12006	825739.867686520151	1
7	12013	825847.699055096248	2
7	12018	826120.069072689556	3
7	12034	827074.119555637099	2
7	12038	827161.935376474231	3
7	12043	827512.210277665336	4
7	12057	828185.956055756371	5
7	12059	828467.007313877393	4
7	12067	828704.416033109752	3
7	12079	829126.40367721315	4
7	12085	829403.578076628106	5
7	12092	830030.517757611241	4
7	12097	830327.902370271928	3
7	12106	830613.913779101811	2
7	12118	831646.820265670067	1
7	12123	831866.576595202312	0
7	12143	835215.929515574162	1
7	12154	836397.009014117039	2
7	12160	836753.358325769779	3
7	12168	838219.966495863697	2
7	12172	838459.96263718842	3
7	12176	838745.935543332432	2
7	12194	839391.962856911391	3
7	12196	839432.748706762947	2
7	12211	840650.053106291844	3
7	12213	841049.203936591591	2
7	12234	841642.91742896394	3
7	12239	841952.078944211546	4
7	12244	842246.01347253523	5
7	12247	842532.485221635026	4
7	12256	843749.013542114581	3
7	12269	844166.139366950358	2
7	12273	844389.699299482797	3
7	12277	844402.182891672118	2
7	12285	844793.279826005893	1
7	12298	845382.612220682112	2
7	12311	845999.262330920365	3
7	12315	847310.655657167051	2
7	12323	848270.643577709183	1
7	12338	848877.412657021386	2
7	12340	849011.209957104838	1
7	12358	849672.045979237989	2
7	12366	850001.063835360709	3
7	12371	850289.201771816051	4
7	12380	851203.533762746698	5
7	12382	851239.368255459141	4
7	12391	852005.882981160018	3
7	12399	852627.949875319764	2
7	12407	853093.606669154247	1
7	12416	853894.043282669287	0
7	12434	854856.241725211102	1
7	12442	855148.628589211749	2
7	12447	855452.516820266705	3
7	12451	857454.171006416528	2
7	12459	857776.792555966915	1
7	12464	857889.739772998488	0
7	12482	859176.777182939785	1
7	12491	859939.256073790545	2
7	12499	860310.021100605068	3
7	12508	861379.180809430494	4
7	12517	861762.605130896906	5
7	12519	861777.130740543138	4
7	12527	862461.322579842408	3
7	12548	863033.976597085081	4
7	12552	863044.469413743215	3
7	12556	863338.712309314582	4
7	12561	863624.43351893977	5
7	12568	863932.744073679761	4
7	12577	864018.584346951116	3
7	12581	864284.006671065227	4
7	12594	865571.234639463763	3
7	12603	866493.883267836159	2
7	12608	866576.001537616983	1
7	12619	867141.389562893407	0
7	12634	867802.970463045577	1
7	12643	869203.370728293144	2
7	12646	870262.607271456812	1
7	12655	872052.092772022565	0
7	12670	873210.687069088177	1
7	12679	874143.242589572347	2
7	12687	875686.918918622365	1
7	12691	875840.632863526446	2
7	12699	876771.157102717449	1
7	12717	878279.556572364124	2
7	12723	878536.641386732298	3
7	12725	878627.214949784839	2
7	12739	879283.17134007853	3
7	12748	879966.499743691776	4
7	12756	880737.178583552488	5
7	12759	880911.474538036135	4
7	12764	880923.90822652887	3
7	12776	882035.136511143713	2
7	12784	882467.689763745627	1
7	12793	883559.672275810763	0
7	12811	888897.312229381792	1
7	12820	889594.208542136145	2
7	12828	890284.812148627991	3
7	12837	890766.74619830463	4
7	12839	891489.166756069954	3
7	12854	892265.516001357847	4
7	12856	892553.05480287692	3
7	12865	892945.52912687958	2
7	12873	893340.791694479924	1
7	12888	894037.435364585009	2
7	12890	894935.605250521464	1
7	12905	896074.919603382386	2
7	12916	896690.640552987808	1
7	12920	896886.16971273678	2
7	12925	897145.703233105578	3
7	12939	897750.74876007047	4
7	12942	898838.765399421742	3
7	12950	899313.843616853336	2
7	12959	900205.782601872639	1
7	12964	900325.530009364095	0
7	12982	901334.264346258285	1
7	12990	901694.279480620181	2
7	12999	902886.668784654122	3
7	13007	903257.769980277104	4
7	13016	903917.418153577885	5
7	13018	904094.343608598701	4
7	13023	904327.260284209804	3
7	13041	905124.513170463778	4
7	13043	905647.36394920506	3
7	13052	906000.062721334982	2
7	13066	906516.277032992787	3
7	13068	906611.227285729157	2
7	13082	908185.46523126157	1
7	13086	908244.089107365767	2
7	13094	908774.435602416815	1
7	13108	909511.496655773756	2
7	13112	910899.469002220828	1
7	13126	911573.68533637538	2
7	13134	912216.36890104804	1
7	13138	912445.290930770641	2
7	13154	913117.481815573041	3
7	13160	913427.521503359208	4
7	13169	914463.132231299363	5
7	13171	914661.65055370793	4
7	13179	915038.157332598868	3
7	13194	915617.986809276893	4
7	13196	915748.113299969585	3
7	13204	916085.462592307723	2
7	13218	917308.29780528573	1
7	13222	917378.269671884622	2
7	13236	918092.334923031889	3
7	13238	918645.94893645848	2
7	13253	919267.294743907363	3
7	13261	920286.61061848626	4
7	13264	920410.030002461235	3
7	13269	920519.571638996416	2
7	13290	921883.788571333034	3
7	13295	922177.999486375038	4
7	13297	922212.346977052871	3
7	13306	922929.076217179271	2
7	13320	923464.591080765583	3
7	13332	924100.215332015689	4
7	13336	924367.640526364098	3
7	13340	924374.160236328595	4
7	13352	924968.027888676839	3
7	13356	925000.256522895073	4
7	13370	925615.595547912548	5
7	13373	926445.960295456433	4
7	13378	926605.329078724276	3
7	13389	927308.026306882909	2
7	13397	927568.300342703932	1
7	13407	927905.613918344582	2
7	13420	928504.352893701226	3
7	13422	928521.878222692746	2
7	13437	929633.053166658157	3
7	13445	930440.482702308472	2
7	13452	930753.055058665284	3
7	13456	930812.277301694954	2
7	13460	931086.167707724242	3
7	13473	931846.464031188903	2
7	13482	933166.169226139361	1
7	13496	933839.937646817735	0
7	13500	933871.898191102139	1
7	13517	935399.622694243893	2
7	13522	935737.884444658761	3
7	13525	936625.353530301056	2
7	13540	937287.276489053269	3
7	13542	938145.219320193118	2
7	13547	938244.522807793277	1
7	13563	938743.736649689026	2
7	13568	939047.65133507739	3
7	13581	939980.895753996523	2
7	13585	940133.292153664091	3
7	13593	941492.381350358137	2
7	13607	942080.875318193658	1
7	13611	942203.539648014357	2
7	13618	943064.652508890549	1
7	13633	944302.140744740591	2
7	13636	944692.408669788855	1
7	13650	945472.218420757371	2
7	13660	946989.588060692001	3
7	13662	947170.967199714245	2
7	13671	948241.700198125432	1
7	13691	948856.334049005748	2
7	13696	949155.038019598515	3
7	13705	949416.655273504682	4
7	13713	949690.376975749732	5
7	13717	949848.550925494992	4
7	13721	950044.852642170518	5
