version 2
run QueueMeasurement-9-20170109-14:00:49-5469
attr configname QueueMeasurement
attr datetime 20170109-14:00:49
attr experiment QueueMeasurement
attr inifile queueStudy.ini
attr iterationvars ""
attr iterationvars2 $repetition=9
attr measurement ""
attr network controltower.SimNetwork
attr processid 5469
attr repetition 9
attr replication #9
attr resultdir results
attr runnumber 9
attr seedset 9
param SimNetwork.a.parkingLot.parkingDelay "truncnormal(45min, 5 min)"
param SimNetwork.a.runway.landingTime "truncnormal(5min, 0.5min)"
param SimNetwork.a.runway.takeoffTime "truncnormal(5min, 0.5min)"
param SimNetwork.a.runway.throughputCheckInterval 20min
param SimNetwork.wg.interArrivalTime exponential(20min)

vector 5  SimNetwork.a.runway  landedThroughput:vector  ETV
attr source  landedThroughputSignal
vector 6  SimNetwork.a.runway  tookoffThroughput:vector  ETV
attr source  tookoffThroughputSignal
vector 7  SimNetwork.a.parkingLot  parkingOccupancy:vector  ETV
attr source  parkingOccupancy
vector 4  SimNetwork.a.takeoffQueue  queueLength:vector  ETV
attr source  queueLengthSignal
vector 3  SimNetwork.a.takeoffQueue  queueTime:vector  ETV
attr source  queueTimeSignal
vector 0  SimNetwork.wg  responseTime:vector  ETV
attr source  responseTimeSignal
vector 2  SimNetwork.a.landingQueue  queueLength:vector  ETV
attr source  queueLengthSignal
vector 1  SimNetwork.a.landingQueue  queueTime:vector  ETV
attr source  queueTimeSignal
0	909	61980.999222096321	3148.3737962458
0	917	62286.077207630186	4490.8852278962
0	949	65305.537927979452	5963.3204968701
0	977	66386.170736392652	4223.393137565
0	1026	68398.130945420067	5736.9958354365
0	1035	68672.148468264938	4539.4786259015
0	1043	68920.838797847563	3396.9661788347
0	1060	69630.878323462419	3255.9213964623
0	1065	69949.090147783757	4385.6627690282
0	1088	71013.760288978393	4086.1879962695
0	1093	71322.970139659633	4155.7729573228
0	1098	71630.573921678214	4602.3727577756
0	1110	72223.963481937107	4678.9456870861
0	1135	73575.769139543556	4683.127498481
0	1150	75701.491577200971	5341.0407377092
0	1158	76314.321249732189	4150.3390178474
0	1167	76852.355283116449	4016.3159014154
0	1202	81365.237883269691	7943.8256247974
0	1239	83272.119929193417	4275.9949082843
0	1247	83541.794312966932	5803.2040470681
0	1270	85202.465018443517	6138.850806613
0	1281	85992.09720891261	3653.1256908071
0	1286	86306.804240276512	4192.5488069468
0	1298	86843.484351382986	4349.7082302203
0	1303	87125.59485947639	3701.684565345
0	1334	92202.689847639248	8310.9001799695
0	1348	92860.728611754989	3965.1949680402
0	1382	95437.297364975088	6312.3232839704
0	1407	97189.801302631296	5016.7229358972
0	1416	97873.61759984337	4410.7430047032
0	1424	98376.492718044327	3816.4159661399
0	1433	98820.610546824476	4116.2251642618
0	1442	99912.62740552965	4257.6962730347
0	1460	103136.958079140339	6918.6038865937
0	1504	106838.059525473287	6355.1750901119
0	1512	107195.176511460334	3693.4942721607
0	1521	108907.233799613693	5208.0477630052
0	1530	109310.179565351334	3694.4496960263
0	1577	115007.116825691911	8979.7874403858
0	1583	115355.823294763728	4240.7862562606
0	1601	117422.462541992713	5390.0695233516
0	1620	118287.933590855655	4171.9264901996
0	1638	120644.373146761901	3434.2397415501
0	1643	120928.143544256136	6744.4724841329
0	1652	121444.862726941484	4114.0462220292
0	1707	126359.993465684687	8304.4162042863
0	1715	126677.327113443434	4320.5621273413
0	1720	126975.741390360304	4460.8409833016
0	1749	128669.930500964777	6070.9542408088
0	1762	129370.633140842386	3879.8832850126
0	1790	130599.776288634547	4930.3234148426
0	1796	130882.295710431213	3845.5825848008
0	1804	131933.468627602545	4341.8924096989
0	1813	132258.472002623249	3696.760251469
0	1821	133062.955825415439	3683.5785218179
0	1876	137195.473551784144	7412.1811515125
0	1884	137482.589254759329	3603.2052440204
0	1914	138752.539629957752	4620.6090690309
0	1934	139581.154707196569	5137.6714006444
0	1939	139910.223492956181	3645.6600411659
0	1947	140318.210369464365	3996.4776732501
0	1959	141231.854019032838	3781.0059029468
0	1964	141560.829753076706	3856.120381726
0	1981	142296.88940861937	4222.2198562406
0	1999	144657.771759592508	5767.1069242476
0	2017	146644.646476086009	4986.9655892867
0	2043	149289.00141009145	6531.1164802834
0	2055	150863.142616441253	4867.2466786309
0	2069	151488.906102851242	4386.1497856934
0	2087	153952.471109829082	6030.4794412706
0	2095	154430.576668213828	3662.704026163
0	2127	160383.267123188415	8732.8016383306
0	2135	160692.06021768311	4613.6460183836
0	2184	163860.885621465291	6408.3171535256
0	2214	165096.919511906177	4534.4709304824
0	2225	165638.427590245944	4451.7151113261
0	2244	166719.177506233114	5150.6935051399
0	2250	166987.095437687421	3748.48757596
0	2261	167461.168821333702	3642.1604511023
0	2266	167742.737392574522	4101.3144465483
0	2275	168185.883174498542	4346.7412678058
0	2292	169566.103841350039	4658.2792490405
0	2320	171549.893109344548	5391.9374034717
0	2354	172938.326252416435	2945.9290946149
0	2359	173286.301255039563	5065.8598231654
0	2376	174847.822467377963	4545.6069444695
0	2388	175269.537675076491	3934.27163862
0	2401	175897.710485385891	4012.6680950791
0	2419	178091.525916005182	5841.1457560495
0	2431	179153.436775172465	4955.5671969614
0	2447	179784.460995621333	4591.1891419451
0	2470	182192.880511876781	5925.257869265
0	2490	183251.475430296325	4273.9266089502
0	2495	183548.801118477605	4022.2101220225
0	2513	185873.035123021917	5868.6529265934
0	2523	188234.994354794798	6018.667890921
0	2569	191974.434027314021	6759.6801962343
0	2581	192297.405080989568	3459.6756814436
0	2636	195353.953400523514	6079.8901399707
0	2648	195709.221754684656	4610.6932576237
0	2656	196022.353413120732	3782.2010568764
0	2678	196931.047298204827	5585.3253806427
0	2683	197202.472074344608	4954.0047459739
0	2694	197528.315371345892	3567.7983478039
0	2719	198387.806318835247	4317.712936222
0	2727	198715.92403576602	4392.2488964104
0	2744	199377.13010391484	4830.9723023443
0	2757	199999.552922631888	4244.5970885183
0	2769	200522.85282832563	4327.9312147706
0	2788	201143.361105928298	3637.8731971443
0	2807	202091.331201895305	4552.6498725251
0	2815	202756.985093094462	4129.5304664462
0	2828	204343.548731300698	5103.9972419901
0	2836	204632.9779648525	4296.5643962028
0	2841	204994.462310758468	3970.4389797495
0	2862	210211.659806578967	9162.4495019364
0	2892	214078.580864473325	6946.461868547
0	2925	215625.79527990307	4653.9425512222
0	2950	217169.903895791894	4601.0024597068
0	2956	217471.221885789359	3492.8196707088
0	2964	218275.282401407555	3827.5429598865
0	2984	219215.361400977784	4767.5481330149
0	2989	219558.760631466506	4105.8801087255
0	3035	222137.28431684414	6030.1083131736
0	3049	223773.509986390729	3441.6718356636
0	3057	224142.112251687407	5601.3556283979
0	3069	224603.46457690587	4200.9777168212
0	3074	224882.832631628722	3671.3235046247
0	3082	225509.125284148334	4218.0456913606
0	3120	232169.492087014704	10136.216163449
0	3144	234110.617826179283	5028.8711865964
0	3154	234764.322500261857	4454.3770845393
0	3172	236740.176673149896	5443.1835832725
0	3189	237972.650436572861	4517.4762067132
0	3198	239308.394366679294	5386.2734950155
0	3207	240257.783192723885	4399.8967995456
0	3257	243572.647471802166	6523.5292729818
0	3269	244235.615278874247	3777.2593987863
0	3341	246701.696634579607	5990.8107804327
0	3355	247314.167116574794	5477.0757090822
0	3393	248377.483743937777	6526.5168366115
0	3405	248677.079832578552	5992.637697795
0	3421	249246.808582526176	4463.1690235801
0	3426	249500.900133836586	5574.7651076159
0	3435	249786.852005060781	5112.9617477996
0	3477	250941.220694605377	5686.9175339823
0	3493	251599.749732321348	6250.1300712497
0	3504	252156.982847338023	7167.3898647022
0	3509	252414.687651390463	6918.4290024316
0	3520	252767.073904437531	6134.9147737141
0	3525	253030.691608216064	6018.7452781525
0	3537	253314.053041581921	5832.2827038285
0	3550	253863.658897446989	6215.0367307969
0	3564	254450.075660673978	4841.3042680644
0	3572	254734.71295339731	6234.0411288498
0	3583	254979.19788557749	5036.5001714352
0	3613	256313.53978155211	5971.9142629837
0	3624	256873.665429270044	6032.3197717465
0	3632	257159.466468756335	5649.4829055369
0	3637	257420.758820741936	4242.5011887407
0	3649	258108.182105567209	4350.1567493176
0	3662	258625.630335432557	3728.2141665429
0	3673	259000.408140827224	3457.9031579747
0	3682	259313.861028368299	4414.7797256836
0	3704	261405.890282673032	5425.5047965302
0	3716	262465.74062845519	4517.9550518403
0	3730	263195.549346910566	4044.3012494482
0	3748	266065.784957958363	6134.4263544668
0	3790	268500.759315384844	6164.425696761
0	3807	269459.44640555671	4412.0023234568
0	3824	270323.2616772322	4069.761774449
0	3832	270683.982393111843	3394.115698877
0	3843	271139.700416631438	3705.1169243298
0	3874	272425.690858023991	4638.456844501
0	3888	272894.027249580463	4168.1629419244
0	3907	274313.995361341609	4835.0718752866
0	3915	274792.261966095678	3745.1192917334
0	3924	275269.565393569205	3688.2007475232
0	3932	275877.556575228793	4248.7921282757
0	3941	276552.056570482719	3964.4873469095
0	3984	280123.136357825263	7236.3258546115
0	3995	280516.104213961661	3655.1891620283
0	4009	281071.051860637313	3783.9126544563
0	4021	282839.030842402883	4982.3324752393
0	4038	283686.583885630503	4154.1076061435
0	4069	285825.088825708599	5534.8280980653
0	4092	287162.758868559463	4447.9568030226
0	4097	287477.45288324266	3427.5453560629
0	4105	287797.05237111772	4191.4262864584
0	4144	290224.736704241657	5980.4245852756
0	4164	291145.219202428324	4561.8948797593
0	4178	291721.394810738361	4005.8495898583
0	4186	292096.024744936867	3787.8696535872
0	4194	292610.59926251981	4193.0433267633
0	4209	293869.1258512571	4200.3847756014
0	4220	294479.379153311889	4212.0832352748
0	4249	297080.88589085562	6117.3845695784
0	4263	298722.996660812034	4941.1010585532
0	4272	299984.626139342426	4100.5781070023
0	4284	300409.569301677144	4090.7589989855
0	4307	303427.168615045835	6461.0651568857
0	4329	306123.324433738407	5797.6130762815
0	4343	307569.767861423699	4889.1224894556
0	4368	309358.791001459579	4787.4619812673
0	4386	311329.086436699087	5307.2139174094
0	4394	311978.640976481093	3580.4527628892
0	4403	312355.00622721731	3874.8843630269
0	4454	318455.765660632045	8814.1129466355
0	4464	318999.977212055101	3683.2982530795
0	4481	320240.940880898468	4779.8957390731
0	4498	320968.171498036171	4115.8904036073
0	4515	321747.238242058429	4305.9644042579
0	4524	323110.378287900667	4655.003582283
0	4533	324017.592469959137	4379.608662316
0	4541	324363.239021189059	3929.3600756466
0	4577	329795.810715881437	8635.0375213328
0	4597	331042.797765963942	4903.4089646781
0	4603	331380.412668871967	3920.3154489162
0	4628	332721.057026023731	4244.4440372548
0	4657	334811.534000026744	3143.9185524129
0	4703	336607.09809879396	6785.1402017606
0	4715	337347.353311489538	3618.6376573836
0	4720	337661.240242211663	5818.8159165464
0	4731	338175.051872009773	4113.8551389169
0	4745	338760.497334660127	4022.8996968742
0	4759	339065.609902139282	4056.4680324267
0	4764	339399.575039124849	4405.8402707605
0	4770	339670.494456423855	4315.8732876963
0	4790	341656.942730981401	6031.383902073
0	4821	343838.036372701987	5736.9439776759
0	4830	344588.473198137318	4614.3516422749
0	4838	345436.803480403266	4001.6760676025
0	4855	346338.592525819887	4364.5311472907
0	4884	349172.890930852109	6035.2439343277
0	4906	350088.053679350269	4461.1029700704
0	4923	350932.38212321991	3909.8648995942
0	4948	352376.341146608382	3276.5805542222
0	4957	352933.521215914013	4863.689412174
0	4974	354439.172538743991	5234.4895455368
0	4985	354766.112629325007	3332.5138898946
0	4993	355073.816819316206	4741.0378100586
0	5008	357261.472244763438	5564.4769789647
0	5033	358689.582434791437	4862.6538945691
0	5054	360428.86877487788	5617.7386476782
0	5059	360744.847905017609	3414.3597205481
0	5085	362917.461700962406	5342.4759999325
0	5103	365111.476410216082	6309.7261354031
0	5111	365519.793293479333	3553.722247633
0	5124	367494.883837930715	5501.5724052572
0	5182	370793.263918446722	6675.1001577972
0	5188	371088.695851248565	3846.9611776572
0	5196	371349.926940356646	3799.2293417513
0	5214	372172.729503757317	4227.6049272165
0	5232	373070.926081365138	5154.6847306934
0	5241	373340.186395212711	4751.704825556
0	5259	375700.479592697444	6457.5042582751
0	5283	376614.489722069818	4472.2768202133
0	5289	376925.492770053367	4502.168355743
0	5298	378823.995122345096	5515.5779715799
0	5306	379166.522063854556	3579.0683501906
0	5398	383684.319110907199	7910.741458161
0	5410	384051.379937558158	3476.901706805
0	5421	384374.268419150787	4567.258977519
0	5452	385266.124401529949	3914.4233761282
0	5488	386405.975853323566	5595.7743566324
0	5493	386660.501149498767	5885.25632698
0	5498	386925.565979384951	4797.574521652
0	5506	387197.935154025003	5631.0945138322
0	5511	387507.597182459912	5145.4558958899
0	5517	387776.206082830932	5341.7437516959
0	5525	388031.614040897327	5312.5916703031
0	5539	388370.953184776862	4145.1081550637
0	5544	388678.429836457027	4345.561516866
0	5550	388997.638671442367	3788.9803409142
0	5555	389316.487593776427	3883.6177223056
0	5606	392454.211842995193	6767.012995711
0	5623	393837.192839111585	4072.6478100897
0	5631	394427.899577441272	4622.2549950895
0	5640	395039.65785900317	3454.2004513485
0	5648	395471.325457596026	4312.5647923156
0	5657	396001.178049109333	4266.3840261596
0	5687	399780.349371988172	6577.8136931687
0	5733	401854.307597915455	4858.8418475859
0	5756	403089.860268090775	4732.0344697567
0	5773	403669.598492147196	4032.1643182058
0	5789	404243.245598977353	4258.6514551175
0	5806	404830.320516644088	4341.7538292002
0	5828	405733.737693266454	4778.8236567427
0	5836	406015.676148460036	4879.6204071428
0	5844	406325.05479091093	4098.3322067728
0	5858	406840.096162977393	3840.3032631669
0	5869	407562.924287372729	3963.6913850058
0	5877	407889.971619512733	3923.9591217369
0	5883	408218.762806282344	3484.8042482874
0	5916	409937.639693432253	4930.9600317697
0	5942	411872.626839136046	5694.670462098
0	5956	412309.305893545973	3932.8782408712
0	5967	412916.375227588733	3915.5802083604
0	5979	414015.651162215906	4686.3759403818
0	5984	414321.370062288897	3829.4705324425
0	6015	415791.231072224577	4695.8815022323
0	6054	418232.615176860057	5927.1680717913
0	6065	418531.510859331184	3672.7840365562
0	6076	419127.608585409838	4018.7935597351
0	6087	419463.268285681607	3934.4476024909
0	6113	420278.45986009084	4582.2953685942
0	6145	421822.213745107457	4508.2574003667
0	6150	422115.501885549015	4724.3497584554
0	6162	422795.653789372693	4508.7340303601
0	6175	423449.369244733345	3990.9436563452
0	6206	424630.695019502407	4650.6942978727
0	6215	424885.478892985441	4893.4302970834
0	6245	426038.209918488193	5801.6782106643
0	6253	426323.456021193917	6066.7876657465
0	6278	427324.083782241918	4618.3907154447
0	6286	427670.895828166186	3976.7492894045
0	6302	428330.568916428049	4447.777262523
0	6311	428661.610076523546	3610.2993428376
0	6319	428974.29782994419	4122.0387762806
0	6335	429547.252920874753	4206.0588695581
0	6341	429873.081177805282	3694.9838069154
0	6350	430964.346719549424	4305.1015106576
0	6367	432360.770559825563	4815.7356862303
0	6388	435101.706033968676	6287.4175205945
0	6402	435809.795301627936	4034.2465600611
0	6420	438351.879327551379	5966.3052205233
0	6470	441449.273696085194	6498.6827428303
0	6490	442695.310577102902	5420.1810277185
0	6505	443001.820487809764	3899.3169128788
0	6515	443613.12366513974	3465.5808994547
0	6523	443884.95694617756	4352.5637917429
0	6529	444188.772104994473	3896.9526748065
0	6545	444880.663189846127	4384.5149919336
0	6570	446295.638414743959	4657.428804371
0	6595	447577.587818700596	4848.4036136881
0	6615	448301.570697743745	4011.7693942307
0	6620	448611.822678691344	3715.268409187
0	6629	449426.319899274803	3996.5895905623
0	6637	449690.813653699059	3296.782817767
0	6655	451261.357276665693	4672.7792082777
0	6681	453911.264109285595	6200.5591123651
0	6712	455825.595770543793	5266.9217417201
0	6723	456412.343929834113	4449.003089508
0	6740	457513.50553053218	4968.3401661476
0	6749	458659.235005855834	4254.3396758489
0	6757	459517.533083476863	4378.1490532977
0	6769	459914.934275818296	4277.6712804497
0	6803	463157.072497289817	3425.7610258616
0	6809	463458.038832678485	6758.2542462595
0	6817	463905.053971803743	3957.8707224736
0	6871	472862.836195623609	3209.3533929604
0	6884	473506.692281768582	12805.057781867
0	6892	473795.665813327934	3147.8809094229
0	6898	474087.771720187904	4266.7604590723
0	6923	476201.217177909973	5377.788448004
0	6941	478096.798639054156	5338.6877670995
0	6950	479011.537481413394	4637.5990672503
0	6959	480086.74301639692	4455.1992671781
0	7003	484990.425092584612	8579.8358355002
0	7011	485495.547187496029	3744.5952084895
0	7020	486297.607726583402	4077.9362275674
0	7053	487854.986380737513	4964.5062035165
0	7071	489723.259410038059	5638.2476148392
0	7107	490995.947599928323	4257.3531030748
0	7112	491314.134668648315	4573.1923543086
0	7120	491845.06765256844	4717.370341084
0	7152	493432.028187491008	4782.2572349556
0	7157	493723.727622028796	3958.7614621866
0	7162	494034.08263433578	4194.7745583421
0	7188	495853.039839206957	5940.996962841
0	7196	496246.782527506994	4236.2822748096
0	7208	497576.174471999446	4842.7126552956
0	7216	497897.60558383529	3763.7987983759
0	7256	500645.886974368046	6127.5674044576
0	7267	501478.10553754333	3897.5627636458
0	7281	502118.070807872324	3799.4149852702
0	7290	503548.942245416899	4775.1154708732
0	7299	504523.821191273078	4797.2100504527
0	7368	510265.918652866734	9010.5080103426
0	7376	510655.674291270717	3881.8328570351
0	7388	511398.053052400814	3687.609223781
0	7401	511977.930554662066	4074.8865641018
0	7413	512499.084676111879	3542.0440817543
0	7418	512777.170705045794	4854.2038792541
0	7429	513559.032231534664	4471.7952418546
0	7443	514333.459547051021	4934.5176361783
0	7464	516957.002699805076	5898.3799805357
0	7487	518562.669572969877	5261.1508575735
0	7520	520428.476027206019	5178.1703434245
0	7529	521054.505492855658	4333.9923982583
0	7546	522519.90303224426	4557.4480847164
0	7557	522871.683581889135	3424.5764018157
0	7562	523179.141953368706	4149.6054842628
0	7580	524956.623228817905	5104.2344671772
0	7589	526632.06357219681	4975.6507587834
0	7660	530408.197312586361	6889.7556453774
0	7665	530723.927304387666	3948.2828005472
0	7676	531132.414323103335	4203.9715459024
0	7681	531492.076798555921	4220.0602441369
0	7693	531990.953866221098	4640.7389688884
0	7698	532268.082691558205	3503.6701786274
0	7707	532974.045598039841	4080.8725935857
0	7748	540511.728926118235	10714.807193101
0	7773	541660.98201335172	3964.1174039056
0	7778	541949.026002485372	3636.3805484069
0	7791	543612.45568635883	4942.4094290895
0	7804	544474.365867726565	4183.9656025509
0	7830	546415.032593395723	5550.2260410708
0	7839	548263.284214090033	4748.7037279693
0	7848	548723.793846731824	3614.6303630606
0	7889	552213.061025278422	2936.4066775388
0	7894	552507.381880597464	6787.2221534325
0	7899	552763.564037657362	3899.6087785255
0	7938	556979.045507714824	7457.8544253254
0	7958	558382.178371262297	4432.784671227
0	7980	559572.534728231884	4038.9682931962
0	7994	560609.307588344081	4845.5514511116
0	8014	561765.179458563915	4842.095541081
0	8019	562099.207539077083	3968.4922483521
0	8027	562566.900583331873	4310.6151201303
0	8053	564224.297546168578	4897.6268034029
0	8062	565995.800522609408	5352.2159835992
0	8071	567115.575212076736	4464.8157161365
0	8135	573033.949700212376	3498.9610619583
0	8140	573352.223097429367	9693.2774672166
0	8152	573659.94689877203	4114.5369797193
0	8160	573966.063882386745	3724.6168394173
0	8173	574564.549990959912	4269.7710029429
0	8190	575426.220559326128	3862.5125039821
0	8216	577239.229828236634	4819.3992036108
0	8224	578279.655362782715	4531.3641578049
0	8237	579625.421458635681	4946.6156490217
0	8242	579886.82113258104	4210.9526508854
0	8261	583542.280898976923	7285.2117882952
0	8320	586998.940940095167	6754.7813825906
0	8348	588303.216454873163	4711.0440783931
0	8356	588592.31075771136	3905.0921055243
0	8381	589546.210157851834	4726.040459827
0	8389	589864.513411162159	4108.6402873496
0	8394	590198.198406097515	4369.1172675717
0	8403	590525.577034361815	4303.7131343551
0	8411	591386.604108451093	4253.4276783205
0	8423	591728.221661516905	4020.5532899079
0	8439	592376.314867025548	3793.1332620762
0	8478	594908.394919743231	5955.9650691774
0	8495	595889.68989436188	4183.0438087343
0	8503	596303.338913112002	3958.9720916569
0	8518	597348.66163556918	4190.0555546419
0	8535	597971.926148164626	4251.6925328919
0	8554	598894.260541136026	5167.8319720813
0	8610	601720.521029204273	4489.505370514
0	8615	602021.078325849397	6706.0545970196
0	8620	602351.683521940987	4614.5023330905
0	8632	603367.238245863896	5557.8726220773
0	8644	603691.002223254501	3777.5529155382
0	8649	603990.450155508088	3277.9388422629
0	8657	604264.710125848138	4247.1189437281
0	8662	604494.179011002749	3954.8068950394
0	8700	611308.984919963197	10241.649949172
0	8712	612250.46476812769	3939.2655104801
0	8725	612904.368805821959	3832.6282761696
0	8763	615854.446711351276	6252.2733000886
0	8776	616784.610101830623	4560.445216749
0	8797	618337.010013598574	5005.3118948171
0	8805	618644.124084394453	3781.5883388221
0	8819	619228.899797568495	4330.61161493
0	8828	620690.742818097627	4990.2698277057
0	8837	621801.315015828886	4421.0650190857
0	8875	629395.97152211968	10863.992222039
0	8886	629995.670016044246	4248.8028118157
0	8900	630803.189249683742	3761.7535008127
0	8919	633659.634620549902	6520.9441897498
0	8927	634316.757952998458	4484.4288466206
0	8987	638685.206094247685	7090.8891611118
0	8995	639085.672982879553	3976.1738601169
0	9012	639931.655261211762	4050.0702005674
0	9023	640461.127452634906	4235.2775523696
0	9065	642044.433039778434	5180.2341976217
0	9073	642311.512224607749	4750.6447276195
0	9078	642630.492320985476	4995.9719879471
0	9109	644275.053250778047	3973.2704120546
0	9126	644906.463165020312	5678.8029264239
0	9131	645226.767976078327	4512.0122550907
0	9145	645491.877616212435	4461.5952768792
0	9181	646866.706416286162	5510.8447272497
0	9189	647103.845449729244	4388.2462966363
0	9194	647386.557803992342	4324.0047419815
0	9217	648484.496408904048	4400.418816577
0	9230	649054.22111391338	3747.7582097811
0	9236	649359.892444674649	3917.5182538047
0	9247	649943.795452086169	4491.5967859872
0	9272	651573.776951843925	5625.4510183043
0	9281	651874.750892629855	4005.2586430219
0	9314	653166.396621420944	4829.4486959424
0	9319	653456.842882600951	3801.7705802846
0	9340	655431.806599160216	3590.1708409185
0	9359	656004.313837909319	5813.379865482
0	9373	656602.361424213443	4588.0862385539
0	9378	656924.278139690481	4324.0705025833
0	9412	658828.061385109967	5195.9469918597
0	9445	660068.747376999026	4798.3182708704
0	9456	660689.829294294714	4789.544998864
0	9461	660954.492436881985	3409.6395417507
0	9470	661372.134245452729	3451.5173469692
0	9481	662012.190160457754	3774.2887953662
0	9509	662930.175411583371	4043.5313719295
0	9522	663508.849710905469	4553.1519740093
0	9545	665387.13098658577	6174.857932785
0	9553	665724.824379100725	3960.0326906023
0	9562	666378.637494919958	4211.3334406146
0	9573	666776.495209933504	3857.5736601792
0	9578	667037.360292976198	3778.346413768
0	9622	671209.516838692596	7682.233151243
0	9630	671575.845254931323	3991.0596948635
0	9653	672551.704530515829	4669.5047624906
0	9663	673157.040314995975	4354.5706208372
0	9696	675659.081165555006	3677.6232892875
0	9706	676248.432616695987	6912.6724626248
0	9715	677324.666340543176	4992.1028817462
0	9724	678314.635604377071	4023.3793307133
0	9732	679018.768428378235	4081.1714803751
0	9774	683705.158298678427	3440.6482484622
0	9785	684289.186199484448	8831.3450031664
0	9793	684636.369798325657	4270.6738445063
0	9811	686706.677951263476	5245.3586308267
0	9836	688672.548021261813	5189.7189247564
0	9848	689879.356508915859	4949.6717801573
0	9862	690639.413973062129	3442.5079932193
0	9872	693072.822972180671	5583.5731358537
0	9934	696489.988321108992	6786.0575476318
0	9947	697033.884537778878	3874.1549202316
0	9970	698368.73895810471	4584.0733129185
0	9987	698988.397391952335	4317.867262343
0	10001	699602.786217842948	4338.0062663726
0	10009	699915.338338195732	4487.9166635909
0	10014	700205.78531799916	4293.2790877023
0	10022	700664.263041897226	4278.4817138072
0	10031	701935.252569306977	4212.5612528622
0	10048	702656.807529287836	4289.2693814122
0	10098	705431.215206661542	6553.3243087372
0	10135	707052.927103295708	4969.261089719
0	10154	707670.205469211035	3889.7986686076
0	10179	708524.530057539263	4929.7294208914
0	10187	708866.250971867958	5067.0421340467
0	10192	709187.769806905518	4542.0312429886
0	10204	709474.820744390275	4583.3151395713
0	10209	709814.908382908733	4013.9304986662
0	10217	710090.701998871425	4145.7214187393
0	10226	710400.282202873596	4281.1379470348
0	10247	711219.154694535902	4382.1380683127
0	10255	711543.772859572824	4035.5175528936
0	10277	714016.244895648346	6256.69076664
0	10282	714356.339657068989	4186.8322380799
0	10299	715364.482365920632	4799.3273438359
0	10319	717571.838038232523	5920.6499788883
0	10334	719049.134823219212	4309.8887915498
0	10346	720433.283215075591	5025.7020344649
0	10405	723929.904389579919	6502.8618530029
0	10421	724545.550892398492	4329.0016266864
0	10427	724892.731470528779	4199.8041072177
0	10447	726065.844699127758	4498.5692830882
0	10455	726337.271636168751	3618.8735045636
0	10460	726628.882643159088	3616.2256794946
0	10468	727175.447402505913	3882.9149183731
0	10497	729417.958188940836	5584.3650918251
0	10512	731339.977269008969	5818.2573762061
0	10530	732246.071735019305	3377.2062427813
0	10546	733238.741120721832	5024.5229971732
0	10563	735420.581583801627	6140.4741705292
0	10572	735948.423205641585	3947.8439858294
0	10589	737085.111426810509	5022.7246219285
0	10615	739316.088915113336	5964.8212356069
0	10638	740881.352498278867	4668.3827174562
0	10657	741892.833101935862	4208.5100243968
0	10666	743001.168716337508	4537.6756636209
0	10674	743805.738057693369	3870.2387850987
0	10702	744893.608865758262	4072.1836685345
0	10736	747450.940208287486	6601.8675327455
0	10742	747800.876975848024	3832.659925347
0	10753	748338.90634511462	3541.7993661341
0	10758	748626.867484279619	4484.8821383389
0	10767	749381.773871783953	3983.6485099699
0	10812	755108.696383110189	8642.0697328417
0	10832	756770.471178345953	3392.3657473475
0	10837	757082.273629728072	5642.0977429022
0	10857	758211.904019812584	4140.0955301022
0	10879	759092.683482034959	4550.8294718267
0	10902	760623.952274818133	4813.1267758606
0	10935	761948.520631852427	4354.5375440017
0	10960	762799.612561537832	4902.9248374589
0	10971	763409.360009154406	5168.3809819953
0	10985	764141.693864400785	3803.4030230157
0	11038	765911.651672169371	5307.8996425583
0	11046	766213.993894910559	6394.8926601875
0	11054	766538.179052819386	4676.1298711783
0	11060	766855.829013224495	5742.1187207262
0	11065	767156.088676872241	5070.3311629957
0	11070	767432.275268359317	4663.7343504295
0	11079	768169.801010631919	4262.8975410975
0	11090	768615.697969298389	3759.6639309502
0	11098	768961.473793621479	4641.5997654811
0	11104	769212.894224089307	5070.3518409999
0	11163	773510.991202466237	8366.3078947899
0	11177	773899.638924959155	3582.0082247105
0	11196	774818.130067175722	3989.8096720559
0	11204	775174.045546852892	3782.4728557339
0	11216	775987.046590840359	3984.2601904236
0	11221	776300.970693101528	4537.642577829
0	11230	777166.669895882183	5049.2754044886
0	11238	777550.92827311551	3844.6442344451
0	11278	783212.261543251752	3145.8001367494
0	11283	783550.476989644961	9706.0699487373
0	11292	784467.908934052202	3955.1717701465
0	11359	793251.963712629092	12389.645863609
0	11367	793566.130010161015	3619.2441220667
0	11375	793832.375286073007	3879.0435455207
0	11380	794099.414785730603	3567.8729059408
0	11400	795063.307001179939	4427.1323607832
0	11430	796431.986897889609	5675.3443103781
0	11447	797905.481939318202	5253.6996683013
0	11459	798315.148649689675	3540.9331904391
0	11467	798652.924309260219	4511.9281448996
0	11475	798935.98396180822	3765.7385960162
0	11497	800062.568614126867	4163.8947303992
0	11521	802479.853501977271	3617.8254439103
0	11532	803190.029696911404	5850.2569593381
0	11544	804160.804670975443	4833.2025982279
0	11574	805880.035324694656	5125.1124277328
0	11586	807305.288229708905	4854.7193514756
0	11611	808239.341304625997	4177.5423824026
0	11616	808571.421501922564	4104.2151631364
0	11645	810942.964725325233	6178.6434865594
0	11651	811219.288305544499	4096.2477654723
0	11703	813476.662357325192	5996.083824085
0	11715	813838.136845838913	4359.7974510113
0	11745	815414.334332995019	3619.4865989018
0	11756	815715.833899240861	5369.9585443595
0	11765	816044.636584315041	4164.4173421729
0	11770	816304.359452135512	4338.8557850488
0	11775	816613.731718944341	4683.9247697978
0	11793	817266.280874116004	3715.7720745944
0	11803	817826.092443458607	4951.8075943957
0	11811	818139.075386258246	4354.3864016757
0	11838	821136.442079325003	6657.4987626847
0	11843	821466.595608361822	4223.0372275491
0	11860	822868.0255357675	4835.2731307969
0	11902	825429.762176816851	6253.3100159075
0	11922	826734.007276742265	4541.2516018958
0	11928	827063.483399148529	3552.3064523061
0	11939	827638.392790890206	3963.2965466363
0	11953	828236.143513694169	4245.0414822767
0	11962	829348.305443135086	4848.8615466213
0	11979	830932.879307290958	4733.7441183944
0	11996	832502.924279216841	4971.4454989138
0	12038	835114.690152691382	5747.629359865
0	12050	836163.114656987201	4265.0155174484
0	12056	836426.407774621616	3704.5853900388
0	12075	837067.979571981886	3723.0977450041
0	12080	837342.735365043614	3640.0598251274
0	12098	839803.679002813564	5603.9270039309
0	12123	841178.356179765523	4722.4944608112
0	12160	843397.811369555774	5071.4401141701
0	12182	844310.005175234435	4196.7218821722
0	12202	845038.729622756279	4811.0520584523
0	12210	845320.110456635021	4122.3797894667
0	12215	845625.611328831089	3619.9622798447
0	12228	847215.267844025062	4049.6781039597
0	12233	847519.432630364172	5189.3708424337
0	12241	847830.389233879117	4310.0383621944
0	12260	851741.163190156136	7402.0536247588
0	12290	858937.368072611919	10223.258080891
0	12320	861749.577638694218	5752.6169552527
0	12342	863089.939306873989	4674.0269391827
0	12350	863954.397412632785	4357.6057112936
0	12365	864500.241430172316	3939.6609786271
0	12384	865857.807677404455	4327.5061060839
0	12416	868158.705579226768	5689.1615162832
0	12426	868710.081744973829	4442.5032376487
0	12439	870279.173030637885	5794.5581508233
0	12452	870841.741793279288	3685.4574092601
0	12472	871600.046465267995	4096.4041207362
0	12498	874236.193076830727	4010.0972999961
0	12503	874561.805534922097	6598.3255806644
0	12512	875152.692833118925	4170.4137909419
0	12520	875973.535104931883	4525.5550930381
0	12551	879638.872653128096	7204.6090716232
0	12559	879926.487755517396	3642.0601838976
0	12609	882997.668988386315	6573.5493828767
0	12637	884021.213700973865	3466.4719082192
0	12648	884580.075601710505	4866.2668130254
0	12664	885218.909617227847	4293.5366939006
0	12678	885522.207192656749	3733.3324842406
0	12700	886455.511911095823	4281.8797740561
0	12705	886685.255809257537	3729.3249702042
0	12725	887383.65945463656	4313.1546534729
0	12730	887677.842197107998	3776.0351341931
0	12742	889102.052661621331	4495.0171487366
0	12748	889431.382712522733	4128.8121488561
0	12764	890308.254472532928	4845.567841954
0	12807	893215.933930589038	6388.1162814984
0	12827	894381.982896147999	4677.8452905159
0	12838	894638.408570898391	3671.0564031245
0	12852	895245.676054002536	4077.3296890354
0	12857	895563.893014338585	4335.2039401723
0	12874	897469.677493756674	6178.5404849171
0	12894	898329.848033494687	4524.4003644916
0	12917	900344.928952351269	5766.0695886051
0	12925	901078.628086960022	4255.7539686053
0	12934	901558.652023886301	3805.4933797334
0	12943	902891.036677691642	4660.059443379
0	12987	908284.250043590809	8956.2253072091
0	12996	908947.893144373805	4214.1893684223
0	13007	909302.090666252991	3353.3132958125
0	13012	909587.183868555275	4174.7340571445
0	13048	913698.609975891208	7049.5737321722
0	13076	915586.677366930911	5428.0889167586
0	13090	916132.538410026266	4097.9478416465
0	13098	916650.534156537103	4459.8255119954
0	13135	918727.424286846636	3730.3833227365
0	13143	919056.61410447615	5350.1592790706
0	13172	920844.137303573434	5313.8108051255
0	13177	921116.977316276857	3936.5772454864
0	13182	921454.86557288998	4189.7718913239
0	13191	922626.410935095138	4950.6370122974
0	13203	923495.092315353464	4548.243154282
0	13238	927124.270690413392	6899.4005001136
0	13243	927434.45340715621	4047.5262285232
0	13270	930159.691448701348	5465.4654090617
0	13286	931170.354288071254	3304.4539554576
0	13295	931601.046570499542	5053.1044120604
0	13313	933703.59617502564	5608.0127310537
0	13322	935182.756957626253	4840.9485385321
0	13341	938727.793100168006	6789.7720332374
0	13384	942223.049515424324	6718.0781410666
0	13395	943009.494291525668	4274.5381318946
0	13404	943303.915315882222	4280.2960375186
0	13409	943560.75259930525	3979.9367492441
0	13476	947361.207236075394	7398.804734143
0	13526	948850.768564506764	4343.2075087923
0	13531	949145.280282474478	4621.4789691445
0	13543	949481.49858651819	4533.1740328054
0	13556	950048.039275553548	5098.4997933335
0	13561	950356.525435981018	4908.4414786104
1	919	62286.077207630186	123.29960880255
1	928	62661.135109983548	0
1	937	64132.66984236341	0
1	954	65523.872619012827	0
1	965	65834.144518782226	270.7171400267
1	979	66386.170736392652	11.213809392502
1	987	66927.572292708928	0
1	998	67198.388101310185	170.1869374076
1	1007	67531.390191999994	364.19300966313
1	1015	67810.331345890229	265.31355103921
1	1045	68920.838797847563	28.197156784995
1	1070	70360.450839491757	0
1	1112	72223.963481937107	59.981250052287
1	1120	72836.039381701046	0
1	1137	73575.769139543556	154.35688107129
1	1172	77738.590265898824	0
1	1181	78996.125020909079	0
1	1190	79273.403828978128	209.7896171476
1	1208	82114.25543332969	0
1	1222	82389.740305542212	50.768787436686
1	1230	82689.755839762431	195.97971859972
1	1249	83541.794312966932	117.8840188355
1	1257	83891.789667669739	0
1	1310	88895.533643714767	0
1	1318	89142.703676155732	17.729595151065
1	1336	92202.689847639248	29.611480905164
1	1353	93462.874595140207	0
1	1362	94560.076751904387	0
1	1374	94863.089356812229	158.70397424957
1	1387	95654.931132494961	0
1	1396	96218.35419254668	0
1	1447	100482.884435361349	0
1	1466	103501.682239299603	0
1	1474	103808.178475233529	108.992438625
1	1484	105615.729869325	0
1	1492	106027.329385306107	0
1	1536	111115.037038503177	0
1	1545	112032.39301864114	0
1	1555	114116.007100656089	0
1	1566	114443.193592449976	259.52253232679
1	1603	117422.462541992713	212.32913678089
1	1609	117745.474785413174	414.65828050094
1	1622	118287.933590855655	232.35632945725
1	1657	122356.764986102142	0
1	1669	122646.690952479422	131.79054542077
1	1674	122960.231150421901	361.25489026593
1	1684	125490.749855829746	0
1	1698	125763.496746684553	94.043872892624
1	1725	127036.713125630397	0
1	1734	127591.576217903604	0
1	1751	128669.930500964777	108.21874981051
1	1767	129379.377303597494	0
1	1776	129783.292400271642	0
1	1827	133879.3840107389	0
1	1835	134240.326868995233	108.39630806835
1	1844	134580.722947201745	137.23964064961
1	1853	136264.563451790274	0
1	1864	136532.018680067506	210.28598385328
1	1886	137482.589254759329	31.741138673273
1	1894	137826.531189391776	121.82181804106
1	1903	138146.00375930937	71.33420693055
1	1919	138890.664835344941	0
1	1970	141657.680886799347	0
1	1986	142757.884929808095	0
1	2005	145995.895937810372	0
1	2022	147102.756317157825	0
1	2031	147921.991668558452	0
1	2057	150863.142616441253	95.269974390424
1	2074	151650.465484857822	0
1	2102	156078.414199299485	0
1	2111	157452.568467939685	0
1	2137	160692.06021768311	129.6116362593
1	2146	161186.712478919811	0
1	2154	161568.484001093219	0
1	2164	163238.607861727432	0
1	2186	163860.885621465291	219.46267543905
1	2194	164172.65247518158	353.64410495016
1	2203	164480.11917087172	640.97726417893
1	2216	165096.919511906177	189.09491959667
1	2230	166157.955705872811	0
1	2280	168220.441431874119	0
1	2297	169992.397157801552	0
1	2305	170302.215522908456	0
1	2322	171549.893109344548	214.62707288803
1	2331	171885.042390306805	0
1	2339	172250.380159955714	0
1	2365	174197.869578211058	0
1	2390	175269.537675076491	76.265821400239
1	2406	176267.622642611739	0
1	2433	179153.436775172465	175.88795382634
1	2449	179784.460995621333	257.86999916624
1	2458	180097.647389860936	93.265193432405
1	2475	182216.326463873815	0
1	2502	185214.753831079739	0
1	2529	188837.729399545977	0
1	2537	189274.063260552853	0
1	2547	191098.528497060934	0
1	2555	191411.755340182611	66.033422620522
1	2583	192297.405080989568	57.252724745208
1	2588	192579.995543294592	331.52821492393
1	2597	193960.517023541973	0
1	2608	194309.332814919711	239.23943230643
1	2620	194569.55780619046	245.88266683486
1	2625	194805.575730041546	259.41792847105
1	2658	196022.353413120732	267.39757900719
1	2666	196297.44728240641	102.52566885135
1	2696	197528.315371345892	22.827462561881
1	2710	197823.229678274751	284.54834890451
1	2729	198715.92403576602	88.469409117757
1	2746	199377.13010391484	137.57861460424
1	2771	200522.85282832563	186.43925967595
1	2790	201143.361105928298	119.33777491933
1	2795	201460.498324245411	411.28801960284
1	2848	207132.118995926313	0
1	2867	210971.852728680876	0
1	2877	212568.90143608512	0
1	2894	214078.580864473325	100.17864939272
1	2902	214447.739441521024	0
1	2910	214739.29233739168	291.47906942875
1	2927	215625.79527990307	172.91475716204
1	2936	216107.17600367054	0
1	2970	218540.756623289505	0
1	2995	220331.838150727112	0
1	3003	220623.900925950005	221.41406586534
1	3012	221211.509127004031	0
1	3023	221535.837469148274	244.75787636054
1	3037	222137.28431684414	104.00839327831
1	3090	229081.746639582899	0
1	3099	230309.94541572257	0
1	3108	231296.993089877349	0
1	3126	233455.174229859645	0
1	3146	234110.617826179283	188.49695451549
1	3160	235857.886393178297	0
1	3177	237049.118198820359	0
1	3212	240458.355880087912	0
1	3220	240743.611989374667	32.726135227739
1	3229	241837.09140749258	0
1	3237	242157.129699548122	306.16279222182
1	3246	242684.442134783598	0
1	3271	244235.615278874247	309.48025265352
1	3279	244673.890257261147	0
1	3291	244967.127321793736	183.48776284768
1	3299	245252.200798598674	262.60781596282
1	3316	245539.715774966137	285.41261434307
1	3324	245829.30171556198	479.68205449029
1	3330	246074.355760172974	578.09711121411
1	3343	246701.696634579607	69.537503856152
1	3357	247314.167116574794	302.22078651123
1	3365	247604.258305643847	122.48796789047
1	3376	247870.688738431401	222.0665717813
1	3407	248677.079832578552	176.408008031
1	3437	249786.852005060781	178.08061245125
1	3448	250108.452197545582	165.75448340333
1	3459	250384.886961819969	43.261443251543
1	3479	250941.220694605377	99.875037081827
1	3495	251599.749732321348	89.76616910191
1	3539	253314.053041581921	135.79540958067
1	3552	253863.658897446989	105.63354119737
1	3585	254979.19788557749	81.781716687808
1	3590	255292.865979753885	393.78467706921
1	3599	255618.305542261734	75.800559409211
1	3615	256313.53978155211	333.15429540933
1	3651	258108.182105567209	160.39652895231
1	3684	259313.861028368299	162.61293090589
1	3692	259931.358603491562	0
1	3718	262465.74062845519	129.40700983136
1	3736	265047.44408209986	0
1	3753	266253.499902783187	0
1	3762	267289.866694234869	0
1	3770	267521.196191784258	86.612699482644
1	3779	267789.495857271843	2.261843748885
1	3795	268725.86430765602	0
1	3812	269478.923486054975	0
1	3845	271139.700416631438	92.557742269176
1	3854	271581.364646046003	0
1	3862	271863.115055449071	234.35060849596
1	3890	272894.027249580463	306.45802600724
1	3895	273197.379336005572	310.5688327918
1	3946	276860.915051933376	0
1	3955	277287.139206181011	0
1	3963	277856.698367163611	0
1	3972	279532.476279487047	0
1	3997	280516.104213961661	225.84348631834
1	4023	282839.030842402883	124.22877686603
1	4040	283686.583885630503	80.957800971173
1	4048	284049.907527179749	0
1	4056	284362.746562482771	118.43444351671
1	4074	286583.324322669021	0
1	4107	287797.05237111772	81.507150237613
1	4116	288308.155091349668	0
1	4124	288652.404643633494	234.84870787694
1	4133	289668.741075655706	0
1	4149	290267.295918037138	0
1	4166	291145.219202428324	181.71788115112
1	4211	293869.1258512571	87.230248998224
1	4226	295884.048032340106	0
1	4234	296318.810302691673	0
1	4251	297080.88589085562	114.78243269547
1	4286	300409.569301677144	83.857944220234
1	4296	302680.6453719681	0
1	4313	304571.32902019232	0
1	4331	306123.324433738407	101.45191444871
1	4348	308398.188213591918	0
1	4357	308724.823957410889	244.70209322044
1	4374	309641.652713996568	0
1	4410	315316.678958975552	0
1	4419	315617.336033194338	156.29089136893
1	4428	316852.281094428895	0
1	4436	317441.273837800537	0
1	4456	318455.765660632045	0.390955014381
1	4470	319637.983807643109	0
1	4487	320433.878945542461	0
1	4503	321160.773194548627	0
1	4547	326139.388801285817	0
1	4556	327460.09721995578	0
1	4565	328476.612988768942	0
1	4582	329821.957897033312	0
1	4608	331667.615447613862	0
1	4616	331952.601862857535	110.17753719222
1	4634	333728.715654105938	0
1	4642	334071.544860283642	10.348127190818
1	4659	334811.534000026744	73.936362240798
1	4673	335120.581848699198	126.84708033483
1	4681	335444.6445737461	435.50270403347
1	4689	335715.778470706476	361.15730197894
1	4694	335979.597551645712	354.03872273733
1	4733	338175.051872009773	73.959476983695
1	4775	339974.121555862406	0
1	4792	341656.942730981401	221.81531818063
1	4800	341987.289699041244	13.228320512102
1	4809	343137.64699652438	0
1	4844	345626.950709279844	0
1	4861	347022.517223625742	0
1	4870	348069.831803739997	0
1	4886	349172.890930852109	73.130338465921
1	4895	349464.861178161834	260.17818495465
1	4911	350332.779009257618	0
1	4928	351433.598739430378	0
1	4937	351757.028979424556	60.033713625855
1	4962	353826.928540222369	0
1	4995	355073.816819316206	262.68669211648
1	5013	357330.488184469501	0
1	5022	357657.899428405754	82.913727375846
1	5039	358801.75027481295	0
1	5065	361966.071045846329	0
1	5076	362281.883401777376	288.57196910382
1	5091	364118.163760649542	0
1	5126	367494.883837930715	253.14916433939
1	5134	367798.407973514589	247.71037490928
1	5145	368105.858185836486	189.61683516471
1	5151	368495.187978807889	550.06340226706
1	5159	368797.957230158405	209.47566050172
1	5167	369242.975334422307	0
1	5216	372172.729503757317	30.516601900807
1	5224	372486.391096070911	63.066681760537
1	5243	373340.186395212711	31.769244447532
1	5261	375700.479592697444	113.02587903347
1	5272	375984.095461255584	210.51780850943
1	5312	379807.009441631813	0
1	5321	380574.478230753131	0
1	5332	380901.289507991886	126.04468547311
1	5337	381236.346443493663	426.14494680254
1	5345	381507.389742831761	155.68871743005
1	5354	381809.688594988719	242.84795479595
1	5362	382127.991457732937	0
1	5373	382492.255875101386	130.1145885314
1	5384	382779.507090065023	345.04475893003
1	5390	383095.506674273495	376.48430367929
1	5423	384374.268419150787	148.42338943765
1	5437	384671.261394056271	338.39307446522
1	5454	385266.124401529949	57.466071001798
1	5465	385535.100874305111	102.23100283433
1	5473	385841.308849565748	154.11000228156
1	5560	389764.545029021847	0
1	5569	390006.627991063025	200.98340871127
1	5577	391158.76066528047	0
1	5586	391585.457407654621	0
1	5594	391868.614090860748	133.82006791106
1	5611	393202.53567881949	0
1	5662	396995.465750329554	0
1	5671	398357.825798334069	0
1	5689	399780.349371988172	142.91519804679
1	5697	400072.285536537103	87.691392677225
1	5705	400488.566687443861	0
1	5714	400954.91403652379	0
1	5722	401236.516520100359	100.46077878309
1	5739	402226.722584138089	0
1	5758	403089.860268090775	90.06736828025
1	5775	403669.598492147196	70.3655897803
1	5791	404243.245598977353	277.2331012015
1	5808	404830.320516644088	96.36195864915
1	5816	405149.859130284268	143.17946862176
1	5846	406325.05479091093	147.09841387288
1	5888	408376.427652674797	0
1	5896	409000.795019228305	0
1	5905	409329.275221834116	0
1	5922	410491.899529846436	0
1	5930	411095.349569992314	0
1	5958	412309.305893545973	3.858788477192
1	5989	414858.726822774992	0
1	5997	415194.658762293455	85.843736618749
1	6017	415791.231072224577	262.41038903388
1	6022	416091.184929082192	395.02043758559
1	6031	417313.95634474078	0
1	6040	417606.985431352288	215.83330425872
1	6067	418531.510859331184	244.59110031857
1	6089	419463.268285681607	4.842697293467
1	6115	420278.45986009084	298.45913846112
1	6123	420592.022396946102	599.97380104409
1	6128	420860.354672679082	623.82296485515
1	6133	421198.567751326316	941.89939587893
1	6164	422795.653789372693	89.960722575476
1	6181	423694.1465387617	0
1	6192	423993.974011849744	111.18235794468
1	6217	424885.478892985441	33.219839321802
1	6225	425146.431146495948	95.120412809991
1	6233	425443.305126348858	102.11107503223
1	6255	426323.456021193917	145.358650304
1	6263	426731.113275400678	71.868066508821
1	6288	427670.895828166186	125.86095457093
1	6321	428974.29782994419	160.00931657001
1	6355	431775.548741566862	0
1	6372	432385.574107028052	0
1	6390	435101.706033968676	151.11508071375
1	6408	437275.129549384432	0
1	6425	439102.503574931012	0
1	6434	439532.393154434631	0
1	6442	440147.542765685027	0
1	6454	440475.363899489025	183.54446930108
1	6462	440826.484138463477	330.3359405509
1	6476	441638.209610372943	0
1	6507	443001.820487809764	272.63628279727
1	6534	444289.801303513031	0
1	6550	444896.55426950433	0
1	6559	445429.730308712521	0
1	6575	446394.030835932016	0
1	6584	446700.424719495664	111.84665110765
1	6601	447710.704996920505	0
1	6643	450558.674028823643	0
1	6660	451963.340840326121	0
1	6669	452545.165364384622	0
1	6686	454404.895330006922	0
1	6695	455139.38403017913	0
1	6714	455825.595770543793	188.33277517518
1	6728	456699.78458641902	0
1	6771	459914.934275818296	183.62280439007
1	6779	460208.370856506458	261.18760717628
1	6787	460701.634499901723	0
1	6827	469653.482802663245	0
1	6835	469967.466812070076	146.45555095444
1	6844	470647.784903905068	0
1	6852	470925.094695687198	101.66596578125
1	6873	472862.836195623609	104.725323669
1	6903	474373.938414163133	0
1	6912	475631.543749218852	0
1	6929	476410.589257084402	0
1	6965	481750.951979006576	0
1	6973	482219.671499016031	0
1	6982	482890.480177221012	0
1	6991	484085.011795198882	0
1	7025	486738.594496853536	0
1	7033	486954.643251762169	213.7009374225
1	7042	487265.701220808486	138.00390932402
1	7059	488649.770952535376	0
1	7076	489764.966159842243	0
1	7090	490087.336051968886	248.02797597516
1	7095	490368.005141134888	455.96226476892
1	7126	492010.500252697407	0
1	7134	492733.461816703798	0
1	7167	494133.806785459373	0
1	7176	494518.319569910403	0
1	7218	497897.60558383529	317.06280993778
1	7227	498318.655822602169	0
1	7235	498773.826774543701	0
1	7244	499726.611140820406	0
1	7269	501478.10553754333	222.69489501916
1	7306	506773.841434235619	0
1	7315	507710.44382861982	0
1	7326	508085.792676424891	182.74868586466
1	7331	508369.540821711589	446.57399591992
1	7340	508957.040594357594	0
1	7348	509259.527159526032	172.290169846
1	7356	509578.1505993444	179.20868847168
1	7390	511398.053052400814	339.43033313143
1	7431	513559.032231534664	257.51351613828
1	7449	515250.305683781491	0
1	7466	516957.002699805076	236.48960520774
1	7475	517962.454947527906	0
1	7492	519029.536469105881	0
1	7500	519447.107180073466	0
1	7509	519852.388761640706	0
1	7534	521656.412813413459	0
1	7568	523518.441667209006	0
1	7594	526775.644503840426	0
1	7603	527084.599894145859	156.15711694494
1	7614	527392.6548728289	120.63831840988
1	7619	527679.710375864894	329.49547853224
1	7628	528764.412512930771	0
1	7636	529033.240536489936	140.06753203575
1	7645	529796.921733017509	0
1	7716	537696.864609446151	0
1	7724	538312.645454078471	0
1	7732	538670.046257269345	0
1	7750	540511.728926118235	221.32866094261
1	7758	540864.8065523249	0
1	7793	543612.45568635883	97.875200238088
1	7810	545109.16348367121	0
1	7818	545720.15972716497	0
1	7853	548863.955259131871	0
1	7861	549276.654347739646	0
1	7869	549584.855128774589	63.664046385145
1	7905	553949.393700035281	0
1	7914	555533.566435035711	0
1	7923	555831.355622813922	67.59948558144
1	7940	556979.045507714824	55.961590231872
1	7960	558382.178371262297	251.46308053732
1	7965	558670.621705138157	414.33624193659
1	7982	559572.534728231884	245.86398546622
1	7999	560643.584539010215	0
1	8032	562650.759495940245	0
1	8041	563658.945630212787	0
1	8078	569534.988638254029	0
1	8086	569811.199902311167	265.78998325841
1	8095	570241.447042969483	0
1	8103	570574.262960175623	279.48397215866
1	8112	571563.708055343983	0
1	8121	572419.830624625814	0
1	8162	573966.063882386745	217.77267740898
1	8178	574678.805809613938	0
1	8195	575675.868481695654	0
1	8204	576257.069110681725	0
1	8247	580244.15955750456	0
1	8266	583592.172376480043	0
1	8275	584687.218652187041	0
1	8283	584943.203842119933	123.03414409507
1	8292	585755.873123812527	0
1	8300	586056.600231562836	227.51909303704
1	8308	586382.187809042377	160.32390903569
1	8325	587133.176430130627	0
1	8333	587707.668371608991	0
1	8358	588592.31075771136	9.129152762022
1	8366	588952.429850565861	0
1	8425	591728.221661516905	21.575575889309
1	8441	592376.314867025548	31.948045570481
1	8450	593158.60608092725	0
1	8458	593720.233615272721	0
1	8467	594086.222658744705	359.79408968994
1	8484	595315.023728829846	0
1	8520	597348.66163556918	117.64597687892
1	8537	597971.926148164626	234.74495931419
1	8545	598285.615284580207	476.24966079366
1	8559	599913.44930771627	0
1	8568	600251.644336979072	234.053154859
1	8576	600568.786847657999	29.414731694676
1	8590	600869.0986689589	156.58735571376
1	8601	601150.917223194425	83.582252403067
1	8670	608311.199257647596	0
1	8679	609071.740529652364	0
1	8688	609602.17341126263	0
1	8714	612250.46476812769	26.299883046048
1	8731	613331.69811878148	0
1	8740	614862.535745572364	0
1	8748	615158.329871059318	260.04168842079
1	8765	615854.446711351276	153.97372095939
1	8782	617380.249996743182	0
1	8807	618644.124084394453	112.14478431418
1	8845	625746.867204228539	0
1	8854	627041.435748871057	0
1	8862	627360.52242604823	221.83199524814
1	8888	629995.670016044246	163.34090966634
1	8906	631594.316933135873	0
1	8933	635109.499122762634	0
1	8941	635881.585060644408	0
1	8950	636225.849900265278	0
1	8958	636864.198842156778	0
1	8967	637560.867496988263	0
1	8975	637867.670208744873	233.14987570654
1	9000	639227.660238596389	0
1	9025	640461.127452634906	159.34461391146
1	9037	640800.626804056286	85.871083068648
1	9045	641091.417508131911	61.135168798714
1	9056	641384.914614160426	29.052925124006
1	9083	642715.599153092897	0
1	9091	643062.553062010872	0
1	9111	644275.053250778047	190.97565845095
1	9147	645491.877616212435	185.41471208016
1	9153	645726.69803680903	284.32384593906
1	9164	645970.348695570219	518.15002947121
1	9172	646270.265386901456	321.93945336183
1	9199	647869.492249607915	0
1	9219	648484.496408904048	147.54848342547
1	9249	649943.795452086169	288.72314976983
1	9257	650293.069543232135	102.13557080477
1	9283	651874.750892629855	33.115134388169
1	9291	652222.190185874061	207.91500021447
1	9299	652600.207637107189	0
1	9324	653632.114393250239	0
1	9342	655431.806599160216	161.37749303159
1	9361	656004.313837909319	104.02954247859
1	9383	657544.852895131253	0
1	9392	657920.616898483573	0
1	9400	658237.901365091511	0
1	9417	658886.644039653876	0
1	9428	659122.81323578296	167.11549888679
1	9436	659440.251595458723	227.97854165796
1	9483	662012.190160457754	247.39847195938
1	9494	662347.868727791759	180.56467348644
1	9511	662930.175411583371	11.253861829042
1	9524	663508.849710905469	249.83583169728
1	9533	663781.911512365137	254.62782491556
1	9584	667584.785560067828	0
1	9592	667882.19976802521	0
1	9601	668802.469694158825	0
1	9609	669335.76015407115	0
1	9635	671981.457876267488	0
1	9655	672551.704530515829	219.14107171881
1	9669	674291.256273663808	0
1	9678	674937.596948003177	0
1	9698	675659.081165555006	201.23996923696
1	9738	680264.510050216177	0
1	9747	680567.861483800637	202.1655299813
1	9755	681461.319320436785	0
1	9776	683705.158298678427	222.32920217302
1	9798	684929.684728758569	0
1	9816	687196.905979842868	0
1	9824	687489.249836326987	0
1	9850	689879.356508915859	175.42573543865
1	9877	693159.729617547239	0
1	9886	693784.665645186229	0
1	9894	694670.530129609379	0
1	9903	695264.77995147034	0
1	9911	695558.204270717946	130.78259611309
1	9919	695912.506230296832	0
1	9936	696489.988321108992	104.206993019
1	9953	697722.691316444789	0
1	9972	698368.73895810471	1.200810229069
1	9989	698988.397391952335	110.506494028
1	10037	702083.666013576722	0
1	10054	703594.800636647892	0
1	10065	703868.710311993311	88.303511389834
1	10070	704167.705479004893	368.49664118366
1	10079	704645.738563916947	0
1	10087	704891.505604818999	0
1	10104	705800.977884242548	0
1	10115	706123.095877696514	178.11529756442
1	10123	706404.604247670058	285.45999183129
1	10137	707052.927103295708	215.91047707253
1	10156	707670.205469211035	161.9501625318
1	10167	707967.067573345951	207.51344433762
1	10228	710400.282202873596	230.77478388446
1	10236	710688.00506531478	122.85004323006
1	10261	711651.188059344271	0
1	10287	714739.246031669371	0
1	10304	715407.581180610698	0
1	10321	717571.838038232523	144.79550165546
1	10348	720433.283215075591	216.73394936347
1	10356	720700.581789836189	7.654426525111
1	10365	721567.275416039557	0
1	10374	722718.398131605165	0
1	10385	723021.09319816703	8.436234502517
1	10393	723382.435221800352	89.902737667555
1	10407	723929.904389579919	96.311292464136
1	10432	725521.719892802849	0
1	10474	728214.218123548604	0
1	10483	728868.865492237957	0
1	10499	729417.958188940836	137.8507756684
1	10532	732246.071735019305	245.49251520711
1	10537	732602.212628169581	539.82582328761
1	10551	733351.267679506412	0
1	10577	736212.969780822696	0
1	10594	737684.323077539058	0
1	10603	738463.493052716621	0
1	10620	739935.499272594673	0
1	10640	740881.352498278867	59.927301055074
1	10645	741181.040364434327	331.96768889236
1	10679	743968.217050501037	0
1	10691	744279.952763295559	137.9674173548
1	10704	744893.608865758262	96.501886777742
1	10713	745398.125361814046	0
1	10722	746466.62665026846	0
1	10774	751440.17588682587	0
1	10783	753378.105430998441	0
1	10792	754071.808489710406	0
1	10800	754541.854010208243	0
1	10817	755810.825498957549	0
1	10843	757593.98308785068	0
1	10859	758211.904019812584	315.21629573366
1	10868	758527.584982060963	286.60595490185
1	10885	759819.101234723099	0
1	10904	760623.952274818133	285.66143343302
1	10910	760978.268314936069	374.51628532504
1	10921	761290.155234128763	176.44494163046
1	10937	761948.520631852427	86.471450211385
1	10946	762274.228016970384	188.47050309388
1	10962	762799.612561537832	31.071643608008
1	10987	764141.693864400785	234.79039486638
1	11002	764496.776816470225	354.23443338085
1	11007	764806.775018457854	486.90099031744
1	11021	765104.682925187481	248.64888683929
1	11029	765388.17717617822	243.4938685019
1	11109	770317.630700248616	0
1	11118	770828.320395119826	0
1	11126	771391.572691119023	0
1	11135	771763.328115272494	0
1	11143	772064.569999626478	61.783599209748
1	11151	772325.553111001223	208.15861960765
1	11179	773899.638924959155	193.35488628879
1	11185	774193.2240507474	348.81700983973
1	11246	780066.461406502369	0
1	11254	780512.737163905689	0
1	11262	780862.317849020397	0
1	11302	789946.885888094299	0
1	11310	790270.474362152559	317.1426216003
1	11318	790557.912761441809	26.37088165197
1	11330	790889.178343519141	253.00370312238
1	11335	791165.231003887845	408.58841637631
1	11344	792651.782271016906	0
1	11385	794140.99616436057	0
1	11402	795063.307001179939	289.09154192939
1	11410	795333.969389971118	163.72402417912
1	11419	795898.673883727657	0
1	11436	797339.772737573344	0
1	11477	798935.98396180822	73.95590374129
1	11486	799327.602072747544	0
1	11503	800754.922896961809	0
1	11523	802479.853501977271	29.28462374393
1	11546	804160.804670975443	99.005748752083
1	11554	804495.120006823127	27.913668036945
1	11562	804776.911405296724	12.590166530876
1	11588	807305.288229708905	182.24768963671
1	11603	807626.891143400388	146.31261016015
1	11622	809478.339394827587	0
1	11631	810345.87535488139	0
1	11656	811794.847734093244	0
1	11670	812114.150835024236	233.93159288207
1	11678	812362.446916941781	432.63996779525
1	11684	812632.892191222452	667.38852413575
1	11695	812937.589909169491	63.305060106601
1	11717	813838.136845838913	287.62804631734
1	11722	814101.749166804196	317.06018222169
1	11730	814478.943316640297	0
1	11795	817266.280874116004	22.722493303273
1	11813	818139.075386258246	106.32298128761
1	11822	819176.452160909337	0
1	11849	822192.755674846461	0
1	11866	823511.176946842452	0
1	11874	823781.203489295648	106.10724504171
1	11882	824096.844893700541	105.74286228311
1	11891	824499.443896513799	0
1	11908	826199.135188896584	0
1	11941	827638.392790890206	106.91401058716
1	11967	829367.060792826383	0
1	11985	831898.099139538763	0
1	12001	832721.822384582809	0
1	12010	833344.881826977788	0
1	12018	833702.675539916225	0
1	12027	834199.751998882624	0
1	12061	836455.861718954323	0
1	12086	838326.371255385691	0
1	12104	840113.283293062207	0
1	12112	840447.648379892897	219.97081558894
1	12128	841197.730667168291	0
1	12137	842005.649048986394	0
1	12145	842330.061787930511	0
1	12162	843397.811369555774	232.22162949041
1	12174	843698.92340945007	178.57253776537
1	12187	844339.109565397338	0
1	12247	848714.109991720862	0
1	12269	855996.960683441486	0
1	12279	858415.912367691336	0
1	12296	859596.791701339167	0
1	12305	860560.580451545249	0
1	12322	861749.577638694218	219.27606737363
1	12330	862469.544062943525	0
1	12367	864500.241430172316	232.66292284716
1	12372	864797.912952750092	313.29807293549
1	12390	867156.284384019149	0
1	12398	867503.64234453175	0
1	12418	868158.705579226768	195.22562496906
1	12441	870279.173030637885	53.07725380322
1	12457	870982.279042177071	0
1	12474	871600.046465267995	152.06645337421
1	12483	872434.263581504932	0
1	12526	876284.427571619794	0
1	12534	876563.706854938439	139.58724942886
1	12561	879926.487755517396	212.67896683225
1	12569	880554.741792754708	0
1	12578	880925.372923327243	0
1	12586	881788.874708416129	0
1	12595	882173.632137039728	0
1	12611	882997.668988386315	41.738149332938
1	12620	883284.003370349708	213.49856918605
1	12639	884021.213700973865	119.406638059
1	12653	884607.035512884718	0
1	12680	885522.207192656749	219.63662899014
1	12686	885788.799485062612	326.11285448368
1	12711	886827.817649090659	0
1	12753	889704.137605632121	0
1	12770	890967.352167773846	0
1	12781	891252.757035382778	84.410670415651
1	12789	891559.723243765728	331.03416959948
1	12795	891839.022213488851	547.88520464924
1	12812	893805.447669003127	0
1	12840	894638.408570898391	59.549207152182
1	12863	896822.87411835477	0
1	12880	897753.158644152942	0
1	12896	898329.848033494687	98.870799182035
1	12905	899328.024736381666	0
1	12949	904733.7037759515	0
1	12958	905412.449811410754	0
1	12966	905948.777370440485	0
1	12975	906649.03624371898	0
1	13018	910158.588450172263	0
1	13028	912034.590568379796	0
1	13036	912322.209263708846	131.50061916718
1	13053	913706.454825405572	0
1	13062	914997.04096411012	0
1	13078	915586.677366930911	56.350868483005
1	13104	917180.400070790443	0
1	13112	917468.299474946874	203.20579338078
1	13120	917789.525135668007	113.75121287023
1	13145	919056.61410447615	109.76494340466
1	13154	920224.870190299773	0
1	13205	923495.092315353464	108.16513672044
1	13214	924694.226039639614	0
1	13224	926547.942158439115	0
1	13249	927865.900332613606	0
1	13257	928176.8170420099	81.233598038009
1	13275	930341.808419094139	0
1	13300	931938.021066930642	0
1	13327	935504.971374357715	0
1	13346	938734.956159631108	0
1	13354	939023.619278363582	0
1	13362	939580.815850061123	0
1	13371	939962.402501932409	0
1	13415	944507.561055714491	0
1	13423	944781.411328769918	257.61001543999
1	13434	945065.354360946865	117.02980723404
1	13439	945375.509872970563	425.97039075053
1	13448	945709.197374074892	261.11341670431
1	13456	946553.064004250589	0
1	13465	946871.413108709842	0
1	13481	947380.559942941081	0
1	13489	947697.525990407834	281.67233788066
1	13500	947947.191047787867	200.53990799535
1	13509	948282.431116614819	535.32736956845
1	13545	949481.49858651819	326.4239357135
2	914	62162.777598827638	1
2	919	62286.077207630186	0
2	926	62661.135109983548	1
2	928	62661.135109983548	0
2	935	64132.66984236341	1
2	937	64132.66984236341	0
2	952	65523.872619012827	1
2	954	65523.872619012827	0
2	957	65563.427378755529	1
2	965	65834.144518782226	0
2	974	66374.95692700015	1
2	979	66386.170736392652	0
2	985	66927.572292708928	1
2	987	66927.572292708928	0
2	990	67028.201163902583	1
2	993	67167.197182336863	2
2	998	67198.388101310185	1
2	1007	67531.390191999994	0
2	1010	67545.017794851014	1
2	1015	67810.331345890229	0
2	1040	68892.641641062568	1
2	1045	68920.838797847563	0
2	1068	70360.450839491757	1
2	1070	70360.450839491757	0
2	1107	72163.98223188482	1
2	1112	72223.963481937107	0
2	1118	72836.039381701046	1
2	1120	72836.039381701046	0
2	1132	73421.412258472262	1
2	1137	73575.769139543556	0
2	1170	77738.590265898824	1
2	1172	77738.590265898824	0
2	1179	78996.125020909079	1
2	1181	78996.125020909079	0
2	1184	79063.614211830533	1
2	1190	79273.403828978128	0
2	1206	82114.25543332969	1
2	1208	82114.25543332969	0
2	1217	82338.971518105526	1
2	1222	82389.740305542212	0
2	1225	82493.776121162711	1
2	1230	82689.755839762431	0
2	1244	83423.910294131428	1
2	1249	83541.794312966932	0
2	1255	83891.789667669739	1
2	1257	83891.789667669739	0
2	1308	88895.533643714767	1
2	1310	88895.533643714767	0
2	1313	89124.974081004667	1
2	1318	89142.703676155732	0
2	1331	92173.078366734084	1
2	1336	92202.689847639248	0
2	1351	93462.874595140207	1
2	1353	93462.874595140207	0
2	1360	94560.076751904387	1
2	1362	94560.076751904387	0
2	1365	94704.385382562659	1
2	1374	94863.089356812229	0
2	1385	95654.931132494961	1
2	1387	95654.931132494961	0
2	1394	96218.35419254668	1
2	1396	96218.35419254668	0
2	1445	100482.884435361349	1
2	1447	100482.884435361349	0
2	1464	103501.682239299603	1
2	1466	103501.682239299603	0
2	1469	103699.186036608528	1
2	1474	103808.178475233529	0
2	1482	105615.729869325	1
2	1484	105615.729869325	0
2	1490	106027.329385306107	1
2	1492	106027.329385306107	0
2	1534	111115.037038503177	1
2	1536	111115.037038503177	0
2	1543	112032.39301864114	1
2	1545	112032.39301864114	0
2	1553	114116.007100656089	1
2	1555	114116.007100656089	0
2	1558	114183.671060123186	1
2	1566	114443.193592449976	0
2	1592	117210.133405211822	1
2	1595	117330.816504912237	2
2	1603	117422.462541992713	1
2	1609	117745.474785413174	0
2	1617	118055.577261398405	1
2	1622	118287.933590855655	0
2	1655	122356.764986102142	1
2	1657	122356.764986102142	0
2	1661	122514.900407058656	1
2	1664	122598.97626015597	2
2	1669	122646.690952479422	1
2	1674	122960.231150421901	0
2	1682	125490.749855829746	1
2	1684	125490.749855829746	0
2	1693	125669.452873791929	1
2	1698	125763.496746684553	0
2	1723	127036.713125630397	1
2	1725	127036.713125630397	0
2	1732	127591.576217903604	1
2	1734	127591.576217903604	0
2	1746	128561.711751154268	1
2	1751	128669.930500964777	0
2	1765	129379.377303597494	1
2	1767	129379.377303597494	0
2	1774	129783.292400271642	1
2	1776	129783.292400271642	0
2	1825	133879.3840107389	1
2	1827	133879.3840107389	0
2	1830	134131.930560926881	1
2	1835	134240.326868995233	0
2	1839	134443.483306552131	1
2	1844	134580.722947201745	0
2	1851	136264.563451790274	1
2	1853	136264.563451790274	0
2	1856	136321.73269621423	1
2	1864	136532.018680067506	0
2	1881	137450.848116086056	1
2	1886	137482.589254759329	0
2	1889	137704.709371350716	1
2	1894	137826.531189391776	0
2	1898	138074.66955237882	1
2	1903	138146.00375930937	0
2	1917	138890.664835344941	1
2	1919	138890.664835344941	0
2	1968	141657.680886799347	1
2	1970	141657.680886799347	0
2	1984	142757.884929808095	1
2	1986	142757.884929808095	0
2	2003	145995.895937810372	1
2	2005	145995.895937810372	0
2	2020	147102.756317157825	1
2	2022	147102.756317157825	0
2	2029	147921.991668558452	1
2	2031	147921.991668558452	0
2	2052	150767.872642050829	1
2	2057	150863.142616441253	0
2	2072	151650.465484857822	1
2	2074	151650.465484857822	0
2	2100	156078.414199299485	1
2	2102	156078.414199299485	0
2	2109	157452.568467939685	1
2	2111	157452.568467939685	0
2	2132	160562.448581423814	1
2	2137	160692.06021768311	0
2	2144	161186.712478919811	1
2	2146	161186.712478919811	0
2	2152	161568.484001093219	1
2	2154	161568.484001093219	0
2	2162	163238.607861727432	1
2	2164	163238.607861727432	0
2	2175	163641.422946026243	1
2	2178	163819.008370231418	2
2	2181	163839.14190669279	3
2	2186	163860.885621465291	2
2	2194	164172.65247518158	1
2	2203	164480.11917087172	0
2	2211	164907.824592309506	1
2	2216	165096.919511906177	0
2	2228	166157.955705872811	1
2	2230	166157.955705872811	0
2	2278	168220.441431874119	1
2	2280	168220.441431874119	0
2	2295	169992.397157801552	1
2	2297	169992.397157801552	0
2	2303	170302.215522908456	1
2	2305	170302.215522908456	0
2	2317	171335.266036456521	1
2	2322	171549.893109344548	0
2	2329	171885.042390306805	1
2	2331	171885.042390306805	0
2	2337	172250.380159955714	1
2	2339	172250.380159955714	0
2	2363	174197.869578211058	1
2	2365	174197.869578211058	0
2	2384	175193.271853676252	1
2	2390	175269.537675076491	0
2	2404	176267.622642611739	1
2	2406	176267.622642611739	0
2	2428	178977.548821346124	1
2	2433	179153.436775172465	0
2	2444	179526.59099645509	1
2	2449	179784.460995621333	0
2	2453	180004.382196428531	1
2	2458	180097.647389860936	0
2	2473	182216.326463873815	1
2	2475	182216.326463873815	0
2	2500	185214.753831079739	1
2	2502	185214.753831079739	0
2	2527	188837.729399545977	1
2	2529	188837.729399545977	0
2	2535	189274.063260552853	1
2	2537	189274.063260552853	0
2	2545	191098.528497060934	1
2	2547	191098.528497060934	0
2	2550	191345.721917562089	1
2	2555	191411.755340182611	0
2	2575	192240.15235624436	1
2	2578	192248.467328370661	2
2	2583	192297.405080989568	1
2	2588	192579.995543294592	0
2	2595	193960.517023541973	1
2	2597	193960.517023541973	0
2	2603	194070.093382613282	1
2	2608	194309.332814919711	0
2	2611	194323.675139355597	1
2	2615	194546.157801570501	2
2	2620	194569.55780619046	1
2	2625	194805.575730041546	0
2	2653	195754.955834113546	1
2	2658	196022.353413120732	0
2	2661	196194.921613555061	1
2	2666	196297.44728240641	0
2	2691	197505.487908784011	1
2	2696	197528.315371345892	0
2	2699	197538.68132937024	1
2	2710	197823.229678274751	0
2	2724	198627.454626648263	1
2	2729	198715.92403576602	0
2	2741	199239.551489310596	1
2	2746	199377.13010391484	0
2	2765	200336.413568649675	1
2	2771	200522.85282832563	0
2	2782	201024.023331008964	1
2	2785	201049.210304642569	2
2	2790	201143.361105928298	1
2	2795	201460.498324245411	0
2	2846	207132.118995926313	1
2	2848	207132.118995926313	0
2	2865	210971.852728680876	1
2	2867	210971.852728680876	0
2	2875	212568.90143608512	1
2	2877	212568.90143608512	0
2	2889	213978.402215080603	1
2	2894	214078.580864473325	0
2	2900	214447.739441521024	1
2	2902	214447.739441521024	0
2	2905	214447.813267962931	1
2	2910	214739.29233739168	0
2	2922	215452.880522741027	1
2	2927	215625.79527990307	0
2	2934	216107.17600367054	1
2	2936	216107.17600367054	0
2	2968	218540.756623289505	1
2	2970	218540.756623289505	0
2	2993	220331.838150727112	1
2	2995	220331.838150727112	0
2	2998	220402.486860084669	1
2	3003	220623.900925950005	0
2	3010	221211.509127004031	1
2	3012	221211.509127004031	0
2	3015	221291.079592787729	1
2	3023	221535.837469148274	0
2	3032	222033.275923565833	1
2	3037	222137.28431684414	0
2	3088	229081.746639582899	1
2	3090	229081.746639582899	0
2	3097	230309.94541572257	1
2	3099	230309.94541572257	0
2	3106	231296.993089877349	1
2	3108	231296.993089877349	0
2	3124	233455.174229859645	1
2	3126	233455.174229859645	0
2	3140	233922.120871663791	1
2	3146	234110.617826179283	0
2	3158	235857.886393178297	1
2	3160	235857.886393178297	0
2	3175	237049.118198820359	1
2	3177	237049.118198820359	0
2	3210	240458.355880087912	1
2	3212	240458.355880087912	0
2	3215	240710.885854146928	1
2	3220	240743.611989374667	0
2	3227	241837.09140749258	1
2	3229	241837.09140749258	0
2	3232	241850.966907326303	1
2	3237	242157.129699548122	0
2	3244	242684.442134783598	1
2	3246	242684.442134783598	0
2	3266	243926.135026220727	1
2	3271	244235.615278874247	0
2	3277	244673.890257261147	1
2	3279	244673.890257261147	0
2	3285	244783.63955894606	1
2	3291	244967.127321793736	0
2	3294	244989.592982635852	1
2	3299	245252.200798598674	0
2	3302	245254.303160623063	1
2	3305	245349.619661071694	2
2	3311	245496.258648958863	3
2	3316	245539.715774966137	2
2	3324	245829.30171556198	1
2	3330	246074.355760172974	0
2	3338	246632.159130723455	1
2	3343	246701.696634579607	0
2	3351	247011.946330063567	1
2	3357	247314.167116574794	0
2	3360	247481.77033775338	1
2	3365	247604.258305643847	0
2	3368	247648.622166650105	1
2	3376	247870.688738431401	0
2	3399	248500.67182454755	1
2	3407	248677.079832578552	0
2	3432	249608.771392609534	1
2	3437	249786.852005060781	0
2	3443	249942.697714142255	1
2	3448	250108.452197545582	0
2	3454	250341.625518568426	1
2	3459	250384.886961819969	0
2	3474	250841.34565752355	1
2	3479	250941.220694605377	0
2	3487	251509.983563219438	1
2	3495	251599.749732321348	0
2	3533	253178.257632001254	1
2	3539	253314.053041581921	0
2	3547	253758.025356249615	1
2	3552	253863.658897446989	0
2	3577	254897.416168889682	1
2	3580	254899.081302684678	2
2	3585	254979.19788557749	1
2	3590	255292.865979753885	0
2	3593	255542.504982852523	1
2	3599	255618.305542261734	0
2	3607	255980.385486142783	1
2	3615	256313.53978155211	0
2	3645	257947.785576614897	1
2	3651	258108.182105567209	0
2	3678	259151.248097462414	1
2	3684	259313.861028368299	0
2	3690	259931.358603491562	1
2	3692	259931.358603491562	0
2	3713	262336.333618623831	1
2	3718	262465.74062845519	0
2	3734	265047.44408209986	1
2	3736	265047.44408209986	0
2	3751	266253.499902783187	1
2	3753	266253.499902783187	0
2	3760	267289.866694234869	1
2	3762	267289.866694234869	0
2	3765	267434.583492301614	1
2	3770	267521.196191784258	0
2	3774	267787.234013522958	1
2	3779	267789.495857271843	0
2	3793	268725.86430765602	1
2	3795	268725.86430765602	0
2	3810	269478.923486054975	1
2	3812	269478.923486054975	0
2	3840	271047.142674362262	1
2	3845	271139.700416631438	0
2	3852	271581.364646046003	1
2	3854	271581.364646046003	0
2	3857	271628.764446953115	1
2	3862	271863.115055449071	0
2	3882	272587.569223573225	1
2	3885	272886.810503213775	2
2	3890	272894.027249580463	1
2	3895	273197.379336005572	0
2	3944	276860.915051933376	1
2	3946	276860.915051933376	0
2	3953	277287.139206181011	1
2	3955	277287.139206181011	0
2	3961	277856.698367163611	1
2	3963	277856.698367163611	0
2	3970	279532.476279487047	1
2	3972	279532.476279487047	0
2	3992	280290.260727643317	1
2	3997	280516.104213961661	0
2	4018	282714.802065536853	1
2	4023	282839.030842402883	0
2	4035	283605.62608465933	1
2	4040	283686.583885630503	0
2	4046	284049.907527179749	1
2	4048	284049.907527179749	0
2	4051	284244.312118966057	1
2	4056	284362.746562482771	0
2	4072	286583.324322669021	1
2	4074	286583.324322669021	0
2	4102	287715.545220880107	1
2	4107	287797.05237111772	0
2	4114	288308.155091349668	1
2	4116	288308.155091349668	0
2	4119	288417.555935756549	1
2	4124	288652.404643633494	0
2	4131	289668.741075655706	1
2	4133	289668.741075655706	0
2	4147	290267.295918037138	1
2	4149	290267.295918037138	0
2	4161	290963.501321277202	1
2	4166	291145.219202428324	0
2	4206	293781.895602258876	1
2	4211	293869.1258512571	0
2	4224	295884.048032340106	1
2	4226	295884.048032340106	0
2	4232	296318.810302691673	1
2	4234	296318.810302691673	0
2	4246	296966.103458160153	1
2	4251	297080.88589085562	0
2	4281	300325.71135745691	1
2	4286	300409.569301677144	0
2	4294	302680.6453719681	1
2	4296	302680.6453719681	0
2	4311	304571.32902019232	1
2	4313	304571.32902019232	0
2	4326	306021.872519289694	1
2	4331	306123.324433738407	0
2	4346	308398.188213591918	1
2	4348	308398.188213591918	0
2	4352	308480.121864190452	1
2	4357	308724.823957410889	0
2	4372	309641.652713996568	1
2	4374	309641.652713996568	0
2	4408	315316.678958975552	1
2	4410	315316.678958975552	0
2	4413	315461.04514182541	1
2	4419	315617.336033194338	0
2	4426	316852.281094428895	1
2	4428	316852.281094428895	0
2	4434	317441.273837800537	1
2	4436	317441.273837800537	0
2	4451	318455.374705617664	1
2	4456	318455.765660632045	0
2	4468	319637.983807643109	1
2	4470	319637.983807643109	0
2	4485	320433.878945542461	1
2	4487	320433.878945542461	0
2	4501	321160.773194548627	1
2	4503	321160.773194548627	0
2	4545	326139.388801285817	1
2	4547	326139.388801285817	0
2	4554	327460.09721995578	1
2	4556	327460.09721995578	0
2	4563	328476.612988768942	1
2	4565	328476.612988768942	0
2	4580	329821.957897033312	1
2	4582	329821.957897033312	0
2	4606	331667.615447613862	1
2	4608	331667.615447613862	0
2	4611	331842.424325665313	1
2	4616	331952.601862857535	0
2	4632	333728.715654105938	1
2	4634	333728.715654105938	0
2	4637	334061.196733092824	1
2	4642	334071.544860283642	0
2	4653	334737.597637785946	1
2	4659	334811.534000026744	0
2	4662	334993.734768364364	1
2	4665	335009.141869712628	2
2	4673	335120.581848699198	1
2	4676	335354.62116872754	2
2	4681	335444.6445737461	1
2	4684	335625.558828908386	2
2	4689	335715.778470706476	1
2	4694	335979.597551645712	0
2	4728	338101.092395026078	1
2	4733	338175.051872009773	0
2	4773	339974.121555862406	1
2	4775	339974.121555862406	0
2	4787	341435.12741280077	1
2	4792	341656.942730981401	0
2	4795	341974.061378529142	1
2	4800	341987.289699041244	0
2	4807	343137.64699652438	1
2	4809	343137.64699652438	0
2	4842	345626.950709279844	1
2	4844	345626.950709279844	0
2	4859	347022.517223625742	1
2	4861	347022.517223625742	0
2	4868	348069.831803739997	1
2	4870	348069.831803739997	0
2	4881	349099.760592386188	1
2	4886	349172.890930852109	0
2	4890	349204.682993207182	1
2	4895	349464.861178161834	0
2	4909	350332.779009257618	1
2	4911	350332.779009257618	0
2	4926	351433.598739430378	1
2	4928	351433.598739430378	0
2	4932	351696.995265798701	1
2	4937	351757.028979424556	0
2	4960	353826.928540222369	1
2	4962	353826.928540222369	0
2	4990	354811.130127199722	1
2	4995	355073.816819316206	0
2	5011	357330.488184469501	1
2	5013	357330.488184469501	0
2	5016	357574.985701029908	1
2	5022	357657.899428405754	0
2	5037	358801.75027481295	1
2	5039	358801.75027481295	0
2	5063	361966.071045846329	1
2	5065	361966.071045846329	0
2	5071	361993.311432673555	1
2	5076	362281.883401777376	0
2	5089	364118.163760649542	1
2	5091	364118.163760649542	0
2	5121	367241.734673591328	1
2	5126	367494.883837930715	0
2	5129	367550.697598605311	1
2	5134	367798.407973514589	0
2	5137	367916.241350671773	1
2	5140	367945.124576540828	2
2	5145	368105.858185836486	1
2	5151	368495.187978807889	0
2	5154	368588.481569656687	1
2	5159	368797.957230158405	0
2	5165	369242.975334422307	1
2	5167	369242.975334422307	0
2	5211	372142.21290185651	1
2	5216	372172.729503757317	0
2	5219	372423.324414310374	1
2	5224	372486.391096070911	0
2	5238	373308.417150765179	1
2	5243	373340.186395212711	0
2	5255	375587.453713663971	1
2	5261	375700.479592697444	0
2	5264	375773.577652746153	1
2	5272	375984.095461255584	0
2	5310	379807.009441631813	1
2	5312	379807.009441631813	0
2	5319	380574.478230753131	1
2	5321	380574.478230753131	0
2	5324	380775.244822518773	1
2	5327	380810.201496691128	2
2	5332	380901.289507991886	1
2	5337	381236.346443493663	0
2	5340	381351.701025401712	1
2	5345	381507.389742831761	0
2	5348	381566.840640192768	1
2	5354	381809.688594988719	0
2	5360	382127.991457732937	1
2	5362	382127.991457732937	0
2	5365	382362.141286569988	1
2	5368	382434.462331134994	2
2	5373	382492.255875101386	1
2	5376	382719.022370594207	2
2	5384	382779.507090065023	1
2	5390	383095.506674273495	0
2	5415	384225.845029713141	1
2	5418	384332.868319591048	2
2	5423	384374.268419150787	1
2	5437	384671.261394056271	0
2	5446	385208.658330528151	1
2	5454	385266.124401529949	0
2	5460	385432.869871470782	1
2	5465	385535.100874305111	0
2	5468	385687.198847284189	1
2	5473	385841.308849565748	0
2	5558	389764.545029021847	1
2	5560	389764.545029021847	0
2	5563	389805.644582351758	1
2	5569	390006.627991063025	0
2	5575	391158.76066528047	1
2	5577	391158.76066528047	0
2	5584	391585.457407654621	1
2	5586	391585.457407654621	0
2	5589	391734.794022949692	1
2	5594	391868.614090860748	0
2	5609	393202.53567881949	1
2	5611	393202.53567881949	0
2	5660	396995.465750329554	1
2	5662	396995.465750329554	0
2	5669	398357.825798334069	1
2	5671	398357.825798334069	0
2	5684	399637.434173941387	1
2	5689	399780.349371988172	0
2	5692	399984.594143859878	1
2	5697	400072.285536537103	0
2	5703	400488.566687443861	1
2	5705	400488.566687443861	0
2	5712	400954.91403652379	1
2	5714	400954.91403652379	0
2	5717	401136.055741317274	1
2	5722	401236.516520100359	0
2	5737	402226.722584138089	1
2	5739	402226.722584138089	0
2	5750	402999.792899810525	1
2	5758	403089.860268090775	0
2	5770	403599.232902366896	1
2	5775	403669.598492147196	0
2	5783	403966.012497775858	1
2	5791	404243.245598977353	0
2	5803	404733.958557994938	1
2	5808	404830.320516644088	0
2	5811	405006.679661662508	1
2	5816	405149.859130284268	0
2	5841	406177.956377038051	1
2	5846	406325.05479091093	0
2	5886	408376.427652674797	1
2	5888	408376.427652674797	0
2	5894	409000.795019228305	1
2	5896	409000.795019228305	0
2	5903	409329.275221834116	1
2	5905	409329.275221834116	0
2	5920	410491.899529846436	1
2	5922	410491.899529846436	0
2	5928	411095.349569992314	1
2	5930	411095.349569992314	0
2	5953	412305.447105068781	1
2	5958	412309.305893545973	0
2	5987	414858.726822774992	1
2	5989	414858.726822774992	0
2	5992	415108.815025674706	1
2	5997	415194.658762293455	0
2	6009	415528.820683190693	1
2	6012	415696.164491496599	2
2	6017	415791.231072224577	1
2	6022	416091.184929082192	0
2	6029	417313.95634474078	1
2	6031	417313.95634474078	0
2	6034	417391.152127093567	1
2	6040	417606.985431352288	0
2	6059	418286.919759012611	1
2	6067	418531.510859331184	0
2	6084	419458.42558838814	1
2	6089	419463.268285681607	0
2	6100	419980.000721629718	1
2	6103	419992.048595902013	2
2	6107	420236.531707823933	3
2	6110	420256.668355447384	4
2	6115	420278.45986009084	3
2	6123	420592.022396946102	2
2	6128	420860.354672679082	1
2	6133	421198.567751326316	0
2	6159	422705.693066797217	1
2	6164	422795.653789372693	0
2	6179	423694.1465387617	1
2	6181	423694.1465387617	0
2	6187	423882.791653905062	1
2	6192	423993.974011849744	0
2	6212	424852.259053663639	1
2	6217	424885.478892985441	0
2	6220	425051.310733685957	1
2	6225	425146.431146495948	0
2	6228	425341.194051316633	1
2	6233	425443.305126348858	0
2	6250	426178.097370889913	1
2	6255	426323.456021193917	0
2	6258	426659.245208891857	1
2	6263	426731.113275400678	0
2	6283	427545.034873595257	1
2	6288	427670.895828166186	0
2	6316	428814.288513374177	1
2	6321	428974.29782994419	0
2	6353	431775.548741566862	1
2	6355	431775.548741566862	0
2	6370	432385.574107028052	1
2	6372	432385.574107028052	0
2	6385	434950.590953254924	1
2	6390	435101.706033968676	0
2	6406	437275.129549384432	1
2	6408	437275.129549384432	0
2	6423	439102.503574931012	1
2	6425	439102.503574931012	0
2	6432	439532.393154434631	1
2	6434	439532.393154434631	0
2	6440	440147.542765685027	1
2	6442	440147.542765685027	0
2	6445	440291.819430187945	1
2	6454	440475.363899489025	0
2	6457	440496.148197912575	1
2	6462	440826.484138463477	0
2	6474	441638.209610372943	1
2	6476	441638.209610372943	0
2	6495	442729.184205012492	1
2	6507	443001.820487809764	0
2	6532	444289.801303513031	1
2	6534	444289.801303513031	0
2	6548	444896.55426950433	1
2	6550	444896.55426950433	0
2	6557	445429.730308712521	1
2	6559	445429.730308712521	0
2	6573	446394.030835932016	1
2	6575	446394.030835932016	0
2	6579	446588.57806838801	1
2	6584	446700.424719495664	0
2	6599	447710.704996920505	1
2	6601	447710.704996920505	0
2	6641	450558.674028823643	1
2	6643	450558.674028823643	0
2	6658	451963.340840326121	1
2	6660	451963.340840326121	0
2	6667	452545.165364384622	1
2	6669	452545.165364384622	0
2	6684	454404.895330006922	1
2	6686	454404.895330006922	0
2	6693	455139.38403017913	1
[...]
7	7813	545426.337367925555	2
7	7822	546046.839542819253	3
7	7824	546065.766566761394	2
7	7833	547929.660009888106	1
7	7841	548386.730375596035	0
7	7856	549174.237161709298	1
7	7867	549584.855128774589	2
7	7873	549879.029852813876	3
7	7876	551896.45683578204	2
7	7882	552123.26331170294	1
7	7885	552167.555067637161	0
7	7908	554252.652761007481	1
7	7921	555831.355622813922	2
7	7926	556185.504633723377	3
7	7928	556722.50678629428	2
7	7943	557309.029828530144	3
7	7946	558113.247243484873	2
7	7963	558670.621705138157	3
7	7968	558965.300427567081	4
7	7971	559286.606273734835	3
7	7985	559871.338077893408	4
7	7987	560312.538443903749	3
7	8002	560977.875685664298	4
7	8004	561446.290643117185	3
7	8009	561520.507140318169	2
7	8021	562299.182490106885	1
7	8036	562967.905713886503	2
7	8043	563711.351359628646	1
7	8047	563943.789337443913	2
7	8056	565688.422496603733	1
7	8065	566792.639717434505	0
7	8084	569811.199902311167	1
7	8090	570122.484851390757	2
7	8101	570574.262960175623	3
7	8106	570856.709836854505	4
7	8115	571830.483172884	5
7	8123	572684.276709633187	4
7	8127	572750.033390783192	5
7	8131	572963.221113412421	4
7	8142	573360.955780020866	3
7	8147	573595.522716868699	2
7	8165	574282.881494601685	3
7	8167	574305.158667056615	2
7	8182	575013.789910585545	3
7	8184	575110.270757532472	2
7	8199	576019.755908266273	3
7	8207	576569.606966011687	4
7	8209	576921.645253378943	3
7	8218	578000.053060576682	2
7	8227	579343.107709799213	1
7	8233	579610.54678497401	0
7	8250	580536.39840106117	1
7	8255	583241.004038924736	0
7	8269	583876.623592040553	1
7	8281	584943.203842119933	2
7	8286	585239.337947886951	3
7	8298	586056.600231562836	4
7	8306	586382.187809042377	5
7	8310	586690.290550644409	4
7	8314	586703.180565287898	5
7	8328	587428.258998941991	6
7	8335	587744.380019652887	5
7	8339	587988.378547108717	6
7	8344	588007.767307316261	5
7	8361	588848.243986397861	6
7	8368	589016.82052278868	5
7	8372	589231.566553984291	4
7	8376	589233.904772604764	5
7	8385	589547.366232456116	4
7	8396	590261.280339168999	3
7	8405	591053.018669791995	2
7	8413	591424.332036986461	1
7	8427	591989.281521524891	0
7	8431	592070.685557491671	1
7	8444	592584.434387266961	2
7	8453	593474.054057787566	3
7	8465	594086.222658744705	4
7	8470	594436.944089556248	5
7	8472	594600.467530576465	4
7	8486	595578.669479005308	3
7	8490	595594.532037388914	4
7	8497	595987.930564930632	3
7	8506	596990.503530353629	2
7	8511	597064.733641084543	1
7	8524	597665.15839777502	2
7	8539	598198.046384207957	1
7	8543	598285.615284580207	2
7	8548	598594.820380701436	3
7	8566	600251.644336979072	4
7	8574	600568.786847657999	5
7	8581	600724.178582896589	4
7	8584	600817.865525943426	3
7	8588	600869.0986689589	4
7	8592	600984.776636421051	3
7	8599	601150.917223194425	4
7	8605	601416.488733964778	5
7	8623	603086.310596250509	4
7	8628	603108.713735267062	3
7	8636	603509.98241768678	2
7	8640	603629.786064311541	1
7	8653	604139.609528152542	0
7	8674	608605.711965382521	1
7	8682	609386.926450669572	2
7	8691	609878.201001915255	3
7	8694	610981.294458602351	2
7	8702	611988.875310481124	1
7	8716	612345.8554645158	0
7	8720	612545.48199637367	1
7	8734	613640.860925782888	2
7	8746	615158.329871059318	3
7	8751	615451.308294898828	4
7	8753	615585.88066757169	3
7	8768	616133.571919355343	4
7	8770	616499.265797666715	3
7	8785	617663.117403666371	4
7	8788	618005.143833752546	3
7	8793	618150.665098981807	2
7	8809	618918.8825893088	1
7	8813	618956.787961191155	2
7	8821	620317.846295189414	1
7	8830	621514.233247027197	0
7	8848	626020.660620507548	1
7	8860	627360.52242604823	2
7	8866	627606.997263145093	3
7	8869	629061.160732929881	2
7	8877	629728.183098362406	1
7	8892	630345.553518270874	2
7	8894	630546.183330208121	1
7	8909	631882.358227322573	2
7	8912	633333.979292032339	1
7	8921	634065.098484717325	0
7	8936	635419.547891147957	1
7	8945	636198.485832633089	2
7	8953	636499.348260306267	3
7	8961	637124.7436298513	4
7	8973	637867.670208744873	5
7	8978	638161.988889447657	6
7	8981	638414.437039357715	5
7	8989	638777.980816491086	4
7	9002	639359.819286583324	3
7	9006	639597.656429371405	4
7	9014	640128.151377444778	3
7	9027	640466.149788657878	2
7	9035	640800.626804056286	3
7	9043	641091.417508131911	4
7	9047	641144.805331260547	3
7	9054	641384.914614160426	4
7	9059	641725.079906660197	5
7	9069	642045.461736452264	4
7	9086	642972.995035249043	5
7	9095	643334.683742714313	6
7	9097	644002.938213716664	5
7	9105	644163.576476854564	4
7	9113	644332.189976451985	3
7	9117	644510.964687472419	2
7	9121	644582.426331606057	3
7	9151	645726.69803680903	4
7	9158	645967.915927751744	3
7	9162	645970.348695570219	4
7	9166	646081.678394865592	3
7	9170	646270.265386901456	4
7	9175	646555.977488245676	5
7	9185	646912.519242531915	4
7	9201	647929.214994756431	3
7	9206	648165.354051124721	4
7	9213	648401.7927836278	3
7	9221	648780.346180118802	2
7	9225	648789.15812374188	3
7	9238	649639.04367253536	2
7	9255	650293.069543232135	3
7	9261	650592.244723275775	4
7	9263	651251.585335418022	3
7	9268	651340.549532271371	2
7	9289	652222.190185874061	3
7	9294	652496.591231185282	4
7	9301	652721.662086265633	3
7	9306	652815.433089470851	4
7	9310	653053.020613237718	3
7	9327	653981.41222601764	4
7	9330	655154.555708776156	3
7	9344	655613.038991687677	2
7	9348	655720.590166472491	3
7	9352	655826.01988810516	2
7	9363	656278.552403870746	1
7	9367	656292.923461325271	2
7	9387	657859.777932910961	3
7	9395	658203.530873808303	4
7	9403	658497.181922488268	5
7	9405	658576.930637906193	4
7	9422	659009.22364036393	3
7	9426	659122.81323578296	4
7	9434	659440.251595458723	5
7	9439	659801.831441980507	6
7	9447	660380.717862054216	5
7	9452	660587.042566069877	4
7	9463	661042.450298084546	3
7	9472	661753.815903666127	2
7	9488	662183.476314641524	1
7	9492	662347.868727791759	2
7	9497	662447.800815702038	1
7	9501	662641.523147460832	2
7	9514	663237.66190887547	3
7	9531	663781.911512365137	4
7	9536	664072.605939216728	5
7	9539	665070.352163230886	4
7	9547	665419.247279164815	3
7	9556	666116.769644120493	2
7	9564	666416.839930064647	1
7	9569	666628.142543456448	0
7	9587	667847.495705222742	1
7	9595	668195.796841208008	2
7	9604	669078.203434475334	3
7	9613	669600.587546783025	4
7	9616	670881.133826146472	3
7	9624	671257.079002802258	2
7	9638	672082.410176038708	1
7	9641	672250.656495651624	0
7	9645	672255.753520247026	1
7	9658	672841.863610698765	2
7	9673	674617.830553941878	3
7	9681	675275.874048262268	4
7	9683	675368.78649698206	3
7	9688	675390.94181541596	2
7	9701	675981.906030165966	3
7	9709	677018.214822365968	2
7	9717	677952.836473079391	1
7	9726	678668.08221122765	0
7	9745	680567.861483800637	1
7	9750	680885.015311207033	2
7	9759	681774.916068406305	3
7	9762	683395.298240609318	2
7	9770	683667.170082986008	1
7	9780	684011.787290933952	2
7	9787	684295.900409864627	1
7	9802	685293.682095714736	2
7	9805	686412.595962738269	1
7	9819	687474.729331707348	2
7	9828	687799.163028013563	3
7	9830	688347.951368991141	2
7	9839	689568.67396360004	1
7	9854	690153.94988155553	2
7	9856	690314.895051790622	1
7	9866	692756.00753868857	0
7	9880	693472.800150738474	1
7	9889	694053.535647503502	2
7	9898	695014.999147133855	3
7	9909	695558.204270717946	4
7	9914	695875.386715872973	5
7	9922	696056.120076321695	4
7	9926	696204.95810770547	5
7	9938	696533.271457548586	4
7	9942	696750.767696035707	5
7	9956	698016.092931584557	6
7	9958	698047.508545468863	5
7	9963	698126.949082532741	4
7	9975	698604.620856237787	3
7	9979	698689.642443361337	4
7	9991	698988.6326539774	3
7	9995	699309.846655866649	4
7	10005	699651.206462398187	3
7	10016	700389.414650068411	2
7	10025	701602.636655594674	1
7	10039	702353.596473374148	0
7	10043	702357.22832786267	1
7	10063	703868.710311993311	2
7	10068	704167.705479004893	3
7	10074	704424.998169794227	4
7	10082	704874.924447470467	5
7	10089	704955.590399937149	4
7	10093	705189.051691175349	5
7	10113	706123.095877696514	6
7	10117	706161.146103368779	5
7	10121	706404.604247670058	6
7	10126	706712.373615602881	7
7	10139	707093.646727495565	6
7	10142	707183.651759805975	5
7	10146	707358.249599639713	6
7	10161	707856.470180022707	5
7	10165	707967.067573345951	6
7	10171	708250.647255915917	7
7	10175	708449.649120851443	6
7	10183	708656.942105350863	5
7	10197	709238.126268973198	4
7	10200	709361.557669787249	3
7	10213	709937.068295349545	2
7	10234	710688.00506531478	3
7	10238	710818.878105855992	2
7	10242	710980.727251404989	3
7	10249	711290.545664525918	2
7	10264	711895.836856671351	3
7	10267	713704.226012639325	2
7	10272	713734.308939381161	1
7	10289	714780.817224505395	0
7	10293	715060.970952563815	1
7	10307	715675.933738811198	2
7	10310	717343.799086739479	1
7	10325	717887.990984270088	2
7	10327	718760.916856148161	1
7	10337	720114.783659182507	0
7	10354	720700.581789836189	1
7	10359	720995.799921147781	2
7	10368	721883.42172731101	3
7	10376	722730.796047637843	2
7	10383	723021.09319816703	3
7	10391	723382.435221800352	4
7	10397	723652.079078967233	5
7	10409	724205.891976061761	4
7	10413	724256.128288965662	5
7	10417	724507.151768954833	4
7	10434	725612.451672530824	3
7	10438	725783.174381381783	4
7	10442	725980.816317529074	3
7	10451	726209.141622003227	2
7	10462	726922.722944632906	1
7	10478	728508.739484441311	2
7	10485	728912.376709377983	1
7	10489	729152.392018503196	2
7	10503	729656.285983515316	3
7	10506	731055.382292971929	2
7	10514	731902.677179402968	1
7	10523	732021.844523217884	0
7	10535	732602.212628169581	1
7	10540	732950.656556205616	2
7	10554	733654.974213913562	3
7	10557	735111.083263650794	2
7	10566	735631.576428651618	1
7	10580	736524.230893365413	2
7	10582	736760.479343886884	1
7	10598	738033.251957028521	2
7	10606	738803.205801105151	3
7	10608	739008.950638490319	2
7	10623	740230.129178159649	3
7	10626	740599.407690083982	2
7	10643	741181.040364434327	3
7	10648	741454.581456609004	4
7	10650	741563.823534314959	3
7	10659	742683.943656441727	2
7	10668	743515.639046974251	1
7	10685	744193.006027832039	0
7	10689	744279.952763295559	1
7	10694	744560.772269972398	2
7	10707	745181.317930024164	3
7	10716	745675.254976391825	4
7	10725	746720.515863033525	5
7	10727	747175.285932795445	4
7	10732	747262.6120013135	3
7	10744	748022.887505085635	2
7	10749	748194.038628136051	1
7	10761	749093.868016932203	0
7	10777	751718.599457992227	1
7	10787	753705.416393052245	2
7	10795	754333.950609490214	3
7	10802	754688.495840883121	2
7	10807	754828.049828359322	3
7	10821	756076.617869097981	4
7	10823	756442.176271621883	3
7	10828	756717.921995320986	2
7	10845	757727.066691468481	1
7	10849	757875.395587826727	2
7	10866	758527.584982060963	3
7	10870	758597.479355788262	2
7	10874	758806.338970707864	3
7	10888	760123.708201303615	4
7	10890	760337.986321389282	3
7	10908	760978.268314936069	4
7	10912	761109.614868031716	3
7	10919	761290.155234128763	4
7	10923	761568.131262445988	3
7	10927	761607.967345081568	4
7	10944	762274.228016970384	5
7	10948	762400.861604912518	4
7	10952	762546.20626606062	5
7	10965	763129.623483292263	6
7	10973	763868.107147383717	5
7	10981	764122.257023235593	4
7	10992	764220.732055920046	3
7	11000	764496.776816470225	4
7	11005	764806.775018457854	5
7	11009	764811.658137012957	4
7	11012	764812.981774572737	3
7	11019	765104.682925187481	4
7	11027	765388.17717617822	5
7	11033	765648.892121603078	6
7	11042	765931.317482250835	5
7	11050	766450.99274145765	4
7	11072	767899.369359943745	3
7	11081	768323.158245311016	2
7	11086	768400.386873661013	1
7	11094	768950.761645404103	0
7	11113	770624.828754671909	1
7	11121	771130.627773794553	2
7	11130	771669.098194840583	3
7	11141	772064.569999626478	4
7	11149	772325.553111001223	5
7	11154	772621.871743178886	6
7	11157	773191.153750593359	5
7	11165	773622.946018168593	4
7	11183	774193.2240507474	5
7	11187	774401.721099644928	4
7	11191	774504.570729086454	5
7	11198	774868.582331617653	4
7	11207	775626.238820979725	3
7	11212	775847.507008234295	2
7	11224	776792.614804360499	1
7	11232	777248.335487508017	0
7	11249	780396.477254219818	1
7	11257	780820.931740011772	2
7	11265	781138.083960207039	3
7	11269	782953.20017779068	2
7	11274	783067.307079357208	1
7	11286	784165.960331578878	0
7	11308	790270.474362152559	1
7	11316	790557.912761441809	2
7	11328	790889.178343519141	3
7	11333	791165.231003887845	4
7	11338	791487.123510061937	5
7	11346	792666.223500177697	4
7	11350	792949.418271991735	5
7	11354	793052.576013779931	4
7	11363	793478.114634035023	3
7	11371	793707.170748143151	2
7	11389	794444.336512730916	3
7	11391	794753.122334308054	2
7	11408	795333.969389971118	3
7	11414	795640.176256537663	4
7	11421	796087.914098994293	3
7	11425	796150.39504157878	4
7	11438	797353.80284329818	3
7	11442	797616.618338504701	4
7	11449	797983.553035591142	3
7	11455	798037.430157388334	2
7	11463	798521.32482971337	1
7	11481	799254.921641364582	2
7	11489	799635.348176224706	3
7	11491	799806.132266845769	2
7	11506	801067.042806572696	3
7	11509	802175.759879307067	2
7	11514	802378.52452053776	1
7	11527	802823.675333012146	2
7	11534	803845.30492894217	1
7	11552	804495.120006823127	2
7	11560	804776.911405296724	3
7	11565	805083.008783057504	4
7	11568	805582.245545866961	3
7	11577	807051.005759631037	2
7	11590	807328.843770508933	1
7	11596	807514.350246646165	0
7	11601	807626.891143400388	1
7	11606	807934.968241203089	2
7	11625	809769.680838096427	3
7	11633	810568.057971295394	2
7	11637	810657.020334069805	3
7	11641	810836.634767014299	2
7	11668	812114.150835024236	3
7	11672	812217.506939750305	2
7	11676	812362.446916941781	3
7	11682	812632.892191222452	4
7	11686	812691.302068344176	3
7	11693	812937.589909169491	4
7	11698	813182.560068649677	5
7	11720	814101.749166804196	6
7	11725	814419.963117572465	7
7	11733	814774.277494048153	8
7	11736	815138.071795373045	7
7	11741	815179.196538548631	6
7	11749	815519.676090058956	5
7	11752	815637.365087031607	4
7	11760	815762.165160283455	3
7	11777	816988.912891082545	2
7	11782	817084.445069611336	1
7	11785	817137.27828031418	0
7	11798	817595.563365577311	1
7	11817	818460.733365036262	2
7	11825	819486.559058731551	3
7	11829	820828.917046005489	2
7	11834	820921.771331131817	1
7	11852	822431.215220391573	2
7	11854	822560.71519800336	1
7	11872	823781.203489295648	2
7	11880	824096.844893700541	3
7	11886	824415.315305173581	4
7	11894	824805.64602970202	5
7	11896	825168.775810928581	4
7	11910	826441.905450104678	3
7	11914	826450.341404165442	4
7	11918	826497.979710165779	3
7	11930	827338.181254663488	2
7	11943	827777.551340102917	1
7	11947	827915.283548781802	2
7	11955	829037.696102788827	1
7	11970	829626.566562313168	2
7	11973	830686.216320216561	1
7	11987	832100.927983757639	0
7	11991	832188.365126927461	1
7	12005	832998.883278065996	2
7	12013	833657.417747256341	3
7	12021	833961.310879042562	4
7	12030	834489.422900876198	5
7	12032	834854.492162858758	4
7	12041	835810.193809059634	3
7	12046	836143.851455851489	2
7	12063	836702.297281509733	1
7	12067	836746.79610343443	2
7	12071	837015.918530568533	1
7	12089	838632.677369589306	2
7	12092	839536.389450676112	1
7	12110	840447.648379892897	2
7	12115	840782.29943668134	3
7	12117	840861.301363659154	2
7	12132	841488.551911509461	3
7	12140	842257.376486259663	4
7	12149	842673.891768425555	5
7	12151	843054.761437931046	4
7	12168	843654.10605372499	3
7	12172	843698.92340945007	4
7	12177	843992.903944883586	5
7	12190	844686.428659655154	6
7	12192	844744.545250431211	5
7	12198	844894.300831446838	4
7	12206	845217.987610590988	3
7	12218	846908.045958688165	2
7	12223	846931.09934696861	1
7	12235	847554.776560442318	0
7	12250	848966.890886028155	1
7	12254	851412.350280774074	0
7	12272	856359.726346144943	1
7	12281	858684.608256729039	0
7	12285	858693.527856947003	1
7	12299	859915.828196990384	2
7	12308	860797.132001789076	3
7	12310	861469.238563933288	2
7	12325	862104.975431646724	3
7	12332	862786.055883655226	2
7	12336	862786.812095725435	3
7	12344	863658.159040928838	2
7	12353	864247.365264179652	1
7	12370	864797.912952750092	2
7	12375	865054.334327259474	3
7	12378	865615.899660821868	2
7	12393	867458.958405222039	3
7	12401	867683.940487849688	2
7	12405	867799.907828365541	3
7	12412	868158.543896272979	2
7	12421	868450.442686885829	3
7	12429	869963.835883235284	2
7	12443	870500.948371640446	1
7	12447	870584.6621958622	2
7	12459	871076.972511676667	1
7	12464	871256.962023930603	2
7	12477	871896.630380448484	3
7	12486	872772.251686327586	4
7	12489	873901.859309450984	3
7	12494	874146.187299046202	2
7	12506	874901.280196406818	1
7	12514	875625.423920428319	0
7	12532	876563.706854938439	1
7	12537	876826.927707406461	2
7	12541	879350.703638844139	1
7	12546	879420.809937829994	0
7	12564	880297.064160565758	1
7	12573	880858.318172727916	2
7	12581	881219.216642011175	3
7	12590	882080.9660261486	4
7	12598	882488.396101300521	5
7	12600	882691.95106662663	4
7	12618	883284.003370349708	5
7	12623	883547.838752578418	6
7	12625	883725.589407070614	5
7	12633	883960.286144788899	4
7	12642	884309.962284113693	5
7	12655	884851.976576195933	4
7	12659	884969.677881436147	5
7	12666	885277.442640879241	4
7	12684	885788.799485062612	5
7	12688	885995.441344828099	4
7	12692	886147.172425814041	5
7	12696	886406.836999932251	4
7	12713	886915.979386033129	3
7	12717	887105.975334133133	4
7	12721	887342.145660942659	3
7	12733	888816.688450544588	2
7	12738	889062.508098369643	1
7	12755	889740.287894019092	0
7	12759	890029.259120461339	1
7	12779	891252.757035382778	2
7	12787	891559.723243765728	3
7	12793	891839.022213488851	4
7	12798	892168.772207696519	5
7	12801	892910.889123612737	4
7	12815	894023.521677336736	3
7	12818	894062.484617243185	2
7	12822	894136.455076850136	3
7	12834	894602.971006845145	2
7	12842	894750.678307792616	1
7	12846	894951.510723715347	2
7	12865	896990.330837113661	1
7	12869	897122.554986943343	2
7	12882	897817.566291491647	1
7	12886	898040.26803739654	2
7	12899	898636.621692521563	3
7	12908	899663.739048158437	4
7	12911	900036.049262507565	3
7	12919	900802.049513912466	2
7	12928	901304.592078638753	1
7	12937	902576.616661116333	0
7	12953	905093.188669395417	1
7	12961	905724.477940128462	2
7	12970	906218.764168011437	3
7	12978	906848.723425829292	4
7	12981	908033.618900801686	3
7	12990	908661.505843111777	2
7	12998	909032.216129610923	1
7	13003	909286.668769537217	0
7	13021	910422.121318150227	1
7	13034	912322.209263708846	2
7	13039	912571.574310356219	3
7	13042	913368.890459746429	2
7	13056	914014.780906679101	3
7	13064	915037.048452053731	2
7	13068	915306.889236055852	3
7	13081	915741.99091153403	2
7	13085	915854.440266273695	3
7	13092	916386.819749062031	2
7	13110	917468.299474946874	3
7	13118	917789.525135668007	4
7	13124	918106.523756276589	5
7	13126	918461.075902143655	4
7	13131	918530.668486562378	3
7	13149	919413.010381252887	4
7	13157	920487.606739010822	3
7	13161	920508.65027415022	4
7	13165	920517.827841671322	3
7	13168	920719.612015791105	2
7	13185	922340.764472502919	1
7	13194	923235.718157182748	0
7	13208	923775.284460426634	1
7	13217	924989.636346493987	2
7	13226	926645.361255376436	1
7	13230	926887.763949865333	2
7	13234	927098.424486156492	1
7	13255	928176.8170420099	2
7	13260	928459.3521087976	3
7	13263	929873.682495654473	2
7	13278	930639.650734431621	3
7	13280	930854.746116298835	2
7	13289	931302.880937546938	1
7	13303	932243.16407950715	2
7	13306	933423.802578595507	1
7	13316	934833.719751944634	0
7	13330	935818.203793012497	1
7	13335	938438.52155134668	0
7	13349	939000.226512119168	1
7	13357	939330.725380131584	2
7	13366	939850.046909636007	3
7	13374	940230.070668115442	4
7	13377	941946.330054227221	3
7	13386	942775.942595453521	2
7	13391	942969.185112091964	1
7	13399	943178.802248355904	0
7	13421	944781.411328769918	1
7	13432	945065.354360946865	2
7	13437	945375.509872970563	3
7	13446	945709.197374074892	4
7	13451	946015.080798473548	5
7	13460	946819.125743958817	6
7	13467	946899.860687449819	5
7	13471	947127.804226473325	6
7	13487	947697.525990407834	7
7	13498	947947.191047787867	8
7	13502	947954.683048590514	7
7	13507	948282.431116614819	8
7	13511	948419.864752030514	7
7	13514	948493.96817533744	6
7	13518	948536.797317827855	7
7	13522	948759.869026348138	6
7	13539	949475.46185602345	5
7	13548	949798.539279139637	6
7	13552	949907.714206874251	5
