version 2
run QueueMeasurement-105-20170109-14:01:27-5698
attr configname QueueMeasurement
attr datetime 20170109-14:01:27
attr experiment QueueMeasurement
attr inifile queueStudy.ini
attr iterationvars ""
attr iterationvars2 $repetition=105
attr measurement ""
attr network controltower.SimNetwork
attr processid 5698
attr repetition 105
attr replication #105
attr resultdir results
attr runnumber 105
attr seedset 105
param SimNetwork.a.parkingLot.parkingDelay "truncnormal(45min, 5 min)"
param SimNetwork.a.runway.landingTime "truncnormal(5min, 0.5min)"
param SimNetwork.a.runway.takeoffTime "truncnormal(5min, 0.5min)"
param SimNetwork.a.runway.throughputCheckInterval 20min
param SimNetwork.wg.interArrivalTime exponential(20min)

vector 5  SimNetwork.a.runway  landedThroughput:vector  ETV
attr source  landedThroughputSignal
vector 6  SimNetwork.a.runway  tookoffThroughput:vector  ETV
attr source  tookoffThroughputSignal
vector 2  SimNetwork.a.landingQueue  queueLength:vector  ETV
attr source  queueLengthSignal
vector 1  SimNetwork.a.landingQueue  queueTime:vector  ETV
attr source  queueTimeSignal
vector 7  SimNetwork.a.parkingLot  parkingOccupancy:vector  ETV
attr source  parkingOccupancy
vector 4  SimNetwork.a.takeoffQueue  queueLength:vector  ETV
attr source  queueLengthSignal
vector 3  SimNetwork.a.takeoffQueue  queueTime:vector  ETV
attr source  queueTimeSignal
vector 0  SimNetwork.wg  responseTime:vector  ETV
attr source  responseTimeSignal
0	971	62824.322363213376	6078.478599994
0	989	65317.97974300907	5856.8807752603
0	997	65844.479162253272	4403.0194851902
0	1029	71960.211543434451	9125.8848648947
0	1054	73103.013763578633	5010.1910124518
0	1080	75177.669720698886	5127.4306130631
0	1097	75969.981994785932	3567.563193052
0	1105	76288.089952068319	4593.7993559425
0	1110	76612.01075727467	3637.3892765185
0	1136	78349.95755444288	4733.4966348533
0	1153	80127.467389786769	5104.0270760255
0	1162	80816.019681117491	3922.8206758961
0	1196	83758.023198550729	6018.5230030998
0	1222	85390.947818650096	5812.3094446683
0	1233	85787.685578766069	3627.0818434526
0	1247	86647.992263534676	3910.0445483767
0	1258	87056.378643134656	4165.0116193554
0	1272	87766.891864228236	3896.354645927
0	1297	88854.192824735969	4290.1075486505
0	1306	90528.21423788866	4801.6793121576
0	1315	91230.662788348866	4346.5541158939
0	1323	92065.622621310026	4088.6062711271
0	1367	96271.481703326519	8073.1650750132
0	1375	96770.19615914485	3987.5213636908
0	1409	98730.433396123972	5555.2798681149
0	1417	99413.549794023821	4469.8642085916
0	1432	100683.119152663755	5007.9608088398
0	1449	101327.859912244209	3998.5186926993
0	1459	101883.875496054032	4111.3070528879
0	1488	104029.779772867495	5963.7367234386
0	1493	104350.57817362078	3888.2094929312
0	1522	106141.8607542971	5097.7452470807
0	1527	106431.070086763654	3953.1181296008
0	1567	109042.478182579327	3767.4195031987
0	1578	109621.572966468195	6925.8678686878
0	1593	111326.401314038141	3540.1062803072
0	1615	112256.076830187357	6670.157050398
0	1623	112587.944857726282	4795.9864905113
0	1629	112829.889989238749	4782.3520545282
0	1662	114921.137154263465	3915.3491707959
0	1673	115189.270855473031	6432.9286213173
0	1697	117439.63194237013	3765.2355993643
0	1711	117956.247771660456	4049.1318463002
0	1724	118529.079463404368	7046.2885513926
0	1730	118870.198071843486	4588.2551407084
0	1747	120622.654148951711	5449.769158786
0	1758	120958.610036233836	3715.4302967341
0	1789	122974.964627069147	5028.6752700124
0	1806	123788.823418883181	4301.660500807
0	1814	124351.955290789554	3661.981209268
0	1823	125950.979351579446	4719.5615376374
0	1832	126246.731548018748	3926.4561955922
0	1852	131332.238613837892	8190.6091089718
0	1888	136120.409114802892	7925.157909093
0	1897	137169.393494656563	3896.6269727769
0	1914	138292.329448745362	5019.2371009695
0	1948	141304.499950862299	5852.1261400824
0	1966	143014.849150288008	5360.7825999521
0	1974	143831.619378606779	3854.8002913942
0	1983	144278.984639271541	3837.8657766745
0	1992	145673.490243486638	4996.9299247215
0	2027	149581.553168735134	7246.8834152641
0	2048	152121.551349677763	6244.8388342239
0	2054	152436.200668312823	3830.0157542509
0	2071	154279.626226458853	5555.7427384477
0	2113	157032.986357170304	6332.1213211922
0	2122	157789.517880117011	4035.2541124103
0	2134	158652.088929009646	4300.7392872239
0	2139	158961.32637582637	3570.4371807986
0	2159	160477.666367006695	4616.0267662545
0	2213	163551.05287828985	7218.4923760391
0	2218	163827.663170832268	3888.4792922628
0	2223	164130.378791353233	3872.0034808754
0	2232	164579.778811263984	3724.3824821144
0	2249	166088.366051302757	5203.3815767208
0	2257	166489.228483365111	3918.711793547
0	2267	168163.690613873315	5316.0834682731
0	2317	171556.175776176074	6858.2033218862
0	2329	171968.885072004549	3363.8158806232
0	2342	172585.458403381651	3816.4971486876
0	2351	172922.643380520329	3525.3817395672
0	2362	173538.389298164415	3987.0719797287
0	2377	175781.700441353671	5487.8851736949
0	2402	177478.354535270327	5660.5784375897
0	2437	180013.093231272338	6624.3404404104
0	2445	180400.657522853077	4187.7468787164
0	2453	181128.484109823523	4274.8130320168
0	2481	182290.249411078483	4638.9638311941
0	2495	182829.088549606946	4813.1578696138
0	2504	184191.634012598484	5013.8410036987
0	2524	185034.241564838434	3656.8016410549
0	2548	185922.421389020476	4328.2503277262
0	2563	187754.012203852795	5742.3391099659
0	2581	188713.542336107632	3804.1016501782
0	2591	189338.906315327954	4915.6857392997
0	2597	189601.67000698179	4490.2039505759
0	2634	192268.433616665929	6533.5819956833
0	2683	193900.53699679481	5388.8610548075
0	2688	194194.303516656014	4521.1765237262
0	2697	194757.367394178848	4563.9153568672
0	2720	195620.897307469742	4284.2366941135
0	2736	196179.107781730952	4031.6359667675
0	2741	196432.332259928372	3990.9722930583
0	2746	196769.717156523694	4215.1870333565
0	2758	197088.758354089066	4256.0288127916
0	2775	198866.937920158144	6017.8236174837
0	2780	199199.119210588482	4204.1473915869
0	2798	200462.996581122275	4937.2893633882
0	2824	203171.396277150836	6361.7639868549
0	2844	204528.145873603122	3802.3176158463
0	2849	204819.404291177143	5045.7872773784
0	2867	207111.46806365168	6324.5363978922
0	2885	208872.944852355496	5088.8496086038
0	2894	210907.298305043315	5119.9985238515
0	2962	217398.21523666188	3782.8038377666
0	2970	217641.755785988406	10122.698218579
0	2978	217973.030387476955	4022.4798054163
0	2992	218585.767559276591	4373.015713851
0	3025	220036.588384389122	5520.948198492
0	3033	220351.589305392894	4403.096608209
0	3047	220958.146382525758	4550.8142482562
0	3063	221955.864593425097	4168.5163376307
0	3072	222524.886844613749	4086.2498559154
0	3084	223488.782144007962	4341.8371174357
0	3089	223756.425091387666	4549.1680200137
0	3101	225006.490493875567	4721.9312152493
0	3152	228325.355103137909	6958.7663337403
0	3160	228656.513023842501	3673.0454717691
0	3182	230081.862006800925	4856.4807881644
0	3211	230867.175942389444	4225.9761058808
0	3235	231985.597266959429	4732.9072841271
0	3243	232319.721978060857	4611.3651826119
0	3268	233308.943473919069	4784.7518008314
0	3276	233597.907601126015	4020.5226755834
0	3293	234237.990480063137	3961.0123777391
0	3329	235481.424168095148	4715.5902295757
0	3334	235772.726059997219	4938.6328320842
0	3342	236064.59496586437	5201.8752404226
0	3350	236350.04173106507	4362.816083399
0	3367	236921.688139125498	4448.3919969221
0	3372	237220.606815153646	3850.8486489658
0	3380	237503.092772441121	3352.9182885164
0	3397	238603.221670929357	4263.0999794513
0	3407	240143.94483091789	5407.5832314184
0	3419	241743.781612997137	5549.6908523134
0	3454	245669.110415725797	7725.5785089879
0	3471	246342.016118889865	4599.4220889067
0	3501	248054.673937294214	5447.3527918144
0	3510	249047.712286730369	4658.5152588981
0	3522	249865.767707628865	4317.5966163327
0	3533	250190.40233520232	4043.9705650206
0	3543	250799.432676450326	3933.6966424612
0	3562	253852.824962307749	6443.416023778
0	3571	254770.36563427028	4830.8435775844
0	3612	258640.844846008942	7803.0430156227
0	3622	259189.219798573124	3543.6503604093
0	3631	260007.066141014503	3911.1546955505
0	3641	261782.58841507224	5169.9017639528
0	3685	266672.570026996006	8151.7497801018
0	3697	267927.713600046245	4159.0925436271
0	3713	268721.291857896336	3949.762503821
0	3719	269024.048198952547	4307.0903185967
0	3728	271162.503134027835	5305.4621478973
0	3761	277614.711631730299	9788.0451543011
0	3783	278917.123062970141	4128.6401002175
0	3800	280752.155195706789	3371.5378923432
0	3809	281385.827990905967	5804.8009344498
0	3818	282232.439709841569	4328.2642826224
0	3871	285531.603874513284	3250.629957653
0	3877	285805.083249581989	6693.6475797789
0	3888	286371.950486372266	3996.5645030016
0	3893	286654.238182248411	3431.1182009856
0	3905	287742.921188841538	3878.7688372211
0	3975	290954.650454229127	6629.1490563985
0	3980	291240.629691287213	3739.7709400041
0	3985	291492.601353078418	3534.4967106934
0	4000	292182.507109162843	4085.1095493367
0	4028	293035.349503429602	4846.2147969324
0	4046	293902.162160008342	5530.3679512935
0	4052	294186.394372152216	5699.9574987295
0	4064	295279.7880458837	5533.271965879
0	4069	295561.435890204751	3567.7117137528
0	4077	296239.117467454999	3914.3638706031
0	4086	296848.394319177801	4112.6331481576
0	4140	300484.033458643895	3304.3960628483
0	4151	300788.476391185119	3646.7088510417
0	4156	301070.085800408524	7834.5525644569
0	4165	301371.202506521315	3717.1762875491
0	4170	301610.576125084163	3841.9108122236
0	4214	306690.447753758015	8886.5799091684
0	4223	307637.915353851634	4376.8231860834
0	4235	308758.711563711087	4322.6441544931
0	4240	309100.169705757801	3872.400524001
0	4286	312571.421494144272	3275.8366557166
0	4294	312874.620563213649	6836.3037005693
0	4311	313513.579872681054	4031.4295961776
0	4316	313775.049362935773	3313.470919603
0	4342	316487.533995697489	5917.8612789212
0	4382	318137.365120562006	5460.1642712322
0	4403	319123.647029177904	4510.1488265303
0	4440	320614.233728554695	3959.8252941604
0	4448	320915.708093831835	4027.4130541147
0	4453	321186.884949356094	6390.4820742308
0	4461	321482.798292359143	4000.5567869787
0	4475	322235.16266436446	4365.0766844649
0	4486	322703.824975965624	4772.7427421706
0	4495	323052.312959422315	3987.9195731746
0	4500	323327.793751386071	4145.155355192
0	4509	324771.180353251224	5439.5226692697
0	4563	331865.421195338978	10492.842026637
0	4587	333818.740523051119	5010.4344963001
0	4600	334448.683126577607	3981.8982643365
0	4609	334813.605237474437	4312.8842873502
0	4617	335155.442354183308	4419.8542056501
0	4631	336347.233565197873	5463.8039408131
0	4640	337261.261586948791	4063.9298766351
0	4665	338650.805020643573	5156.3837938633
0	4682	340697.003940903509	5701.0659893714
0	4694	340978.935083852964	3632.8679695006
0	4728	343989.014668614501	6282.1139949611
0	4733	344326.941782382414	4186.8582072871
0	4751	345887.892837598879	5073.4302546324
0	4759	346343.236876627717	3282.9681948553
0	4785	348210.741102646216	4822.8653457123
0	4794	349214.427827969183	3879.6259100028
0	4810	349967.944809228797	3620.8187006338
0	4836	352507.004142994587	5777.3799355381
0	4854	354657.736124165051	5333.0663262552
0	4871	355468.262113792144	4865.3335509699
0	4883	357063.082841882277	5125.910058953
0	4897	358199.107096852757	4126.0182926782
0	4923	360347.694262418596	5514.8724604583
0	4940	362130.694385867294	5259.0927844903
0	4957	362689.834694248773	3542.1153679461
0	4966	364046.206357874245	4349.2444386961
0	4991	365760.769208230465	4969.0555686336
0	5029	368409.783440352677	4166.0991626721
0	5037	368693.264307069296	6558.4665646003
0	5051	370405.208916671772	3159.54543537
0	5066	370820.358717337422	6147.5711771938
0	5076	371444.707871557341	4115.7412309745
0	5085	372492.418865665325	5001.510966987
0	5094	374044.940724927844	5561.5031645648
0	5155	378552.777589793767	7831.6628735209
0	5177	379523.873767202811	4439.5457386521
0	5182	379837.349892037563	3946.0790913896
0	5187	380097.005413560772	4407.736857987
0	5196	380636.943933980697	4639.8074293522
0	5208	381876.303091506309	3418.642101717
0	5213	382188.204973278184	4835.4951202015
0	5241	386774.453581654013	8258.7477662776
0	5269	388075.998551459638	4620.2981215494
0	5294	389502.100404119108	2701.6072348549
0	5316	390442.130918159207	5178.840472141
0	5372	392423.402667216203	5536.5465625592
0	5377	392716.21799403564	4752.4696653599
0	5385	392988.681428267369	4157.6836193896
0	5390	393299.747495015779	3818.2027871459
0	5402	394111.761928539332	3443.0728437421
0	5413	394379.436067958939	3697.6311878858
0	5421	394715.486891483903	3817.412518949
0	5435	395368.45709775352	5538.3478845589
0	5440	395662.250134605958	4589.2131331177
0	5469	397814.85667454333	6417.3337396808
0	5484	399760.705379468711	3279.9392781448
0	5495	400255.693799632041	5720.5714636399
0	5509	401384.342018405972	4669.5153553005
0	5535	403802.783563954451	6164.1790360788
0	5547	405169.078426212839	4995.8193587035
0	5561	405954.263459768055	3998.6132934489
0	5579	408486.188509635948	6135.4806031609
0	5608	411169.725230058923	6242.3053907005
0	5630	412366.840828579425	4557.0425478788
0	5647	413721.285461762313	4544.9792784506
0	5659	414422.108768501563	3309.9746563931
0	5672	414976.464381445331	4457.9681085876
0	5681	415897.332545951807	4097.5229387481
0	5715	417687.717992941968	4695.8939049935
0	5738	419529.893166915609	3398.291537779
0	5743	419779.167468324007	5518.4765890692
0	5749	420073.496537136898	4040.3738887095
0	5758	421441.323891359594	5269.2674654493
0	5803	427387.667397666161	8936.870624191
0	5814	428237.589369391873	3926.905328284
0	5820	428542.551727052267	3802.2164276287
0	5837	429993.932023531553	5216.1001281552
0	5896	433628.606564529733	6825.9970617204
0	5908	434865.130537063113	5792.3916349312
0	5919	435174.818831741769	3720.082732639
0	5933	435738.867747681097	4281.1839169212
0	5944	436058.422454367548	3499.5545642099
0	5949	436427.996766359121	4536.0373717359
0	5954	436697.252900291723	4263.4844455752
0	5970	438683.892673046989	6121.5268601533
0	6015	441797.484469780613	6839.5506095956
0	6023	442442.50439706667	3954.0386813669
0	6032	443030.845637451382	4512.5052398082
0	6040	443380.254493413173	4363.0943286693
0	6049	444473.924631179331	5227.1239472701
0	6068	448356.293160521334	7281.0107361379
0	6113	453710.047766490536	8566.0438216425
0	6121	454089.873747927219	4374.7514831483
0	6174	456887.693584833998	5918.0652602754
0	6185	457132.724510210162	4031.0518850536
0	6196	457716.693094090073	5655.822506416
0	6224	458797.705739876522	3502.225361989
0	6229	459019.019242173912	4800.1827218505
0	6240	459449.138838292288	3794.1594390236
0	6249	459776.215787198419	4297.8520766638
0	6265	460342.746487749787	4232.4566141818
0	6282	461455.27627250559	4438.3324006827
0	6287	461752.151185397729	3842.3139098399
0	6297	463275.490132385493	5051.0028191877
0	6305	463760.192215452857	4049.6213366361
0	6351	467904.952299365334	7773.6882649504
0	6357	468231.181629832378	3416.2589291231
0	6366	469237.206551403232	4260.6898807988
0	6374	470325.726962435058	4333.8656107184
0	6415	477301.778094025983	9971.6200546771
0	6429	478769.880033822357	4774.6766914692
0	6438	479172.843243952973	4205.5378322754
0	6463	480718.390308127461	5083.5182113624
0	6508	483428.409766330084	3939.9073984786
0	6514	483756.41532282129	6725.6347996775
0	6525	484718.651064359535	4643.7457633579
0	6537	484994.288529107809	3842.1622560186
0	6547	485665.06722790652	4104.0745350659
0	6559	486188.770397856035	4231.277718518
0	6585	488545.799595271866	5689.2586699852
0	6599	489791.796286199036	5033.3053644236
0	6608	491234.249846993718	5258.245409986
0	6619	491836.827468271347	3790.6983256764
0	6635	495062.426042060294	6534.8143423634
0	6678	498858.03495510797	7228.8430469867
0	6687	499450.401438266672	3824.2156273995
0	6698	499942.191452224559	3426.8803948837
0	6724	502690.463751002577	5682.3124732369
0	6738	503337.7011950341	5136.4673173439
0	6746	503739.872569503164	3861.9686934826
0	6767	505986.74755011206	5993.2949200944
0	6798	508045.35107873113	5592.0325418684
0	6807	509305.748357238018	4552.0776256993
0	6815	509935.747102885558	3972.9032285955
0	6824	510630.840243125521	4007.8558762084
0	6860	515527.113388019023	8151.924828784
0	6869	517033.584201937405	5089.1210157728
0	6903	518592.138189052987	5121.4935139125
0	6924	520904.761696244391	5961.8727291578
0	6932	521233.650854661327	3613.9169594484
0	6937	521581.571190397969	4176.5658355688
0	6946	522213.271913993259	4465.6179692862
0	6975	528103.028256997541	9406.5176709437
0	6993	530692.506290989754	6129.2822426613
0	7018	532611.485593521764	6045.0442712839
0	7036	534505.696698068853	5150.8453323594
0	7044	534832.93665600899	3924.1641939395
0	7061	536129.640477357394	5082.3619756665
0	7098	538465.292529400433	5479.7304275585
0	7116	540156.902135015394	5082.5907504979
0	7121	540444.100399926845	3920.0961655574
0	7129	540822.67117522805	4256.9042246005
0	7138	542097.097932461318	4323.0022503847
0	7166	546946.027108338378	8601.844793952
0	7183	548130.762336565967	4563.0382938914
0	7210	551140.519724037461	6682.2046285472
0	7218	551782.704214331131	4557.3924254075
0	7227	552539.010199812167	3563.8384736001
0	7263	557375.595210317572	3212.5592194228
0	7280	558110.411265264884	8642.6050584731
0	7317	560492.152891736848	6195.665262609
0	7322	560780.312541786276	4522.3316290983
0	7334	562356.953016649776	4884.9438473504
0	7351	562976.319160936315	4107.8657059953
0	7356	563291.878718705899	3726.5876817342
0	7374	565636.336957704327	5943.1820883799
0	7408	568727.342723576196	6498.0924360406
0	7425	569767.959537502694	4749.9739212729
0	7437	571112.153442679041	3290.0581445138
0	7443	571480.724596357289	5166.7187328746
0	7459	572321.452286731676	4239.1443458246
0	7489	574866.579142140181	6119.8743486241
0	7519	576105.059134554401	4391.6721375738
0	7538	576728.026092913282	4193.0249557325
0	7560	578241.097415843101	5132.7448932384
0	7569	578647.412296237344	3840.1466506875
0	7591	579414.536552900959	4397.0440525079
0	7597	579673.357566764847	3535.3896848984
0	7602	579975.217516333336	4529.0128270416
0	7625	581216.961994718018	4585.8362943107
0	7655	582492.710739553245	4899.1200767056
0	7680	583774.757374391004	5069.0800944618
0	7694	584404.480712712464	3887.5854564529
0	7702	584954.722186355119	3903.0642647506
0	7710	585272.897202729891	4076.1171921176
0	7719	585625.553229094411	4165.6234560204
0	7727	585965.22418401288	3796.2792198604
0	7760	587624.113783443817	5124.1430012347
0	7778	589621.085831650827	6066.5403148256
0	7789	590196.55467249199	4132.4146325055
0	7803	590794.161471352976	4037.8537141451
0	7811	591509.440347163026	4586.90816367
0	7821	593464.013007308225	5183.1656697315
0	7849	597830.2398142845	7825.0903325876
0	7858	599367.368779839373	4940.7365000567
0	7901	603515.516074166592	8291.1867867352
0	7911	605032.380332607043	3024.4642132398
0	7922	605678.814859837985	3509.1889172373
0	7927	605993.583665796945	5695.4376160361
0	7982	609693.360447817948	7474.8285534927
0	8001	610307.619561307799	4129.9323255091
0	8006	610658.423576323889	4055.6336487389
0	8012	610883.746434347854	4841.6020669947
0	8020	611167.174846158779	4473.9440896535
0	8054	613535.115676371285	6104.5289051746
0	8087	615052.603845691118	5361.2746381979
0	8098	615346.038892944228	3679.3352680927
0	8104	615675.361174137175	3642.6526187178
0	8137	617560.729285367409	3583.6347464265
0	8148	617874.271945633673	4081.4157657703
0	8154	618169.725854528337	5892.9535585737
0	8165	618733.81387415291	4624.0967727735
0	8206	620207.668736021979	4015.3345796794
0	8212	620495.243564540143	4499.8606922927
0	8240	622308.967128703114	5868.5495132802
0	8251	622638.217726623424	3783.9445050377
0	8257	622896.743042258156	4209.5990994831
0	8262	623205.254105341287	4337.9608436095
0	8279	624080.827797089091	4733.0165364913
0	8295	625168.365584183237	4385.4668564476
0	8313	626910.754229269274	5158.2749001068
0	8325	627650.241070307944	4186.7585820255
0	8338	628403.426174034878	3918.7520927661
0	8389	631400.55886781534	6163.4045785093
0	8400	632122.647316669805	4699.5440398353
0	8405	632361.657160680723	3577.7402655081
0	8417	632903.272635574204	3991.5391473338
0	8450	634140.164907787052	5015.2092755164
0	8455	634457.81426049686	3945.5454812883
0	8465	636084.68974638322	5301.6006455004
0	8476	636369.236925564058	3539.5379666613
0	8489	636918.654931328649	3670.7243336544
0	8515	639455.114775493384	6080.8432195874
0	8527	640501.410202909488	4141.3067731445
0	8541	641651.638336064821	4268.8766576473
0	8554	643853.801942774971	5626.7491635464
0	8658	649412.824964814337	9107.5744364332
0	8666	649763.618431552711	6166.2654572419
0	8671	650034.984165984247	4856.7348499627
0	8679	650301.905036169368	4560.7937506061
0	8694	650586.619419936115	3923.2198124855
0	8710	651167.193576721819	4449.114690144
0	8718	651430.410475321306	4245.5323646928
0	8724	651690.810008760305	4854.5534073642
0	8732	652023.099167710147	4126.9659967925
0	8737	652302.568426243285	4399.5844109419
0	8745	652593.03665221445	4394.7324565114
0	8770	653926.368635059734	5436.8640986021
0	8793	655741.979482745271	5292.3879252582
0	8801	656187.373072662286	3807.664142129
0	8810	657081.032187078825	3779.6539353761
0	8830	658723.480596895434	4867.706617232
0	8872	660994.531243981686	5832.5073944962
0	8892	661954.482834029843	4727.3906229916
0	8917	662858.774940479225	3421.6624755664
0	8942	663738.062481266555	5025.6844704924
0	8963	664720.58362053848	4721.8498428296
0	8969	664996.230048430921	4737.8712626647
0	8980	665377.541258921903	3692.5575938742
0	8985	665674.599311193256	5025.9177856166
0	9005	666360.606450762439	4596.1718759893
0	9010	666656.884935339631	4058.367045831
0	9021	666977.796813782968	4098.5262234045
0	9030	667300.981344325111	3678.523818131
0	9068	669107.668824288725	5212.8154286488
0	9097	670902.58280600289	5151.9077690295
0	9108	671141.276926020986	3718.8433277529
0	9121	671866.176271144418	4852.528950715
0	9127	672200.627453801793	4205.2326944453
0	9135	672757.714013538774	4423.8185871943
0	9160	673841.066291994764	4547.5071008868
0	9168	674362.503031261582	4049.4144766966
0	9177	675570.430686358553	4639.2087602636
0	9197	676296.304624281928	3505.4496627181
0	9244	678994.167888378618	5798.3618155725
0	9275	680237.692107237585	4521.0970196748
0	9284	680541.736240981101	4259.3996458323
0	9289	680892.04183954918	4338.4228716274
0	9294	681119.915550883895	4044.3382285924
0	9302	681593.084776094667	4509.9846814072
0	9311	682010.063707471171	3712.2231909799
0	9328	683214.825928890075	4048.1908533039
0	9370	685877.147384154295	6193.5704741857
0	9394	687781.494026073509	5511.0226167665
0	9399	688072.767532079294	3954.5601697401
0	9404	688384.028897427897	3683.048474708
0	9413	688910.558538828395	4039.0167701634
0	9457	690269.982489819487	5292.9641023798
0	9471	691998.278631690249	4841.2064545902
0	9486	692957.615244708357	3743.6311012659
0	9491	693276.358973717322	4338.2389648128
0	9499	693589.916268850997	4635.80017413
0	9505	693894.81835791456	4334.8198291857
0	9532	697921.593833149265	7686.1759899796
0	9541	699296.674642214528	4784.1858807702
0	9568	702691.507606428627	6898.1944609755
0	9585	704035.991147180136	4627.1612224569
0	9603	705726.967270736446	4878.4973442391
0	9637	709024.132767621863	6236.7228185668
0	9646	709550.876371714387	4340.8962922411
0	9666	710525.233241270941	4137.011724022
0	9687	711423.20486451531	4766.9773517884
0	9713	713271.717238230304	5431.7252757829
0	9721	713704.005850518572	3825.0165567339
0	9730	714202.845781988195	3850.9486118339
0	9738	714862.437130120605	4122.7115822993
0	9766	716390.526882616468	4079.1359998607
0	9792	718771.323820382897	6120.8196488622
0	9801	719060.55253689654	3572.2835055714
0	9814	719966.909573983389	4209.7496891645
0	9848	721217.859781408062	5026.3305143894
0	9857	722412.797602161764	5543.5561895902
0	9873	723112.579000901497	4212.7592500077
0	9885	723708.817754637426	3575.0827360517
0	9890	723990.721092529818	3975.5344461153
0	9899	725691.981505081455	5482.0198781599
0	9919	730483.608626405931	7997.4353114622
0	9959	739761.509554780047	12209.895257015
0	9979	740701.232701567491	3687.6389021641
0	10003	741558.072570204921	4082.5770221943
0	10050	743457.579577819803	5976.5345295707
0	10058	743850.008733612307	3850.2733887506
0	10089	744746.580589500389	4203.3628224051
0	10109	745362.687920445234	4500.2626252394
0	10114	745642.808975190039	4159.87465471
0	10122	745960.141580392305	4221.7089611303
0	10130	746225.458568139799	4077.4655561185
0	10144	746864.389153689692	4528.6299386527
0	10149	747134.398372720153	4205.2250363464
0	10161	747780.436963152099	3803.8671540064
0	10166	748057.276243335036	4046.359929213
0	10175	749293.938661261187	4617.4220064529
0	10223	755627.843012510134	9555.8528787859
0	10228	755951.973397416216	4121.89326152
0	10249	757911.359059741494	3559.7656388356
0	10257	758156.584178861887	6310.4486382772
0	10280	760307.175789393141	5599.2934210921
0	10297	761400.626642043067	4665.9401188345
0	10322	763143.163507453496	5200.1960223604
0	10331	763900.099132051038	4203.1788242612
0	10352	765899.9603257496	3633.7320006391
0	10357	766147.610348563685	5714.369729669
0	10396	767639.094598841247	5346.5199269075
0	10427	769428.201222158238	3249.2420149841
0	10432	769709.323177970386	5538.3558493743
0	10440	770097.471459927352	3405.5364439124
0	10460	771072.581342488253	4115.380775492
0	10471	771366.388777997027	4032.0072682517
0	10482	772077.494949334262	4579.079233611
0	10510	773782.805013443298	5711.028684946
0	10524	774411.48796605402	4182.7028807344
0	10533	775806.47848516744	4596.3676697255
0	10545	776892.559062963243	4611.2192392505
0	10550	777169.023148706846	3988.8393072512
0	10573	781283.098540512895	7561.0630845357
0	10631	784648.673528959547	6975.4533404173
0	10640	784993.724647016844	4022.7541301484
0	10645	785258.259515004964	3739.5312072528
0	10662	786081.877057973707	3480.3069019047
0	10685	787278.719463787972	3927.641762186
0	10698	787877.060614754383	4161.5846762578
0	10712	788529.249263412449	4662.1168384826
0	10735	790296.368363164829	4830.7836567264
0	10773	791737.647594285196	5064.067735044
0	10778	791984.347978814594	4870.1857192561
0	10787	792542.397471103881	4814.8606177653
0	10795	793027.744348101954	4126.9513820681
0	10843	795055.507542373912	4843.7451637494
0	10848	795323.097546807074	4822.9722305954
0	10854	795651.557503992688	5117.8440753229
0	10869	797131.892647015135	3600.0437281966
0	10877	797462.282270392185	3488.3297837683
0	10882	797762.332058353739	4239.9371476869
0	10891	798057.042117936847	7012.7248623439
0	10933	801454.855404232351	3687.329999583
0	10942	801717.76092386549	7317.6088777331
0	10947	801977.176792853576	3882.104964412
0	10957	804462.927934099145	6248.2284680475
0	11003	807886.778743235426	7042.624703686
0	11033	809101.733499440225	4634.7597026969
0	11044	809713.739504190627	4113.3427142752
0	11058	810526.155966748157	4301.0199280378
0	11069	810835.175854082218	3125.0622269725
0	11086	811535.08594480324	3517.2960132375
0	11094	811820.859278703625	4533.6767324465
0	11108	812852.557828985332	4362.1430819569
0	11120	814111.860057137217	4622.9782210662
0	11148	815266.360527617189	4708.9203903559
0	11168	817561.198322079606	3820.8921404118
0	11179	818012.486136311298	6311.3739092339
0	11204	818956.034851501661	4027.4504118183
0	11209	819241.99392024414	4877.660690435
0	11238	821106.001818025932	6085.5198008829
0	11243	821403.634946299076	3540.2221945104
0	11272	824018.048098059034	3855.064216104
0	11277	824327.824511032066	6207.4017050277
0	11286	825308.58269303353	5112.3611448644
0	11314	826571.956442183067	4163.1550477384
0	11353	828974.83967137751	3421.9962998784
0	11365	829461.691363922243	6065.671947771
0	11381	830010.106937483646	4030.4293744922
0	11389	830323.560874341704	4053.5304955207
0	11398	830588.771561010904	4012.9924266771
0	11403	830926.404454091699	4228.600225456
0	11412	832329.737317824536	5184.5341565023
0	11458	836304.927271033544	7048.2848699164
0	11473	837858.625741253461	4402.1166570305
0	11485	838803.419322795797	4136.7121140465
0	11490	839112.004229116635	3871.7189002834
0	11498	839391.826086216001	3832.9779951246
0	11549	843019.977644657427	6936.9987941502
0	11558	844277.181639280639	4660.9526914886
0	11569	844623.109505453674	3766.1497621341
0	11578	844958.287233429838	3695.8652545087
0	11583	845258.211150132671	4138.0125739922
0	11626	848712.538820426102	6735.2115253604
0	11635	849699.101261403841	3920.6584914095
0	11643	850140.082943726847	3648.070828719
0	11655	851506.991201008396	4852.4342842491
0	11695	854969.272403382016	7180.4200471148
0	11703	855261.25894119504	3939.8642758972
0	11712	856207.202784413489	3865.9866745672
0	11724	857171.851794694395	3980.0854572088
0	11755	859954.714985221514	6279.2476405937
0	11772	860916.898369578437	3932.1555226332
0	11783	861383.343900913848	4056.1220225169
0	11814	863446.343430977248	6062.331481115
0	11826	864810.831966307701	3654.1916146908
0	11843	865421.073893504586	5303.4685037844
0	11856	866028.543208543608	4113.0416596049
0	11877	868325.784799759325	6168.5822030108
0	11891	868958.947949139763	4230.8577176977
0	11919	871160.170040862867	5951.4654371535
0	11925	871424.677115495526	3699.7279872175
0	11942	872822.088945182057	4683.6936037133
0	11950	873389.200824506862	3786.8511381191
0	12018	877298.705048352897	7638.2655865743
0	12026	877856.072657677201	5856.5203498912
0	12035	878608.088134438864	3506.2070098061
0	12046	879002.627474577766	4014.0239910716
0	12066	879783.687136832348	3819.8799132687
0	12074	880082.113999324398	4733.129353647
0	12079	880396.6402897693	4082.9757822253
0	12087	880696.665451313133	5368.1082305109
0	12134	882812.936946134355	6478.9329652897
0	12151	883893.80997338791	4909.9148533735
0	12159	884168.970075631688	3664.3203207253
0	12171	884787.540979459556	3496.6711177894
0	12179	885098.498434477995	3170.677432328
0	12187	885385.21285748105	4125.1706469049
0	12202	887219.184556133879	5220.5192648586
0	12211	888241.057902724093	4877.3585215361
0	12257	892285.353086532496	7016.1750016365
0	12282	893149.917469309995	4257.7751020767
0	12287	893380.347617935425	3597.6552518011
0	12302	894810.997096318109	4452.0499078747
0	12338	896101.097663596852	4587.2555119263
0	12354	897008.030602841451	5029.5074607033
0	12363	897965.291492565337	5592.7929077228
0	12377	898638.384875916237	3831.9424200394
0	12388	899170.086229690005	4389.3357362445
0	12396	899497.0120372389	4381.5149162938
0	12404	899754.527037996475	3941.7825342051
0	12414	901855.611280195627	5977.2026685855
0	12449	905222.125639069747	6802.7973546073
0	12457	905677.166940286713	3436.7696174075
0	12503	908549.415285861819	5955.2057730036
0	12527	909415.060601043317	5200.7536831483
0	12560	910722.556632834582	4045.6143283566
0	12566	911027.729154876212	3834.3618550694
0	12577	911636.224661009519	4032.3326671841
0	12585	911904.523676336505	4066.5649656479
0	12591	912243.584640328073	3802.0044993392
0	12599	912622.191741800565	3220.6621398378
0	12607	912966.787280258191	4108.9988016274
0	12616	913592.30633855228	3844.5725380395
0	12655	918365.355578246142	2723.7434782316
0	12668	918979.371203137562	9205.9832511092
0	12697	920420.456364722044	4612.6404607305
0	12721	921534.976951023672	4532.3636072957
0	12766	923147.60076626249	5015.1066982361
0	12779	923699.623929874751	4347.1912929232
0	12790	923981.313400087026	4115.6268999289
0	12815	925013.897371525648	4676.8103373509
0	12824	925345.689551203602	4651.2731685325
0	12851	926265.591493106069	4811.3961653301
0	12860	926550.776899989113	4723.348287603
0	12873	927100.022364019633	5066.3815952011
0	12884	927410.398545869021	4978.0317225782
0	12895	927994.162077531415	5040.9348060152
0	12903	928351.267736381924	4443.57444267
0	12908	928641.436430899931	4548.8434813176
0	12917	929320.561623371675	3986.2861925343
0	12925	929969.786070887678	4430.4595117285
0	12934	930735.439412606083	4423.1774355127
0	12961	934050.91288910127	6698.2827039515
0	12994	935553.935344792868	4773.8326256782
0	13012	937566.089668903835	3315.9260542218
0	13023	937923.720783856695	6202.5564455251
0	13028	938197.6082191506	3801.2087080773
0	13054	940501.692988261788	5567.2688921374
0	13091	942749.538235228444	6176.785663886
0	13096	943057.134423092493	3697.3194755106
0	13108	944226.587527856459	4327.5600710357
0	13130	945298.510191011212	3903.7150056952
0	13139	946284.464619318926	4805.6367598941
0	13151	947627.958372986966	5476.0259133195
0	13156	947979.97459939443	4020.531801797
1	959	61441.459677063063	0
1	976	62834.326678539792	0
1	1004	68092.822751126816	0
1	1014	70050.239107635834	0
1	1031	71960.211543434451	265.92094730863
1	1040	72402.41880173392	0
1	1056	73103.013763578633	128.39228282251
1	1065	73616.460919589628	0
1	1082	75177.669720698886	154.22940693759
1	1116	76893.199005221344	0
1	1124	77739.500195450928	0
1	1142	79578.638373981764	0
1	1168	82160.603735313513	0
1	1176	82737.947715157955	0
1	1188	83093.873223765231	202.50619998593
1	1201	83870.537218301264	0
1	1210	84564.085276085484	0
1	1235	85787.685578766069	61.150653035005
1	1260	87056.378643134656	172.26997067965
1	1277	87977.016350182963	0
1	1285	88220.579090397551	22.262462084276
1	1329	92782.674795454069	0
1	1337	93175.153528009027	0
1	1347	94943.685585432253	0
1	1355	95675.158343823986	0
1	1381	97329.341219544932	0
1	1389	97772.568443166144	0
1	1400	98100.97337776521	34.930328336295
1	1434	100683.119152663755	220.75047197422
1	1451	101327.859912244209	283.7444050278
1	1465	102477.951957162848	0
1	1473	102819.100406076793	123.39530829642
1	1499	105275.058679380638	0
1	1507	105585.919779789343	0
1	1533	107786.29503373095	0
1	1545	108094.509339256767	302.55097204177
1	1553	108409.540208965314	362.00227425478
1	1569	109042.478182579327	286.13594842358
1	1595	111326.401314038141	320.61333057055
1	1604	111619.862214038834	137.07130202706
1	1634	113674.396343005797	0
1	1643	114016.751935541192	109.63601018091
1	1651	114281.942931135129	0
1	1675	115189.270855473031	16.385865307366
1	1699	117439.63194237013	196.45220287037
1	1713	117956.247771660456	9.958414603739
1	1735	119487.162918076147	0
1	1760	120958.610036233836	268.6359547123
1	1769	121233.081318425922	1.663504483842
1	1777	122320.275352426544	0
1	1794	123141.629504866102	0
1	1838	128195.251205709916	0
1	1859	133272.766521879706	0
1	1867	133564.232841699693	291.14049392387
1	1876	135452.373810779873	0
1	1902	137654.066550335869	0
1	1920	139976.819087212553	0
1	1929	140441.118862597073	0
1	1937	140682.799868890285	6.239550125191
1	1954	142334.669753471083	0
1	1997	145876.712515453889	0
1	2007	148606.184914061943	0
1	2019	148950.488289757805	226.6048017467
1	2033	150700.8650359781	0
1	2060	153754.263767706732	0
1	2076	154351.349641785771	0
1	2085	155390.889195027752	0
1	2093	155861.639600752199	0
1	2102	156332.560502250776	0
1	2145	159939.18387856942	0
1	2161	160477.666367006695	219.29105652884
1	2170	160855.396329149554	0
1	2178	161126.927275065203	241.94280048324
1	2187	162570.516689818066	0
1	2195	162917.706224507288	70.099078907048
1	2237	164697.972454289922	0
1	2272	168605.069191381316	0
1	2280	168916.47073728287	147.5094825888
1	2289	169397.261640953086	0
1	2297	169705.526104736114	154.20878630036
1	2305	170293.815267658794	0
1	2331	171968.885072004549	151.10897432395
1	2364	173538.389298164415	149.63650730245
1	2382	176212.910644136661	0
1	2391	176853.671077806771	0
1	2408	177651.285579884366	0
1	2416	178015.930679993133	0
1	2425	179177.793008899811	0
1	2459	181377.439923783516	0
1	2470	181707.633435413685	113.46237411937
1	2483	182290.249411078483	278.57631719155
1	2509	184423.220576028229	0
1	2526	185034.241564838434	124.800878909
1	2534	185306.518839595372	195.05278318951
1	2550	185922.421389020476	187.56976803784
1	2583	188713.542336107632	201.86639412036
1	2602	189673.126992929783	0
1	2610	190193.45203731164	0
1	2619	191336.660613356249	0
1	2636	192268.433616665929	120.96180170252
1	2644	192539.971174926234	98.611208056204
1	2652	192766.003912250725	211.47378908354
1	2666	193053.161615113093	220.43207381563
1	2675	193333.391292331857	484.27698965742
1	2702	194994.971819001595	0
1	2722	195620.897307469742	95.190089735714
1	2760	197088.758354089066	279.12606379315
1	2786	199773.617013798743	0
1	2803	200725.828257756794	0
1	2811	201006.369994822508	219.43832906306
1	2829	203784.095243751651	0
1	2855	205787.299781191783	0
1	2872	207519.057567409879	0
1	2902	213615.411398895285	0
1	2910	213950.550582060625	0
1	2918	214235.054110722455	22.302265296903
1	2926	214552.243025302701	36.602839405536
1	2935	215948.49269718393	0
1	2944	216407.332134269517	0
1	2980	217973.030387476955	185.68213168254
1	2994	218585.767559276591	147.13057057823
1	3002	219146.945026572263	0
1	3016	219460.906801072614	253.64972969867
1	3035	220351.589305392894	67.03002676661
1	3052	221366.588769397647	0
1	3103	225006.490493875567	23.022941802134
1	3111	225264.520064707255	39.138846070692
1	3120	226641.19983650867	0
1	3129	227252.6899828323	0
1	3137	227708.356795448916	0
1	3162	228656.513023842501	132.32135075488
1	3171	229577.384925542621	0
1	3187	230276.978102324078	0
1	3213	230867.175942389444	101.34200386999
1	3218	231116.255427478221	282.16219956516
1	3223	231435.152142580011	572.43241713819
1	3245	232319.721978060857	332.49633039475
1	3256	232668.22961395407	194.93347175062
1	3278	233597.907601126015	228.14943493817
1	3295	234237.990480063137	87.815996138394
1	3309	234553.601808644656	213.48011716661
1	3317	234887.765381558775	151.40378205932
1	3352	236350.04173106507	155.95097038135
1	3386	237943.531906737943	0
1	3421	241743.781612997137	1.18758301399
1	3430	242607.321145479801	0
1	3439	244389.197027832264	0
1	3456	245669.110415725797	120.93932442965
1	3473	246342.016118889865	195.58434870814
1	3481	246865.736033989077	0
1	3490	247409.408938529714	0
1	3535	250190.40233520232	250.88027851643
1	3549	250837.801830386283	0
1	3577	255645.569438163817	0
1	3585	256095.91144546404	0
1	3593	256612.686651119414	0
1	3614	258640.844846008942	120.02459911478
1	3647	263768.621056419157	0
1	3656	264716.95788035587	0
1	3664	265017.077828068221	245.54847399285
1	3673	265857.040986130563	0
1	3699	267927.713600046245	101.04712261701
1	3736	274788.482962752631	0
1	3745	275581.02705645615	0
1	3763	277614.711631730299	234.09432836673
1	3771	277904.175427219186	0
1	3788	279111.435669803132	0
1	3823	282280.973916860293	0
1	3831	282534.427682779902	159.04169940919
1	3840	283223.119981262858	0
1	3848	283864.152351620476	0
1	3856	284325.501397830642	0
1	3907	287742.921188841538	242.06243755841
1	3916	288028.079613559576	69.974971174592
1	3927	288301.283193474918	203.88563364877
1	3938	288594.231308112327	405.09660161511
1	3943	288917.107393777883	545.31318506299
1	3948	289150.490886188641	664.05401276589
1	3957	289746.516080004749	0
1	4002	292182.507109162843	188.78293271094
1	4013	292441.778243502986	117.02464665112
1	4030	293035.349503429602	299.58833240936
1	4038	293312.322465795216	76.789229843615
1	4091	297141.767540143421	0
1	4099	297452.686891323499	273.04949552794
1	4108	297705.059872107119	51.033653134873
1	4119	297978.785439415708	210.12012655517
1	4124	298316.273734750333	512.40589016068
1	4176	303261.092167768246	0
1	4185	304436.067409218026	0
1	4194	305227.769181756849	0
1	4203	306038.316862644372	0
1	4245	309295.584838427722	0
1	4254	309615.113192144076	132.96291564066
1	4262	310461.578443332811	0
1	4270	310733.202494072575	163.52977729628
1	4296	312874.620563213649	197.41971388385
1	4322	314613.498202647615	0
1	4330	314914.397269918349	117.9943947931
1	4347	316654.408434394325	0
1	4356	316940.291996299001	51.996956581877
1	4364	317482.241505380487	0
1	4384	318137.365120562006	267.27914066249
1	4392	318471.837224896212	540.7549911012
1	4405	319123.647029177904	59.253642930158
1	4417	319507.012884319688	324.37448812566
1	4422	319827.875612047809	496.21792806625
1	4463	321482.798292359143	110.21912365709
1	4518	328808.306026750977	0
1	4527	330466.784862241096	0
1	4535	330693.451083333777	192.73013320954
1	4546	330998.567600242441	262.97945170928
1	4552	331282.197495324384	398.7678709396
1	4569	333197.331710313645	0
1	4589	333818.740523051119	324.31929627082
1	4619	335155.442354183308	159.50440265119
1	4645	337346.067114352343	0
1	4653	337706.900673653402	0
1	4671	340140.083575095279	0
1	4696	340978.935083852964	164.47250088645
1	4705	343060.268681772463	0
1	4714	343387.875756933957	0
1	4739	345334.801917966407	0
1	4764	346347.126108594978	0
1	4772	346729.624207456496	0
1	4799	349324.66979790989	0
1	4816	350602.928562822218	0
1	4825	351937.17278292926	0
1	4843	354073.088804174572	0
1	4859	354832.82180196034	0
1	4885	357063.082841882277	191.48124050532
1	4903	359147.719326302647	0
1	4911	359696.961919178174	0
1	4928	360791.713639596896	0
1	4945	362134.797742468967	0
1	4971	364243.68427768057	0
1	4979	364672.787540143671	0
1	4998	367245.66348130179	0
1	5009	367545.683153297353	216.71651271447
1	5020	367807.994321193992	317.08642251569
1	5039	368693.264307069296	209.82674670623
1	5068	370820.358717337422	99.244001064555
1	5100	375084.328028550743	0
1	5109	375689.268555573754	0
1	5117	375981.858268172666	90.587467524657
1	5125	376204.405763618914	207.26925899044
1	5134	377352.709853076647	0
1	5157	378552.777589793767	95.116600004466
1	5162	378884.80143806722	369.09562269083
1	5219	383455.700429910248	0
1	5229	385263.290446018212	0
1	5246	386800.49316926419	0
1	5254	387103.138665943361	216.28256128632
1	5271	388075.998551459638	112.25022278391
1	5280	388830.997808877731	0
1	5296	389502.100404119108	20.555696249189
1	5304	389830.109213194664	0
1	5321	390668.689084797187	0
1	5332	390950.875959363827	269.07107929069
1	5344	391251.485630769428	353.41125823452
1	5352	391488.302507821428	415.26550633318
1	5360	391798.546083912149	401.0231490496
1	5423	394715.486891483903	180.36455549176
1	5446	396480.766101323862	0
1	5454	396838.610914663194	123.78425155774
1	5471	397814.85667454333	176.25214666772
1	5497	400255.693799632041	82.434732122688
1	5514	401955.650166319129	0
1	5523	402350.70790647508	0
1	5549	405169.078426212839	241.65858685444
1	5567	407809.79828070062	0
1	5584	409176.3061833117	0
1	5594	410518.496272857737	0
1	5610	411169.725230058923	57.591117950431
1	5619	411799.809607203714	0
1	5636	412991.824087948496	0
1	5661	414422.108768501563	161.41788924673
1	5686	416033.1226484274	0
1	5697	416302.394858929417	170.79322979279
1	5703	416587.877061746229	415.82063583597
1	5720	418450.796773475188	0
1	5765	424310.68404110791	0
1	5773	424740.335299423607	0
1	5782	425073.116165991938	295.28427061561
1	5791	426802.609502809285	0
1	5825	429072.738902131921	0
1	5843	431454.736099102788	0
1	5851	431776.537129398633	318.85329863871
1	5863	432083.546724785731	191.58733016247
1	5871	432442.372338609522	8.603883893012
1	5882	432725.967779239716	167.09988908204
1	5887	433012.577578131318	450.21176523768
1	5921	435174.818831741769	216.8849715568
1	5972	438683.892673046989	195.42695734722
1	5977	439015.228518595371	496.88812095219
1	5989	439336.066506019928	318.90634127608
1	5994	439647.946825675774	401.14614176655
1	6003	441075.282424383472	0
1	6054	445144.00394484799	0
1	6074	449715.12226477887	0
1	6083	450969.62832455863	0
1	6092	452060.870587674077	0
1	6101	453101.672625156528	0
1	6126	454218.836520323368	0
1	6135	455295.480377887548	0
1	6146	455639.179369330515	160.81565879586
1	6154	455892.36754959703	237.38815032835
1	6163	456236.216491899492	125.92661833155
1	6187	457132.724510210162	115.78063838732
1	6201	457909.837275557877	0
1	6209	458239.621837194745	15.134523996989
1	6251	459776.215787198419	65.644908381689
1	6267	460342.746487749787	211.48245333481
1	6311	464814.922700709256	0
1	6319	465168.428061227061	191.91139062267
1	6328	465991.861351716639	0
1	6337	467330.158039348931	0
1	6382	473995.203342353193	0
1	6391	474967.305411677544	0
1	6400	475634.872096765017	0
1	6417	477301.778094025983	270.99757088222
1	6443	479488.502367851523	0
1	6452	480074.905301001644	0
1	6468	481152.126273089205	0
1	6477	481560.992692840604	0
1	6485	481957.492679338008	0
1	6494	482856.540925286629	0
1	6539	484994.288529107809	235.79760733234
1	6561	486188.770397856035	212.76596084835
1	6570	488046.129142594938	0
1	6587	488545.799595271866	18.18789557493
1	6621	491836.827468271347	207.63556015013
1	6641	495626.18581086717	0
1	6649	496515.311057340907	0
1	6658	497008.151277765677	0
1	6667	498201.233877690158	0
1	6700	499942.191452224559	64.287576204012
1	6708	500245.06972336316	251.61709334552
1	6726	502690.463751002577	237.14521413984
1	6752	504753.670731538754	0
1	6769	505986.74755011206	23.903675822037
1	6778	506622.984366917148	0
1	6786	507375.18855923504	0
1	6830	511944.46318616462	0
1	6839	513470.644675140486	0
1	6849	514942.888967086629	0
1	6875	517405.005354829157	0
1	6883	517720.82753336988	101.09363815692
1	6894	518003.153985529209	255.50004082219
1	6908	518696.510586053854	0
1	6953	524563.224048328504	0
1	6962	526566.441322237837	0
1	6981	529354.851365709474	0
1	6998	530908.772462069527	0
1	7006	531221.659511401727	174.38100971079
1	7024	532985.562101841966	0
1	7049	535074.311384517449	0
1	7067	536524.004234369442	0
1	7075	536838.990364565057	273.22341393754
1	7084	537774.095682076655	0
1	7100	538465.292529400433	121.11021501403
1	7144	543567.724042674528	0
1	7153	544458.315095490241	0
1	7172	547225.311788923591	0
1	7189	548975.171726212097	0
1	7197	549467.806206791734	0
1	7233	554163.035990894816	0
1	7242	554493.984609083848	197.49697995604
1	7251	556257.980912687934	0
1	7268	557472.009169299347	0
1	7285	558868.453454940976	0
1	7294	559565.291036971737	0
1	7305	559905.481003740903	212.32613441646
1	7336	562356.953016649776	127.7027291142
1	7362	565017.985616229795	0
1	7379	566314.0058634827	0
1	7389	567822.095298165197	0
1	7400	568104.931779439079	22.62383853201
1	7413	568746.704793516117	0
1	7448	571713.386996980556	0
1	7465	572535.001137180743	0
1	7473	573108.352522604665	0
1	7491	574866.579142140181	59.31349659031
1	7499	575195.384127961898	177.89162756883
1	7510	575524.606319168143	78.401629876394
1	7524	576137.967881866484	0
1	7540	576728.026092913282	96.900392506001
1	7549	577593.590662847636	0
1	7574	578705.677279929235	0
1	7607	580516.895256259585	0
1	7627	581216.961994718018	165.30407311349
1	7635	581541.598186693497	344.81817608121
1	7643	581842.132743507201	382.20297043316
1	7657	582492.710739553245	323.76577540075
1	7665	582761.094528506291	261.12374629718
1	7682	583774.757374391004	220.21185756575
1	7732	586064.140039986465	0
1	7740	586756.307757207835	0
1	7752	587071.026735369705	148.49455187663
1	7766	588280.84733757675	0
1	7791	590196.55467249199	191.40519079509
1	7827	594426.632279782702	0
1	7836	595224.329287431362	0
1	7864	600298.146049760876	0
1	7873	602007.916119367277	0
1	7884	602284.969947615797	115.34400501513
1	7890	602578.370871722091	359.83897739687
1	7933	606042.14436735319	0
1	7941	606352.712710642686	175.025474844
1	7949	606653.906179340507	51.1162517555
1	7957	606963.249945403113	270.01918889788
1	7966	607430.58677119665	0
1	7984	609693.360447817948	2.031240324776
1	8025	611666.703624851566	0
1	8034	612032.708555419375	0
1	8042	612327.717488560507	50.945192605843
1	8059	613792.856179863378	0
1	8070	614130.281528556962	153.1869896161
1	8076	614452.969288890174	343.25218751073
1	8109	615995.382872247473	0
1	8117	616337.533286348752	145.19913000614
1	8125	616617.503681100968	177.08606567809
1	8167	618733.81387415291	46.66993137789
1	8178	619012.016346971927	157.74312538619
1	8184	619282.004095644956	414.71083391317
1	8195	619575.380423205809	227.56916260804
1	8217	620782.898727735622	0
1	8226	621752.479329162498	0
1	8267	623463.482488282475	0
1	8284	624484.674081268813	0
1	8301	625237.154289306071	0
1	8327	627650.241070307944	227.13779347344
1	8343	628783.916895172655	0
1	8352	629089.860113782428	178.12662554205
1	8360	629369.350129678824	244.39449740819
1	8369	630512.268779208544	0
1	8380	630807.187882810124	24.098781927275
1	8419	632903.272635574204	73.573676671483
1	8427	633247.930597674257	0
1	8435	633532.282880123698	158.01132421774
1	8478	636369.236925564058	9.133495799082
1	8495	637382.761678417503	0
1	8503	638227.052779228526	0
1	8529	640501.410202909488	196.1596745284
1	8556	643853.801942774971	256.44896846412
1	8565	645178.249316021508	0
1	8574	645741.111285563251	0
1	8582	646663.39960745057	0
1	8594	646975.355686314429	257.27679973663
1	8605	647270.158866199592	433.90226480353
1	8610	647591.105828252575	406.22771762411
1	8621	647902.919676384194	6.786505466588
1	8630	648196.133585924326	293.14957062298
1	8638	648479.358404523852	281.05420882083
1	8649	648793.106090303103	303.60155384546
1	8696	650586.619419936115	137.02786244903
1	8747	652593.03665221445	213.32772168119
1	8756	653301.378251702735	0
1	8772	653926.368635059734	70.594655396341
1	8781	655162.023849485509	0
1	8815	657227.092211038225	0
1	8832	658723.480596895434	11.102586121267
1	8841	659437.11246491286	0
1	8849	659998.733777708841	0
1	8858	660292.091867928659	33.733082162446
1	8874	660994.531243981686	345.84971840499
1	8894	661954.482834029843	269.49916898218
1	8899	662256.167686045675	491.73311127249
1	8919	662858.774940479225	260.25705097064
1	8927	663167.046850184442	287.77625980601
1	8944	663738.062481266555	115.60495507242
1	8955	664089.149335075786	194.29593943585
1	8990	665750.675036973435	0
1	9032	667300.981344325111	287.33402389573
1	9040	667617.363467490246	194.92986922219
1	9048	667995.394759356524	0
1	9056	668338.412799129136	4.517372784635
1	9073	669293.559191107955	0
1	9082	670313.088554564961	0
1	9110	671141.276926020986	210.05499992602
1	9140	672790.85496156381	0
1	9148	673195.806072806086	0
1	9183	675716.595087562824	0
1	9199	676296.304624281928	13.968029133143
1	9207	676630.423782111977	76.804814190202
1	9216	677075.577322291514	0
1	9224	677355.870478484951	272.77038379749
1	9233	678297.840516491289	0
1	9249	679166.63507558613	0
1	9258	679683.576909968618	0
1	9316	682270.471409307031	0
1	9334	684118.207362339178	0
1	9342	684700.980422719901	0
1	9356	685004.533575009848	132.99180634489
1	9362	685311.870084657125	334.85169721739
1	9376	687157.072177100085	0
1	9418	688938.120008904563	0
1	9426	689197.614637176889	243.4985424559
1	9434	689503.459441414057	289.47529797162
1	9445	689804.115608410843	244.11707968194
1	9459	690269.982489819487	34.564646649776
1	9510	694512.488761444322	0
1	9519	695793.313145453169	0
1	9546	699408.829924723234	0
1	9556	700848.469926497317	0
1	9573	702787.409949055066	0
1	9591	705209.980079473255	0
1	9608	706388.221517248912	0
1	9616	706708.524268126651	52.296755399726
1	9625	707839.991962447415	0
1	9651	709878.989293784637	0
1	9668	710525.233241270941	173.3360711166
1	9676	710838.410108992783	98.68456117145
1	9693	712311.390882755798	0
1	9701	712650.504171520715	0
1	9744	715488.269031325128	0
1	9755	715832.021409268439	74.861524449583
1	9768	716390.526882616468	198.99761559782
1	9777	716869.241412571542	0
1	9803	719060.55253689654	160.73278600272
1	9820	720015.186646414512	0
1	9831	720239.151406973508	105.41638838781
1	9839	720568.854617420217	358.89299049871
1	9862	722486.173314943763	0
1	9906	727551.614297764947	0
1	9930	737013.593799403435	0
1	9938	737475.49554801059	0
1	9946	737763.835846943961	282.79079869489
1	9964	739999.735344861713	0
1	9981	740701.232701567491	158.01493447221
1	9989	740972.360307489009	109.93501228314
1	10005	741558.072570204921	75.138249724851
1	10014	741856.244991352738	117.81237209074
1	10022	742177.894172073591	29.90116005227
1	10030	742499.714864013221	163.95564897626
1	10039	742929.173336373726	0
1	10063	743976.569809145653	0
1	10075	744218.132309801593	207.21599567957
1	10091	744746.580589500389	70.063934692096
1	10132	746225.458568139799	153.4684344156
1	10182	751830.080135896196	0
1	10190	752131.502756740559	285.36721615587
1	10200	754351.593420905845	0
1	10208	754707.882368301059	0
1	10234	756734.686523208539	0
1	10259	758156.584178861887	213.61669376878
1	10269	759696.920307789841	0
1	10285	760433.240618894652	0
1	10303	762266.228325110524	0
1	10314	762607.620188780943	315.04551684718
1	10336	764170.9673285961	0
1	10362	766178.95920717412	0
1	10370	766691.935016014987	0
1	10379	767009.380398078015	52.179831081734
1	10398	767639.094598841247	304.71308909595
1	10403	767968.847973922521	470.43225819923
1	10412	768297.616980769762	225.84065227247
1	10445	770228.785085319619	0
1	10473	771366.388777997027	156.27796255506
1	10487	772281.339823712766	0
1	10496	773180.183841455615	0
1	10512	773782.805013443298	60.769557466064
1	10556	777673.220188542198	0
1	10575	781283.098540512895	312.12802364441
1	10583	781620.192298287751	101.46399053562
1	10592	782601.570156068961	0
1	10600	783351.077701602004	0
1	10609	783715.475938496598	0
1	10617	784049.28261466088	182.15018973106
1	10650	785465.584706438409	0
1	10667	786673.579859241232	0
1	10687	787278.719463787972	164.55720422945
1	10700	787877.060614754383	149.52376141583
1	10717	788900.792966033885	0
1	10737	790296.368363164829	84.605984540317
1	10748	790552.02525803868	51.899941826983
1	10754	790843.249039279913	309.53561061011
1	10762	791160.031651685974	115.71439609303
1	10801	793522.394910666877	0
1	10812	793851.114393140489	319.26547432198
1	10823	794201.395500508114	227.4430138842
1	10835	794478.742366278291	78.590320145899
1	10893	798057.042117936847	289.51671328749
1	10904	798371.897651729552	276.82582328798
1	10909	798675.234436482326	460.53497043073
1	10919	800844.154039549385	0
1	10962	804466.973796743295	0
1	10971	805600.396789915377	0
1	10979	806225.136038710401	0
1	10988	807287.182546257113	0
1	11005	807886.778743235426	176.66511612569
1	11013	808159.477486277868	141.68755471218
1	11021	808490.41474702841	0
1	11046	809713.739504190627	224.85766811958
1	11071	810835.175854082218	277.73571682096
1	11096	811820.859278703625	119.74705162621
1	11122	814111.860057137217	371.55387546939
1	11130	814378.907983085656	14.574753276467
1	11150	815266.360527617189	337.7760879338
1	11155	815561.340550439808	540.85853329681
1	11181	818012.486136311298	149.07338452265
1	11189	818325.103291328543	204.68048532414
1	11215	820162.983881955049	0
1	11223	820474.966078475115	278.74453030601
1	11249	822408.801394444654	0
1	11258	823396.019416151243	0
1	11291	825552.843371499077	0
1	11300	825979.677562991473	0
1	11316	826571.956442183067	301.92606336202
1	11328	826985.777760970526	409.99862663672
1	11336	827270.225820393957	572.42159175823
1	11341	827591.441216555083	446.23805523283
1	11367	829461.691363922243	205.0489628051
1	11418	833456.509084222938	0
1	11427	834666.707208749262	0
1	11436	835240.285328833212	0
1	11444	835558.848091091372	0
1	11460	836304.927271033544	221.94842052631
1	11503	839616.228947792013	0
1	11512	840856.959743319561	0
1	11520	841182.999137003201	62.800560862767
1	11529	841543.070458803636	280.64847988249
1	11537	841977.327295065685	0
1	11588	845778.44276999431	0
1	11597	846492.012115007798	0
1	11605	846785.092663970544	130.5357472112
1	11614	847788.852356267246	0
1	11657	851506.991201008396	185.59653571057
1	11666	852341.21610984627	0
1	11674	853191.766337485591	0
1	11683	853675.467344627862	0
1	11726	857171.851794694395	187.10894774912
1	11737	857460.626863917748	133.40498552078
1	11742	857789.84979782317	405.83784796087
1	11760	860117.605389720195	0
1	11785	861383.343900913848	226.70354929696
1	11794	861915.501548938733	0
1	11802	862230.072312276214	72.869715527683
1	11828	864810.831966307701	82.741734865652
1	11845	865421.073893504586	212.36928979523
1	11863	867724.949128278052	0
1	11879	868325.784799759325	187.38945829061
1	11896	869602.349686387784	0
1	11904	869912.929376348197	252.48991456957
1	11930	871999.552307786024	0
1	11957	874988.603483506203	0
1	11965	875270.236607733927	168.35548310114
1	11976	875568.143342329985	239.58612152776
1	11984	875875.583071266171	526.59842558879
1	11993	876188.307414196651	224.50019063298
1	12004	876473.182387605517	159.51788006147
1	12009	876739.278224965437	405.27424412076
1	12048	879002.627474577766	18.732354563308
1	12089	880696.665451313133	192.01569640672
1	12098	881260.04221057612	0
1	12106	881588.899503945744	298.02964227564
1	12114	881927.821002150039	0
1	12123	882236.363512239286	237.69822096405
1	12140	883363.69938118796	0
1	12189	885385.21285748105	116.03477258504
1	12216	888892.142367233269	0
1	12225	889782.692366134359	0
1	12233	890358.947188443417	0
1	12242	891513.842151670502	0
1	12259	892285.353086532496	306.82994439436
1	12267	892578.030644504831	205.53205966226
1	12304	894810.997096318109	30.246602872642
1	12312	895132.844757652179	326.4023017753
1	12324	895482.586893839002	367.08977289389
1	12340	896101.097663596852	288.35315980551
1	12345	896378.37932878582	499.97071717568
1	12379	898638.384875916237	219.05659145377
1	12419	902240.397322879181	0
1	12428	902594.209512858231	0
1	12437	904214.306917894997	0
1	12463	906676.942304477989	0
1	12471	907193.367299806843	0
1	12480	907603.891993825385	0
1	12491	907965.174999597464	127.21628890887
1	12505	908549.415285861819	107.83514487297
1	12513	908857.788478630761	0
1	12529	909415.060601043317	13.53099908051
1	12538	909747.733800512773	0
1	12546	910075.985644149808	302.59769212142
1	12623	915641.612100014571	0
1	12631	915898.538827333482	90.722923341961
1	12640	917002.613343727996	0
1	12657	918365.355578246142	232.86151021978
1	12674	919352.432636951557	0
1	12682	919865.686500158146	0
1	12699	920420.456364722044	83.369330547273
1	12707	920731.174165691382	36.757783020287
1	12723	921534.976951023672	80.781623247748
1	12732	921827.428612386139	0
1	12740	922141.721215821223	108.08044700265
1	12751	922526.948111862693	94.581288571844
1	12768	923147.60076626249	194.37349474631
1	12792	923981.313400087026	73.620106375086
1	12804	924350.073356829956	257.48040724759
1	12826	925345.689551203602	11.414120366188
1	12837	925657.268261828851	117.94170266964
1	12862	926550.776899989113	238.51492289575
1	12886	927410.398545869021	57.768360719254
1	12939	930780.102719114635	0
1	12948	931721.164338331594	0
1	12966	934250.163614682046	0
1	12974	934538.560713537223	142.16120246397
1	12983	934934.424096124433	0
1	13000	936572.752571342409	0
1	13034	939359.814947581917	0
1	13043	939899.027456820719	0
1	13060	941394.795185316057	0
1	13068	941699.912826196866	221.084966772
1	13077	942151.932459667503	0
1	13110	944226.587527856459	267.144730259
1	13119	944664.336786364931	0
1	13162	948603.991679547281	0
2	957	61441.459677063063	1
2	959	61441.459677063063	0
2	974	62834.326678539792	1
2	976	62834.326678539792	0
2	1002	68092.822751126816	1
2	1004	68092.822751126816	0
2	1012	70050.239107635834	1
2	1014	70050.239107635834	0
2	1026	71694.290596125822	1
2	1031	71960.211543434451	0
2	1038	72402.41880173392	1
2	1040	72402.41880173392	0
2	1051	72974.621480756126	1
2	1056	73103.013763578633	0
2	1063	73616.460919589628	1
2	1065	73616.460919589628	0
2	1077	75023.440313761295	1
2	1082	75177.669720698886	0
2	1114	76893.199005221344	1
2	1116	76893.199005221344	0
2	1122	77739.500195450928	1
2	1124	77739.500195450928	0
2	1140	79578.638373981764	1
2	1142	79578.638373981764	0
2	1166	82160.603735313513	1
2	1168	82160.603735313513	0
2	1174	82737.947715157955	1
2	1176	82737.947715157955	0
2	1183	82891.367023779299	1
2	1188	83093.873223765231	0
2	1199	83870.537218301264	1
2	1201	83870.537218301264	0
2	1208	84564.085276085484	1
2	1210	84564.085276085484	0
2	1230	85726.534925731064	1
2	1235	85787.685578766069	0
2	1255	86884.108672455009	1
2	1260	87056.378643134656	0
2	1275	87977.016350182963	1
2	1277	87977.016350182963	0
2	1280	88198.316628313275	1
2	1285	88220.579090397551	0
2	1327	92782.674795454069	1
2	1329	92782.674795454069	0
2	1335	93175.153528009027	1
2	1337	93175.153528009027	0
2	1345	94943.685585432253	1
2	1347	94943.685585432253	0
2	1353	95675.158343823986	1
2	1355	95675.158343823986	0
2	1379	97329.341219544932	1
2	1381	97329.341219544932	0
2	1387	97772.568443166144	1
2	1389	97772.568443166144	0
2	1395	98066.043049428915	1
2	1400	98100.97337776521	0
2	1426	100462.368680689533	1
2	1434	100683.119152663755	0
2	1443	101044.115507216408	1
2	1451	101327.859912244209	0
2	1463	102477.951957162848	1
2	1465	102477.951957162848	0
2	1468	102695.705097780374	1
2	1473	102819.100406076793	0
2	1497	105275.058679380638	1
2	1499	105275.058679380638	0
2	1505	105585.919779789343	1
2	1507	105585.919779789343	0
2	1531	107786.29503373095	1
2	1533	107786.29503373095	0
2	1536	107791.958367215002	1
2	1540	108047.537934710536	2
2	1545	108094.509339256767	1
2	1553	108409.540208965314	0
2	1564	108756.342234155747	1
2	1569	109042.478182579327	0
2	1590	111005.787983467592	1
2	1595	111326.401314038141	0
2	1598	111482.790912011776	1
2	1604	111619.862214038834	0
2	1632	113674.396343005797	1
2	1634	113674.396343005797	0
2	1637	113907.11592536028	1
2	1643	114016.751935541192	0
2	1649	114281.942931135129	1
2	1651	114281.942931135129	0
2	1670	115172.884990165665	1
2	1675	115189.270855473031	0
2	1691	117243.179739499756	1
2	1699	117439.63194237013	0
2	1708	117946.289357056717	1
2	1713	117956.247771660456	0
2	1733	119487.162918076147	1
2	1735	119487.162918076147	0
2	1755	120689.974081521532	1
2	1760	120958.610036233836	0
2	1764	121231.41781394208	1
2	1769	121233.081318425922	0
2	1775	122320.275352426544	1
2	1777	122320.275352426544	0
2	1792	123141.629504866102	1
2	1794	123141.629504866102	0
2	1836	128195.251205709916	1
2	1838	128195.251205709916	0
2	1857	133272.766521879706	1
2	1859	133272.766521879706	0
2	1862	133273.092347775826	1
2	1867	133564.232841699693	0
2	1874	135452.373810779873	1
2	1876	135452.373810779873	0
2	1900	137654.066550335869	1
2	1902	137654.066550335869	0
2	1918	139976.819087212553	1
2	1920	139976.819087212553	0
2	1927	140441.118862597073	1
2	1929	140441.118862597073	0
2	1932	140676.560318765094	1
2	1937	140682.799868890285	0
2	1952	142334.669753471083	1
2	1954	142334.669753471083	0
2	1995	145876.712515453889	1
2	1997	145876.712515453889	0
2	2005	148606.184914061943	1
2	2007	148606.184914061943	0
2	2010	148723.883488011105	1
2	2019	148950.488289757805	0
2	2031	150700.8650359781	1
2	2033	150700.8650359781	0
2	2058	153754.263767706732	1
2	2060	153754.263767706732	0
2	2074	154351.349641785771	1
2	2076	154351.349641785771	0
2	2083	155390.889195027752	1
2	2085	155390.889195027752	0
2	2091	155861.639600752199	1
2	2093	155861.639600752199	0
2	2100	156332.560502250776	1
2	2102	156332.560502250776	0
2	2143	159939.18387856942	1
2	2145	159939.18387856942	0
2	2156	160258.375310477851	1
2	2161	160477.666367006695	0
2	2168	160855.396329149554	1
2	2170	160855.396329149554	0
2	2173	160884.984474581965	1
2	2178	161126.927275065203	0
2	2185	162570.516689818066	1
2	2187	162570.516689818066	0
2	2190	162847.60714560024	1
2	2195	162917.706224507288	0
2	2235	164697.972454289922	1
2	2237	164697.972454289922	0
2	2270	168605.069191381316	1
2	2272	168605.069191381316	0
2	2275	168768.961254694069	1
2	2280	168916.47073728287	0
2	2287	169397.261640953086	1
2	2289	169397.261640953086	0
2	2292	169551.317318435759	1
2	2297	169705.526104736114	0
2	2303	170293.815267658794	1
2	2305	170293.815267658794	0
2	2326	171817.776097680595	1
2	2331	171968.885072004549	0
2	2359	173388.752790861968	1
2	2364	173538.389298164415	0
2	2380	176212.910644136661	1
2	2382	176212.910644136661	0
2	2389	176853.671077806771	1
2	2391	176853.671077806771	0
2	2406	177651.285579884366	1
2	2408	177651.285579884366	0
2	2414	178015.930679993133	1
2	2416	178015.930679993133	0
2	2423	179177.793008899811	1
2	2425	179177.793008899811	0
2	2457	181377.439923783516	1
2	2459	181377.439923783516	0
2	2465	181594.171061294313	1
2	2470	181707.633435413685	0
2	2478	182011.673093886931	1
2	2483	182290.249411078483	0
2	2507	184423.220576028229	1
2	2509	184423.220576028229	0
2	2521	184909.440685929432	1
2	2526	185034.241564838434	0
2	2529	185111.466056405861	1
2	2534	185306.518839595372	0
2	2545	185734.851620982638	1
2	2550	185922.421389020476	0
2	2575	188511.675941987269	1
2	2583	188713.542336107632	0
2	2600	189673.126992929783	1
2	2602	189673.126992929783	0
2	2608	190193.45203731164	1
2	2610	190193.45203731164	0
2	2617	191336.660613356249	1
2	2619	191336.660613356249	0
2	2631	192147.47181496341	1
2	2636	192268.433616665929	0
2	2639	192441.35996687003	1
2	2644	192539.971174926234	0
2	2647	192554.530123167188	1
2	2652	192766.003912250725	0
2	2658	192832.729541297465	1
2	2661	192849.114302674441	2
2	2666	193053.161615113093	1
2	2675	193333.391292331857	0
2	2700	194994.971819001595	1
2	2702	194994.971819001595	0
2	2716	195525.707217734028	1
2	2722	195620.897307469742	0
2	2755	196809.632290295914	1
2	2760	197088.758354089066	0
2	2784	199773.617013798743	1
2	2786	199773.617013798743	0
2	2801	200725.828257756794	1
2	2803	200725.828257756794	0
2	2806	200786.931665759447	1
2	2811	201006.369994822508	0
2	2827	203784.095243751651	1
2	2829	203784.095243751651	0
2	2853	205787.299781191783	1
2	2855	205787.299781191783	0
2	2870	207519.057567409879	1
2	2872	207519.057567409879	0
2	2900	213615.411398895285	1
2	2902	213615.411398895285	0
2	2908	213950.550582060625	1
2	2910	213950.550582060625	0
2	2913	214212.751845425552	1
2	2918	214235.054110722455	0
2	2921	214515.640185897165	1
2	2926	214552.243025302701	0
2	2933	215948.49269718393	1
2	2935	215948.49269718393	0
2	2942	216407.332134269517	1
2	2944	216407.332134269517	0
2	2975	217787.34825579441	1
2	2980	217973.030387476955	0
2	2989	218438.636988698357	1
2	2994	218585.767559276591	0
2	3000	219146.945026572263	1
2	3002	219146.945026572263	0
2	3005	219207.257071373945	1
2	3016	219460.906801072614	0
2	3030	220284.559278626284	1
2	3035	220351.589305392894	0
2	3050	221366.588769397647	1
2	3052	221366.588769397647	0
2	3098	224983.467552073433	1
2	3103	225006.490493875567	0
2	3106	225225.381218636563	1
2	3111	225264.520064707255	0
2	3118	226641.19983650867	1
2	3120	226641.19983650867	0
2	3127	227252.6899828323	1
2	3129	227252.6899828323	0
2	3135	227708.356795448916	1
2	3137	227708.356795448916	0
2	3157	228524.191673087624	1
2	3162	228656.513023842501	0
2	3169	229577.384925542621	1
2	3171	229577.384925542621	0
2	3185	230276.978102324078	1
2	3187	230276.978102324078	0
2	3202	230765.83393851945	1
2	3205	230834.093227913062	2
2	3208	230862.719725441817	3
2	3213	230867.175942389444	2
2	3218	231116.255427478221	1
2	3223	231435.152142580011	0
2	3240	231987.225647666111	1
2	3245	232319.721978060857	0
2	3248	232473.296142203445	1
2	3256	232668.22961395407	0
2	3273	233369.758166187843	1
2	3278	233597.907601126015	0
2	3290	234150.174483924743	1
2	3295	234237.990480063137	0
2	3301	234340.121691478043	1
2	3309	234553.601808644656	0
2	3312	234736.361599499459	1
2	3317	234887.765381558775	0
2	3347	236194.090760683724	1
2	3352	236350.04173106507	0
2	3384	237943.531906737943	1
2	3386	237943.531906737943	0
2	3416	241742.594029983147	1
2	3421	241743.781612997137	0
2	3428	242607.321145479801	1
2	3430	242607.321145479801	0
2	3437	244389.197027832264	1
2	3439	244389.197027832264	0
2	3451	245548.171091296151	1
2	3456	245669.110415725797	0
2	3468	246146.431770181726	1
2	3473	246342.016118889865	0
2	3479	246865.736033989077	1
2	3481	246865.736033989077	0
2	3488	247409.408938529714	1
2	3490	247409.408938529714	0
2	3527	249939.522056685888	1
2	3535	250190.40233520232	0
2	3547	250837.801830386283	1
2	3549	250837.801830386283	0
2	3575	255645.569438163817	1
2	3577	255645.569438163817	0
2	3583	256095.91144546404	1
2	3585	256095.91144546404	0
2	3591	256612.686651119414	1
2	3593	256612.686651119414	0
2	3606	258520.820246894167	1
2	3614	258640.844846008942	0
2	3645	263768.621056419157	1
2	3647	263768.621056419157	0
2	3654	264716.95788035587	1
2	3656	264716.95788035587	0
2	3659	264771.529354075372	1
2	3664	265017.077828068221	0
2	3671	265857.040986130563	1
2	3673	265857.040986130563	0
2	3694	267826.666477429233	1
2	3699	267927.713600046245	0
2	3734	274788.482962752631	1
2	3736	274788.482962752631	0
2	3743	275581.02705645615	1
2	3745	275581.02705645615	0
2	3758	277380.617303363571	1
2	3763	277614.711631730299	0
2	3769	277904.175427219186	1
2	3771	277904.175427219186	0
2	3786	279111.435669803132	1
2	3788	279111.435669803132	0
2	3821	282280.973916860293	1
2	3823	282280.973916860293	0
2	3826	282375.385983370707	1
2	3831	282534.427682779902	0
2	3838	283223.119981262858	1
2	3840	283223.119981262858	0
2	3846	283864.152351620476	1
2	3848	283864.152351620476	0
2	3854	284325.501397830642	1
2	3856	284325.501397830642	0
2	3902	287500.858751283123	1
2	3907	287742.921188841538	0
2	3910	287958.104642384984	1
2	3916	288028.079613559576	0
2	3919	288097.397559826149	1
2	3922	288189.134706497219	2
2	3927	288301.283193474918	1
2	3930	288371.79420871489	2
2	3933	288486.436873422749	3
2	3938	288594.231308112327	2
2	3943	288917.107393777883	1
2	3948	289150.490886188641	0
2	3955	289746.516080004749	1
2	3957	289746.516080004749	0
2	3994	291993.724176451903	1
2	4002	292182.507109162843	0
2	4008	292324.753596851868	1
2	4013	292441.778243502986	0
2	4024	292735.761171020244	1
2	4030	293035.349503429602	0
2	4033	293235.533235951601	1
2	4038	293312.322465795216	0
2	4089	297141.767540143421	1
2	4091	297141.767540143421	0
2	4094	297179.637395795563	1
2	4099	297452.686891323499	0
2	4103	297654.026218972246	1
2	4108	297705.059872107119	0
2	4111	297768.665312860538	1
2	4114	297803.867844589656	2
2	4119	297978.785439415708	1
2	4124	298316.273734750333	0
2	4174	303261.092167768246	1
2	4176	303261.092167768246	0
2	4183	304436.067409218026	1
2	4185	304436.067409218026	0
2	4192	305227.769181756849	1
2	4194	305227.769181756849	0
2	4201	306038.316862644372	1
2	4203	306038.316862644372	0
2	4243	309295.584838427722	1
2	4245	309295.584838427722	0
2	4248	309482.150276503412	1
2	4254	309615.113192144076	0
2	4260	310461.578443332811	1
2	4262	310461.578443332811	0
2	4265	310569.672716776299	1
2	4270	310733.202494072575	0
2	4291	312677.2008493298	1
2	4296	312874.620563213649	0
2	4320	314613.498202647615	1
2	4322	314613.498202647615	0
2	4325	314796.402875125252	1
2	4330	314914.397269918349	0
2	4345	316654.408434394325	1
2	4347	316654.408434394325	0
2	4351	316888.295039717124	1
2	4356	316940.291996299001	0
2	4362	317482.241505380487	1
2	4364	317482.241505380487	0
2	4375	317870.085979899514	1
2	4378	317931.082233795013	2
2	4384	318137.365120562006	1
2	4392	318471.837224896212	0
2	4400	319064.393386247746	1
2	4405	319123.647029177904	0
2	4408	319182.638396194027	1
2	4412	319331.657683981556	2
2	4417	319507.012884319688	1
2	4422	319827.875612047809	0
2	4458	321372.579168702057	1
2	4463	321482.798292359143	0
2	4516	328808.306026750977	1
2	4518	328808.306026750977	0
2	4525	330466.784862241096	1
2	4527	330466.784862241096	0
2	4530	330500.720950124235	1
2	4535	330693.451083333777	0
2	4538	330735.588148533161	1
2	4541	330883.429624384786	2
2	4546	330998.567600242441	1
2	4552	331282.197495324384	0
2	4567	333197.331710313645	1
2	4569	333197.331710313645	0
2	4580	333494.421226780297	1
2	4589	333818.740523051119	0
2	4614	334995.937951532118	1
2	4619	335155.442354183308	0
2	4643	337346.067114352343	1
2	4645	337346.067114352343	0
2	4651	337706.900673653402	1
2	4653	337706.900673653402	0
2	4669	340140.083575095279	1
2	4671	340140.083575095279	0
2	4691	340814.462582966515	1
2	4696	340978.935083852964	0
2	4703	343060.268681772463	1
2	4705	343060.268681772463	0
2	4712	343387.875756933957	1
2	4714	343387.875756933957	0
2	4737	345334.801917966407	1
2	4739	345334.801917966407	0
2	4762	346347.126108594978	1
2	4764	346347.126108594978	0
2	4770	346729.624207456496	1
2	4772	346729.624207456496	0
2	4797	349324.66979790989	1
2	4799	349324.66979790989	0
2	4814	350602.928562822218	1
2	4816	350602.928562822218	0
2	4823	351937.17278292926	1
2	4825	351937.17278292926	0
2	4841	354073.088804174572	1
2	4843	354073.088804174572	0
2	4857	354832.82180196034	1
2	4859	354832.82180196034	0
2	4880	356871.601601376953	1
2	4885	357063.082841882277	0
2	4901	359147.719326302647	1
2	4903	359147.719326302647	0
2	4909	359696.961919178174	1
2	4911	359696.961919178174	0
2	4926	360791.713639596896	1
2	4928	360791.713639596896	0
2	4943	362134.797742468967	1
2	4945	362134.797742468967	0
2	4969	364243.68427768057	1
2	4971	364243.68427768057	0
2	4977	364672.787540143671	1
2	4979	364672.787540143671	0
2	4996	367245.66348130179	1
2	4998	367245.66348130179	0
2	5001	367328.966640582887	1
2	5004	367490.907898678306	2
2	5009	367545.683153297353	1
2	5020	367807.994321193992	0
2	5034	368483.437560363071	1
2	5039	368693.264307069296	0
2	5062	370721.114716272867	1
2	5068	370820.358717337422	0
2	5098	375084.328028550743	1
2	5100	375084.328028550743	0
2	5107	375689.268555573754	1
2	5109	375689.268555573754	0
2	5112	375891.270800648009	1
2	5117	375981.858268172666	0
2	5120	375997.136504628471	1
2	5125	376204.405763618914	0
2	5132	377352.709853076647	1
2	5134	377352.709853076647	0
2	5149	378457.660989789301	1
2	5152	378515.705815376392	2
2	5157	378552.777589793767	1
2	5162	378884.80143806722	0
2	5217	383455.700429910248	1
2	5219	383455.700429910248	0
2	5227	385263.290446018212	1
2	5229	385263.290446018212	0
2	5244	386800.49316926419	1
2	5246	386800.49316926419	0
2	5249	386886.856104657044	1
2	5254	387103.138665943361	0
2	5266	387963.748328675729	1
2	5271	388075.998551459638	0
2	5278	388830.997808877731	1
2	5280	388830.997808877731	0
2	5291	389481.544707869919	1
2	5296	389502.100404119108	0
2	5302	389830.109213194664	1
2	5304	389830.109213194664	0
2	5319	390668.689084797187	1
2	5321	390668.689084797187	0
2	5324	390681.80488007314	1
2	5327	390898.074372534904	2
2	5332	390950.875959363827	1
2	5338	391073.037001488247	2
2	5344	391251.485630769428	1
2	5347	391397.522934862552	2
2	5352	391488.302507821428	1
2	5360	391798.546083912149	0
2	5418	394535.122335992142	1
2	5423	394715.486891483903	0
2	5444	396480.766101323862	1
2	5446	396480.766101323862	0
2	5449	396714.826663105449	1
2	5454	396838.610914663194	0
2	5466	397638.604527875609	1
2	5471	397814.85667454333	0
2	5492	400173.259067509353	1
2	5497	400255.693799632041	0
2	5512	401955.650166319129	1
2	5514	401955.650166319129	0
2	5521	402350.70790647508	1
2	5523	402350.70790647508	0
2	5544	404927.419839358398	1
2	5549	405169.078426212839	0
2	5565	407809.79828070062	1
2	5567	407809.79828070062	0
2	5582	409176.3061833117	1
2	5584	409176.3061833117	0
2	5592	410518.496272857737	1
2	5594	410518.496272857737	0
2	5605	411112.134112108492	1
2	5610	411169.725230058923	0
2	5617	411799.809607203714	1
2	5619	411799.809607203714	0
2	5634	412991.824087948496	1
2	5636	412991.824087948496	0
2	5656	414260.690879254835	1
2	5661	414422.108768501563	0
2	5684	416033.1226484274	1
2	5686	416033.1226484274	0
2	5689	416131.601629136631	1
2	5692	416172.056425910254	2
2	5697	416302.394858929417	1
2	5703	416587.877061746229	0
2	5718	418450.796773475188	1
2	5720	418450.796773475188	0
2	5763	424310.68404110791	1
2	5765	424310.68404110791	0
2	5771	424740.335299423607	1
2	5773	424740.335299423607	0
2	5776	424777.831895376328	1
2	5782	425073.116165991938	0
2	5789	426802.609502809285	1
2	5791	426802.609502809285	0
2	5823	429072.738902131921	1
2	5825	429072.738902131921	0
2	5841	431454.736099102788	1
2	5843	431454.736099102788	0
2	5846	431457.683830759927	1
2	5851	431776.537129398633	0
2	5854	431891.959394623258	1
2	5863	432083.546724785731	0
2	5866	432433.76845471651	1
2	5871	432442.372338609522	0
2	5874	432558.867890157673	1
2	5877	432562.365812893639	2
2	5882	432725.967779239716	1
2	5887	433012.577578131318	0
2	5913	434957.933860184966	1
2	5921	435174.818831741769	0
2	5964	438488.465715699766	1
2	5967	438518.340397643185	2
2	5972	438683.892673046989	1
2	5977	439015.228518595371	0
2	5980	439017.160164743852	1
2	5984	439246.800683909221	2
2	5989	439336.066506019928	1
2	5994	439647.946825675774	0
2	6001	441075.282424383472	1
2	6003	441075.282424383472	0
2	6052	445144.00394484799	1
2	6054	445144.00394484799	0
2	6072	449715.12226477887	1
2	6074	449715.12226477887	0
2	6081	450969.62832455863	1
2	6083	450969.62832455863	0
2	6090	452060.870587674077	1
2	6092	452060.870587674077	0
2	6099	453101.672625156528	1
2	6101	453101.672625156528	0
2	6124	454218.836520323368	1
2	6126	454218.836520323368	0
2	6133	455295.480377887548	1
2	6135	455295.480377887548	0
2	6138	455478.363710534654	1
2	6146	455639.179369330515	0
2	6149	455654.979399268677	1
2	6154	455892.36754959703	0
2	6158	456110.289873567943	1
2	6163	456236.216491899492	0
2	6182	457016.94387182284	1
2	6187	457132.724510210162	0
2	6199	457909.837275557877	1
2	6201	457909.837275557877	0
2	6204	458224.487313197756	1
2	6209	458239.621837194745	0
2	6246	459710.57087881673	1
2	6251	459776.215787198419	0
2	6262	460131.264034414976	1
2	6267	460342.746487749787	0
2	6309	464814.922700709256	1
2	6311	464814.922700709256	0
2	6314	464976.516670604387	1
2	6319	465168.428061227061	0
2	6326	465991.861351716639	1
2	6328	465991.861351716639	0
2	6335	467330.158039348931	1
2	6337	467330.158039348931	0
2	6380	473995.203342353193	1
2	6382	473995.203342353193	0
2	6389	474967.305411677544	1
2	6391	474967.305411677544	0
2	6398	475634.872096765017	1
2	6400	475634.872096765017	0
2	6412	477030.780523143762	1
2	6417	477301.778094025983	0
2	6441	479488.502367851523	1
2	6443	479488.502367851523	0
2	6450	480074.905301001644	1
2	6452	480074.905301001644	0
2	6466	481152.126273089205	1
2	6468	481152.126273089205	0
2	6475	481560.992692840604	1
2	6477	481560.992692840604	0
2	6483	481957.492679338008	1
2	6485	481957.492679338008	0
2	6492	482856.540925286629	1
2	6494	482856.540925286629	0
2	6530	484758.490921775473	1
2	6539	484994.288529107809	0
2	6555	485976.004437007682	1
2	6561	486188.770397856035	0
2	6568	488046.129142594938	1
2	6570	488046.129142594938	0
2	6582	488527.611699696936	1
2	6587	488545.799595271866	0
2	6616	491629.19190812122	1
2	6621	491836.827468271347	0
2	6639	495626.18581086717	1
2	6641	495626.18581086717	0
2	6647	496515.311057340907	1
2	6649	496515.311057340907	0
2	6656	497008.151277765677	1
2	6658	497008.151277765677	0
2	6665	498201.233877690158	1
2	6667	498201.233877690158	0
2	6695	499877.903876020547	1
2	6700	499942.191452224559	0
2	6703	499993.452630017645	1
2	6708	500245.06972336316	0
2	6721	502453.318536862735	1
2	6726	502690.463751002577	0
2	6750	504753.670731538754	1
2	6752	504753.670731538754	0
2	6764	505962.843874290023	1
2	6769	505986.74755011206	0
2	6776	506622.984366917148	1
2	6778	506622.984366917148	0
2	6784	507375.18855923504	1
2	6786	507375.18855923504	0
2	6828	511944.46318616462	1
2	6830	511944.46318616462	0
2	6837	513470.644675140486	1
2	6839	513470.644675140486	0
2	6847	514942.888967086629	1
2	6849	514942.888967086629	0
2	6873	517405.005354829157	1
2	6875	517405.005354829157	0
2	6878	517619.73389521296	1
2	6883	517720.82753336988	0
2	6889	517747.653944707021	1
2	6894	518003.153985529209	0
2	6906	518696.510586053854	1
2	6908	518696.510586053854	0
2	6951	524563.224048328504	1
2	6953	524563.224048328504	0
2	6960	526566.441322237837	1
2	6962	526566.441322237837	0
2	6979	529354.851365709474	1
2	6981	529354.851365709474	0
2	6996	530908.772462069527	1
2	6998	530908.772462069527	0
2	7001	531047.278501690933	1
2	7006	531221.659511401727	0
2	7022	532985.562101841966	1
2	7024	532985.562101841966	0
2	7047	535074.311384517449	1
2	7049	535074.311384517449	0
2	7065	536524.004234369442	1
2	7067	536524.004234369442	0
2	7070	536565.766950627519	1
2	7075	536838.990364565057	0
2	7082	537774.095682076655	1
2	7084	537774.095682076655	0
2	7095	538344.182314386408	1
2	7100	538465.292529400433	0
2	7142	543567.724042674528	1
2	7144	543567.724042674528	0
2	7151	544458.315095490241	1
2	7153	544458.315095490241	0
2	7170	547225.311788923591	1
2	7172	547225.311788923591	0
2	7187	548975.171726212097	1
2	7189	548975.171726212097	0
2	7195	549467.806206791734	1
2	7197	549467.806206791734	0
2	7231	554163.035990894816	1
2	7233	554163.035990894816	0
2	7236	554296.487629127805	1
2	7242	554493.984609083848	0
2	7249	556257.980912687934	1
2	7251	556257.980912687934	0
2	7266	557472.009169299347	1
2	7268	557472.009169299347	0
2	7283	558868.453454940976	1
2	7285	558868.453454940976	0
2	7292	559565.291036971737	1
2	7294	559565.291036971737	0
2	7297	559693.154869324448	1
2	7305	559905.481003740903	0
2	7331	562229.250287535578	1
2	7336	562356.953016649776	0
2	7360	565017.985616229795	1
2	7362	565017.985616229795	0
2	7377	566314.0058634827	1
2	7379	566314.0058634827	0
2	7387	567822.095298165197	1
2	7389	567822.095298165197	0
2	7395	568082.307940907069	1
2	7400	568104.931779439079	0
2	7411	568746.704793516117	1
2	7413	568746.704793516117	0
2	7446	571713.386996980556	1
2	7448	571713.386996980556	0
2	7463	572535.001137180743	1
2	7465	572535.001137180743	0
2	7471	573108.352522604665	1
[...]
7	7419	569478.349653128409	3
7	7428	570799.969248355892	2
7	7433	570833.067019908678	1
7	7450	571934.625986706831	0
7	7454	571984.96026687497	1
7	7468	572817.189971503249	2
7	7476	573410.679379586053	3
7	7479	574595.259595685554	2
7	7497	575195.384127961898	3
7	7501	575398.580445508093	2
7	7508	575524.606319168143	3
7	7513	575832.099408524271	4
7	7526	576395.37584032611	3
7	7530	576438.356867867929	4
7	7543	577030.591171928296	5
7	7552	577897.388888916521	6
7	7554	577963.133373416604	5
7	7562	578355.75677664298	4
7	7576	578897.011110014037	3
7	7580	579012.222763960667	4
7	7584	579225.941935462224	3
7	7587	579341.87806824259	2
7	7611	580801.986326945302	3
7	7613	580942.88547417776	2
7	7633	581541.598186693497	3
7	7637	581572.931767054162	2
7	7641	581842.132743507201	3
7	7647	582158.046555968512	4
7	7663	582761.094528506291	5
7	7668	583052.748200652398	6
7	7671	583534.308231238619	5
7	7684	583979.392843802711	4
7	7688	584041.39813200809	5
7	7696	584648.67130185031	4
7	7704	584982.52684542468	3
7	7712	585347.424266070554	2
7	7721	585704.335889833833	1
7	7735	586362.848121733803	2
7	7743	586850.569212620408	1
7	7750	587071.026735369705	2
7	7755	587343.959777102392	3
7	7769	588553.18681268438	4
7	7772	589252.594386172477	3
7	7780	589938.796901848142	2
7	7793	590370.657977608637	1
7	7798	590435.357846664142	2
7	7805	591210.244514185907	1
7	7815	593189.353920802065	0
7	7830	594744.234176478695	1
7	7839	595527.107248620295	2
7	7842	597518.671735834293	1
7	7852	599069.81441713103	0
7	7867	600591.653578426309	1
7	7882	602284.969947615797	2
7	7888	602578.370871722091	3
7	7893	602859.54251726067	4
7	7895	603189.771850623386	3
7	7904	604696.281873617284	2
7	7913	605355.272093075179	1
7	7918	605373.812342377754	0
7	7939	606352.712710642686	1
7	7947	606653.906179340507	2
7	7955	606963.249945403113	3
7	7961	607266.591177454522	4
7	7969	607751.879248313283	5
7	7972	609399.346076864743	4
7	7986	609707.415658500842	3
7	7989	609764.868422793796	2
7	7993	609973.32775885763	3
7	7997	610248.992723428039	2
7	8014	610911.806551644582	1
7	8028	611959.633014694492	2
7	8040	612327.717488560507	3
7	8045	612556.270002875787	4
7	8048	613254.096082789033	3
7	8068	614130.281528556962	4
7	8074	614452.969288890174	5
7	8078	614474.915149034972	4
7	8082	614756.817181805322	5
7	8089	615056.527330970118	4
7	8094	615187.077261231559	3
7	8115	616337.533286348752	4
7	8123	616617.503681100968	5
7	8129	616924.857907845416	6
7	8131	617213.799927687949	5
7	8139	617581.043595120049	4
7	8144	617619.649308234602	3
7	8156	618425.504497101672	2
7	8176	619012.016346971927	3
7	8182	619282.004095644956	4
7	8189	619464.54543071503	3
7	8193	619575.380423205809	4
7	8197	619731.948362505427	3
7	8201	619901.860623958755	4
7	8220	621115.372553386367	5
7	8228	621961.077540794365	4
7	8232	622016.001333010384	5
7	8236	622187.672056543555	4
7	8244	622388.924379914954	3
7	8247	622569.286286824861	2
7	8269	623673.971218337627	1
7	8273	623744.564339094864	2
7	8287	624847.842954543283	3
7	8289	624854.015005150897	2
7	8304	625560.207263714698	3
7	8307	626664.592055493925	2
7	8315	627371.666107863706	1
7	8330	627934.037255223739	2
7	8332	628070.651254050145	1
7	8350	629089.860113782428	2
7	8358	629369.350129678824	3
7	8363	629694.992634518379	4
7	8371	630549.938245314622	3
7	8378	630807.187882810124	4
7	8383	631106.857624179326	5
7	8391	631831.761838202784	4
7	8396	632089.752186139511	3
7	8408	632580.796609178589	2
7	8422	633227.862279873735	3
7	8433	633532.282880123698	4
7	8437	633543.900359452422	3
7	8442	633868.047469898565	4
7	8446	633958.730350664679	3
7	8458	635785.585593512607	2
7	8467	636104.590226712624	1
7	8480	636431.806710880696	0
7	8484	636652.764768517377	1
7	8498	637718.481478494761	2
7	8507	638514.850979884925	3
7	8509	639226.284181636643	2
7	8518	640233.108233436115	1
7	8533	640807.10790035346	2
7	8535	641378.539299795084	1
7	8545	643527.590672629825	0
7	8559	644137.810853460068	1
7	8568	645510.340720141578	2
7	8577	646036.707146532896	3
7	8592	646975.355686314429	4
7	8596	647015.164958486693	3
7	8603	647270.158866199592	4
7	8608	647591.105828252575	5
7	8612	647885.573720401139	4
7	8619	647902.919676384194	5
7	8628	648196.133585924326	6
7	8636	648479.358404523852	7
7	8643	648589.084414589355	6
7	8647	648793.106090303103	7
7	8652	649098.570990734002	8
7	8662	649739.413970043969	7
7	8675	650086.859803121668	6
7	8683	650330.875957512706	5
7	8690	650513.465539833513	4
7	8699	650869.555286168762	5
7	8703	650929.933264766873	4
7	8706	651006.055605504475	3
7	8714	651404.971792613542	2
7	8728	651802.381405755091	1
7	8751	652844.849022029854	2
7	8759	653584.236622851333	3
7	8761	653642.999460908138	2
7	8776	654252.35941003052	3
7	8785	655441.036609604983	4
7	8787	655482.046845336238	3
7	8795	655895.913083733594	2
7	8804	656752.646021682956	1
7	8818	657573.261666314048	2
7	8821	658382.520089615553	1
7	8836	659033.249643304283	2
7	8844	659758.883356836735	3
7	8856	660292.091867928659	4
7	8860	660328.259310404583	3
7	8864	660629.974013379935	4
7	8878	661253.883024856122	5
7	8880	661668.734017492051	4
7	8897	662256.167686045675	5
7	8901	662398.508308632269	4
7	8906	662561.156917368689	5
7	8913	662751.057475082194	4
7	8925	663167.046850184442	5
7	8929	663347.054738228455	4
7	8933	663430.471357409766	5
7	8949	664074.037494542348	4
7	8953	664089.149335075786	5
7	8958	664379.974554593655	6
7	8971	665039.394564857826	5
7	8976	665274.650969548499	4
7	8994	666073.931963558259	5
7	8996	666079.244570966211	4
7	9001	666137.898057176484	3
7	9012	666670.192110159644	2
7	9017	666817.85579628452	1
7	9038	667617.363467490246	2
7	9043	667928.094343346929	3
7	9054	668338.412799129136	4
7	9060	668646.13542849421	5
7	9062	668761.493267163574	4
7	9076	669569.057146092497	5
7	9084	670378.410511121511	4
7	9088	670587.918004627769	5
7	9092	670721.787190398563	4
7	9104	670938.442093757001	3
7	9112	671310.977391921188	2
7	9116	671501.742021806884	3
7	9129	672439.772855820556	2
7	9143	673087.826712810942	3
7	9151	673266.192094394819	2
7	9155	673504.559826170028	3
7	9162	674032.482835760598	2
7	9171	675260.557479697953	1
7	9185	675829.727714190843	0
7	9189	676049.65742092736	1
7	9205	676630.423782111977	2
7	9211	676929.15485496927	3
7	9222	677355.870478484951	4
7	9227	677646.935038771696	5
7	9236	678611.807022345372	6
7	9238	678715.124305965722	5
7	9253	679464.55219184619	6
7	9260	679845.289271753905	5
7	9263	679894.08165463768	4
7	9266	679910.293896375553	3
7	9270	679946.785583989771	4
7	9279	680249.025907681461	3
7	9296	681298.154094243504	2
7	9305	681714.558715499448	1
7	9319	682542.440382843675	2
7	9322	682947.604464463515	1
7	9337	684449.931621136431	2
7	9344	684723.976757522629	1
7	9354	685004.533575009848	2
7	9360	685311.870084657125	3
7	9365	685604.132973526929	4
7	9378	687326.962464955917	3
7	9382	687448.964164290439	4
7	9387	687634.334612406239	3
7	9390	687757.939208571994	2
7	9406	688529.37943818464	1
7	9424	689197.614637176889	2
7	9432	689503.459441414057	3
7	9439	689659.89284371825	2
7	9443	689804.115608410843	3
7	9449	690030.499245266539	4
7	9462	690568.318939717758	5
7	9465	691671.74372191507	4
7	9474	692632.054720411195	3
7	9479	692716.424757793913	2
7	9482	692835.083094287242	1
7	9495	693582.572763523088	0
7	9514	694813.647996053525	1
7	9523	696122.803311775609	2
7	9526	697631.611014033475	1
7	9535	698997.937407108928	0
7	9550	699715.371087923023	1
7	9559	701138.19390809762	2
7	9562	702385.300372354079	1
7	9576	703102.512461322811	2
7	9579	703739.005930202952	1
7	9593	705353.743587551724	0
7	9597	705459.142249691216	1
7	9614	706708.524268126651	2
7	9620	707005.33274638046	3
7	9629	708146.598089153566	4
7	9631	708720.421856149955	3
7	9639	709161.214052243932	2
7	9653	710042.317958615546	1
7	9657	710187.704321167945	2
7	9674	710838.410108992783	3
7	9678	710913.754994766997	2
7	9682	711110.519157764224	3
7	9696	712627.994006732116	4
7	9703	712666.773506711269	3
7	9708	712994.612777665731	4
7	9715	713397.112689922429	3
7	9723	713854.983930496534	2
7	9732	714528.101866741874	1
7	9749	715809.943260018191	0
7	9753	715832.021409268439	1
7	9758	716077.707183026663	2
7	9772	716721.626453590966	3
7	9780	717187.586981536308	4
7	9783	718424.846112474624	3
7	9788	718554.863552011669	2
7	9806	719327.588289558978	3
7	9808	719676.249699207265	2
7	9829	720239.151406973508	3
7	9833	720492.447784185214	2
7	9837	720568.854617420217	3
7	9842	720913.864319436132	4
7	9850	722120.14202918621	3
7	9864	722763.366448192222	2
7	9868	722804.95174231749	3
7	9875	723489.912892092615	2
7	9880	723535.34502104681	1
7	9893	725417.001351615696	0
7	9909	727818.282603849927	1
7	9913	730196.081278020574	0
7	9933	737252.250311020809	1
7	9944	737763.835846943961	2
7	9950	738067.015687013027	3
7	9953	739438.026615291837	2
7	9967	740327.418842313067	3
7	9969	740387.813107609546	2
7	9987	740972.360307489009	3
7	9991	741236.14158576686	2
7	9995	741259.365183015949	3
7	10012	741856.244991352738	4
7	10020	742177.894172073591	5
7	10028	742499.714864013221	6
7	10034	742814.907297011308	7
7	10041	742930.447431451544	6
7	10045	743246.21642374812	7
7	10052	743527.64783568448	6
7	10069	744016.179693000268	5
7	10073	744218.132309801593	6
7	10077	744305.422623157255	5
7	10081	744495.763079095117	6
7	10093	744762.724740271413	5
7	10096	744926.039985651886	4
7	10099	744932.697246482868	3
7	10103	745071.795450368692	4
7	10118	745823.133613287866	3
7	10134	746356.190935481455	2
7	10139	746555.591871313686	3
7	10151	747553.854626928563	2
7	10157	747727.453659589136	1
7	10169	749031.790567185459	0
7	10188	752131.502756740559	1
7	10194	752453.151908757117	2
7	10203	754619.982657244701	3
7	10212	754977.337801636617	4
7	10214	755286.66064744716	3
7	10219	755407.668356044259	2
7	10237	757027.480115837895	3
7	10240	757618.148917093275	2
7	10245	757632.486264262965	1
7	10263	758470.7056167219	2
7	10271	759942.576589606448	1
7	10275	760007.545034888518	2
7	10288	760747.070265409591	3
7	10291	761095.506949979325	2
7	10308	762378.588922239487	1
7	10312	762607.620188780943	2
7	10317	762863.653233839446	3
7	10325	763616.237140784689	2
7	10340	764510.75552983268	3
7	10342	765578.873661900883	2
7	10348	765838.519855694451	1
7	10365	766455.364968813835	2
7	10377	767009.380398078015	3
7	10381	767175.116212899011	2
7	10385	767315.850137195918	3
7	10401	767968.847973922521	4
7	10410	768297.616980769762	5
7	10415	768575.054293528619	6
7	10417	769152.428362234529	5
7	10423	769256.110430224509	4
7	10434	769818.048277769025	3
7	10449	770526.424262581287	4
7	10451	770780.472572955638	3
7	10456	770933.525032478799	2
7	10467	771273.892453658867	1
7	10477	771758.691193841061	2
7	10490	772586.417380913717	3
7	10498	773226.026744071169	2
7	10502	773496.066855600529	3
7	10516	774087.868856136676	4
7	10518	774126.511274364061	3
7	10527	775528.828563181513	2
7	10536	776590.480885259817	1
7	10541	776672.036349280136	0
7	10559	777945.5939113831	1
7	10563	780943.95549897451	0
7	10581	781620.192298287751	1
7	10586	781938.318489029258	2
7	10595	782859.796691092776	3
7	10604	783625.650457460047	4
7	10615	784049.28261466088	5
7	10619	784223.573555035582	4
7	10623	784356.674144578786	5
7	10627	784533.76315829233	4
7	10636	784950.96072158027	3
7	10653	785775.925375569185	4
7	10655	785820.396594600383	3
7	10669	786842.41320330506	2
7	10673	787007.563574996869	3
7	10680	787115.041095572835	2
7	10690	787584.245024793135	3
7	10703	788164.64306898759	4
7	10705	788245.921702221097	3
7	10720	789194.769767611897	4
7	10723	790013.672832330533	3
7	10731	790287.748795064533	2
7	10746	790552.02525803868	3
7	10752	790843.249039279913	4
7	10760	791160.031651685974	5
7	10765	791444.124471704705	6
7	10769	791529.47869803203	5
7	10781	792218.723862806096	4
7	10789	792758.086279997577	3
7	10806	793632.390793525594	2
7	10810	793851.114393140489	3
7	10817	794184.679880338561	2
7	10821	794201.395500508114	3
7	10825	794302.988033615575	2
7	10833	794478.742366278291	3
7	10838	794771.590936764498	4
7	10857	796845.798580775981	3
7	10862	797034.637002261845	2
7	10865	797111.819165735196	1
7	10873	797167.071935120556	0
7	10902	798371.897651729552	1
7	10907	798675.234436482326	2
7	10912	799005.740243167209	3
7	10921	801072.15356552831	2
7	10925	801152.672196436886	3
7	10929	801171.238056486723	2
7	10938	801609.000374082592	1
7	10951	804145.258820131622	0
7	10965	804759.053679872865	1
7	10974	805914.508688972162	2
7	10983	806486.142753610629	3
7	10990	807478.448364479692	2
7	10994	807586.010424739289	3
7	11011	808159.477486277868	4
7	11016	808478.061066185689	5
7	11024	808793.242027010837	6
7	11027	808841.225842597486	5
7	11035	809421.110695485495	4
7	11050	810016.90377416918	5
7	11052	810219.056662918263	4
7	11060	810548.750840377223	3
7	11073	811168.518151430705	2
7	11077	811181.001628462346	3
7	11082	811298.12280311001	2
7	11099	812104.426510366624	3
7	11102	812555.747369184934	2
7	11111	813734.340779601994	1
7	11128	814378.907983085656	2
7	11133	814680.038021552807	3
7	11136	814912.601568603816	2
7	11153	815561.340550439808	3
7	11158	815841.794945652387	4
7	11162	817304.864067809655	3
7	11170	817764.762945999878	2
7	11187	818325.103291328543	3
7	11193	818631.069224078268	4
7	11195	818653.929783971315	3
7	11200	818680.760970320906	2
7	11221	820474.966078475115	3
7	11227	820814.400096429522	4
7	11229	820836.448536779863	3
7	11234	820837.597048886508	2
7	11252	822720.090894223869	3
7	11260	823562.262001341075	2
7	11264	823715.073148734902	3
7	11268	823900.961725579418	2
7	11280	825038.816822023751	1
7	11295	825943.095476993612	2
7	11302	826048.13707031521	1
7	11306	826254.345732867937	2
7	11326	826985.777760970526	3
7	11334	827270.225820393957	4
7	11339	827591.441216555083	5
7	11344	827911.659492180713	6
7	11347	828715.701446225451	5
7	11355	829139.175749464474	4
7	11369	829663.582699642593	3
7	11372	829666.608335324553	2
7	11376	829724.088862804702	3
7	11385	830106.11693575109	2
7	11393	830377.471934538687	1
7	11406	832000.747373038175	0
7	11421	833749.68112053486	1
7	11430	834993.378332409722	2
7	11439	835535.329916883912	3
7	11447	835910.070351601213	4
7	11449	836022.063099999987	3
7	11464	836575.578856583234	4
7	11467	837602.002806719676	3
7	11475	838451.413303172358	2
7	11480	838474.955246429133	1
7	11492	839116.800550477573	0
7	11506	839897.675512526939	1
7	11518	841182.999137003201	2
7	11527	841543.070458803636	3
7	11532	841846.946771539559	4
7	11540	842275.500539190058	5
7	11543	842727.425175596253	4
7	11552	844039.990565276792	3
7	11560	844355.296078639412	2
7	11565	844457.713049027375	1
7	11573	844756.21684485068	0
7	11592	846042.027243917948	1
7	11603	846785.092663970544	2
7	11608	847085.204165970252	3
7	11617	848108.666034360818	4
7	11620	848405.540235376293	3
7	11628	849381.867899444537	2
7	11637	849842.655923520775	1
7	11646	851221.681813179867	0
7	11660	851807.637141370263	1
7	11669	852628.426887346621	2
7	11678	853494.476888540809	3
7	11686	853955.119327919364	4
7	11689	854616.826138762745	3
7	11697	854995.229995138886	2
7	11706	855955.68929430059	1
7	11715	856866.947179622973	0
7	11735	857460.626863917748	1
7	11740	857789.84979782317	2
7	11746	858107.082166481004	3
7	11749	859685.999708924986	2
7	11764	860437.114226410394	3
7	11766	860612.808961309426	2
7	11774	861074.058944542208	1
7	11789	861638.168528676072	2
7	11800	862230.072312276214	3
7	11805	862534.303406274764	4
7	11808	863165.513411657838	3
7	11817	864494.283235035043	2
7	11830	864898.87257146034	1
7	11834	865089.25910417162	2
7	11847	865490.506744641724	1
7	11851	865748.581695664423	2
7	11865	867795.643952487222	1
7	11869	867991.096229631463	2
7	11881	868638.545034523875	1
7	11885	868642.351121553407	2
7	11902	869912.929376348197	3
7	11908	870191.38071610868	4
7	11910	870792.763814033936	3
7	11915	871144.453944619339	2
7	11933	872361.445194124368	3
7	11936	872452.857518630359	2
7	11944	873086.378376606265	1
7	11963	875270.236607733927	2
7	11974	875568.143342329985	3
7	11978	875662.113190549078	2
7	11982	875875.583071266171	3
7	11991	876188.307414196651	4
7	12002	876473.182387605517	5
7	12007	876739.278224965437	6
7	12012	877051.262500331497	7
7	12020	877544.597084288527	6
7	12028	878302.640496858668	5
7	12037	878640.080031480132	4
7	12051	879345.922596356512	5
7	12053	879507.410164589237	4
7	12059	879633.69303692239	3
7	12062	879659.095555585576	2
7	12070	879820.434823580395	1
7	12093	880970.454612574675	2
7	12104	881588.899503945744	3
7	12109	881893.333121249983	4
7	12121	882236.363512239286	5
7	12125	882401.34022328892	4
7	12129	882531.282559204933	5
7	12142	883463.175147554166	4
7	12146	883652.800542598045	5
7	12153	883916.818179780287	4
7	12162	884419.763781405344	3
7	12167	884716.975772686627	2
7	12175	884903.805389046643	1
7	12193	885705.796806882145	2
7	12196	886948.923914430866	1
7	12204	887976.072644205632	0
7	12219	889171.482113359813	1
7	12228	890108.391722786076	2
7	12237	890667.943216033428	3
7	12246	891873.21145039568	4
7	12248	891930.841552324247	3
7	12265	892578.030644504831	4
7	12269	892642.43704996228	3
7	12274	892887.268564161533	4
7	12278	893060.337794109491	3
7	12290	894518.265693233928	2
7	12310	895132.844757652179	3
7	12315	895381.021543536427	2
7	12318	895419.77171182879	1
7	12322	895482.586893839002	2
7	12327	895770.687597338761	3
7	12343	896378.37932878582	4
7	12349	896713.17445629598	5
7	12357	897616.554193058119	4
7	12365	898360.193511327651	3
7	12373	898492.562678850821	2
7	12383	898936.812122000846	3
7	12390	899186.323969914239	2
7	12398	899498.341372457035	1
7	12408	901519.3413198746	0
7	12423	902558.815952184385	1
7	12431	902901.12171204601	2
7	12440	904562.854500249011	3
7	12443	904985.251795545803	2
7	12451	905368.656184537445	1
7	12466	906931.38249746415	2
7	12475	907483.297491369404	3
7	12482	907722.282752437486	2
7	12489	907965.174999597464	3
7	12494	908281.067580360258	4
7	12508	908850.138522787268	5
7	12515	908903.571552658108	4
7	12519	909124.024502550276	5
7	12533	909731.391973417297	6
7	12544	910075.985644149808	7
7	12549	910374.985193044624	8
7	12551	910395.513834414742	7
7	12556	910543.587790995588	6
7	12568	911291.570962849653	5
7	12573	911581.241601658537	4
7	12581	911681.660873528267	3
7	12593	912306.297660565448	2
7	12601	912643.898601777774	1
7	12610	913333.279516426508	0
7	12629	915898.538827333482	1
7	12634	916188.198597230572	2
7	12643	917370.004183188843	3
7	12646	918048.530920953861	2
7	12659	918645.155163177107	1
7	12663	918685.709423198356	2
7	12677	919645.606118102864	3
7	12684	919942.445202455608	2
7	12688	920175.39747923798	3
7	12705	920731.174165691382	4
7	12710	921053.941481580453	5
7	12712	921232.72394476449	4
7	12727	921814.621802163948	5
7	12738	922141.721215821223	6
7	12742	922324.159146978813	5
7	12749	922526.948111862693	6
7	12753	922693.093182437935	5
7	12758	922836.193581449432	6
7	12771	923400.876119619873	7
7	12775	923476.579111217201	6
7	12783	923826.049764027301	5
7	12795	924030.130280078043	4
7	12802	924350.073356829956	5
7	12807	924670.041616831677	6
7	12811	924953.898499568719	5
7	12831	925542.500587857122	4
7	12835	925657.268261828851	5
7	12839	925892.993221880369	4
7	12842	925918.165970000415	3
7	12846	925938.418064453047	4
7	12865	926831.68173475435	5
7	12869	926844.329778301857	4
7	12877	927349.586500542668	3
7	12890	927727.313357576329	4
7	12899	928138.699268180348	3
7	12911	929007.529439195531	2
7	12919	929670.678271678949	1
7	12928	930432.875010694445	0
7	12942	931037.14916397827	1
7	12951	932036.353331017335	2
7	12955	933787.627744009188	1
7	12972	934538.560713537223	2
7	12978	934804.120934654284	3
7	12986	935209.050652315893	4
7	12988	935231.382247883506	3
7	13003	936867.647769778879	4
7	13006	937261.350743479097	3
7	13014	937570.462430034873	2
7	13019	937712.033501956277	1
7	13038	939663.099957300924	2
7	13045	939929.309614888511	1
7	13049	940218.606588611757	2
7	13066	941699.912826196866	3
7	13072	942022.988050182817	4
7	13079	942165.467302666851	3
7	13083	942431.55813709993	4
7	13087	942578.491051813324	3
7	13099	943941.387388613333	2
7	13114	944556.824354547002	3
7	13121	944840.401794234777	2
7	13125	944973.693745926627	3
7	13133	945928.835875358272	2
7	13142	947332.895445590328	1
7	13147	947414.494705137225	0
7	13165	948937.101384323897	1
