<<<<<<< HEAD
file 108477 1483715137                                          
version 2
run ParkingMeasurement-46-20170106-02:04:00-11214
attr configname ParkingMeasurement
attr datetime 20170106-02:04:00
attr experiment ParkingMeasurement
attr inifile parkingStudy.ini
attr iterationvars ""
attr iterationvars2 $repetition=46
attr measurement ""
attr network SimNetwork
attr processid 11214
attr repetition 46
attr replication #46
attr resultdir results
attr runnumber 46
attr seedset 46
param SimNetwork.a.parkingLot.parkingDelay exponential(30min)
param SimNetwork.a.runway.landingTime exponential(5min)
param SimNetwork.a.runway.takeoffTime exponential(5min)
param SimNetwork.a.runway.throughputCheckInterval 50min
param SimNetwork.wg.interArrivalTime exponential(50min)
vector 2  SimNetwork.a.landingQueue  queueLength:vector  ETV
attr source queueLengthSignal
2	27177 19989 715 6547 100542.135775492549 1030116.304587018006 692 0 3 368 402
vector 1  SimNetwork.a.landingQueue  queueTime:vector  ETV
attr source queueTimeSignal
1	16265 10912 717 6547 100542.135775492549 1030116.304587018006 346 0 1582.6233142033 25915.50973791 19237273.969726
vector 7  SimNetwork.a.parkingLot  parkingOccupancy:vector  ETV
attr source parkingOccupancy
7	88459 20018 719 6560 100543.255857174349 1031775.906440382131 693 0 5 850 1770
vector 4  SimNetwork.a.takeoffQueue  queueLength:vector  ETV
attr source queueLengthSignal
4	58434 20043 720 6563 100543.255857174349 1031775.906440382131 694 0 4 401 483
vector 3  SimNetwork.a.takeoffQueue  queueTime:vector  ETV
attr source queueTimeSignal
3	47166 11268 725 6563 100636.3645037925 1031775.906440382131 347 0 2631.5141655723 39541.483987618 38607418.501991
vector 0  SimNetwork.wg  responseTime:vector  ETV
attr source responseTimeSignal
0	1428 14837 728 6566 100879.72801602765 1031949.309073845281 347 457.04711828087 20180.742745303 1837291.1476125 13044721416.024
vector 5  SimNetwork.a.runway  landedThroughput:vector  ETV
attr source landedThroughputSignal
5	78477 4991 746 6569 102000 1035000 312 0 5 346 732
vector 6  SimNetwork.a.runway  tookoffThroughput:vector  ETV
attr source tookoffThroughputSignal
6	83468 4991 746 6569 102000 1035000 312 0 5 347 727
=======
file 108488 1483893039                                          
version 2
run ParkingMeasurement-46-20170108-17:30:39-5419
attr configname ParkingMeasurement
attr datetime 20170108-17:30:39
attr experiment ParkingMeasurement
attr inifile parkingStudy.ini
attr iterationvars ""
attr iterationvars2 $repetition=46
attr measurement ""
attr network controltower.SimNetwork
attr processid 5419
attr repetition 46
attr replication #46
attr resultdir results
attr runnumber 46
attr seedset 46
param SimNetwork.a.parkingLot.parkingDelay exponential(30min)
param SimNetwork.a.runway.landingTime exponential(5min)
param SimNetwork.a.runway.takeoffTime exponential(5min)
param SimNetwork.a.runway.throughputCheckInterval 50min
param SimNetwork.wg.interArrivalTime exponential(50min)

vector 2  SimNetwork.a.landingQueue  queueLength:vector  ETV
attr source  queueLengthSignal
vector 1  SimNetwork.a.landingQueue  queueTime:vector  ETV
attr source  queueTimeSignal
vector 7  SimNetwork.a.parkingLot  parkingOccupancy:vector  ETV
attr source  parkingOccupancy
vector 4  SimNetwork.a.takeoffQueue  queueLength:vector  ETV
attr source  queueLengthSignal
vector 3  SimNetwork.a.takeoffQueue  queueTime:vector  ETV
attr source  queueTimeSignal
vector 0  SimNetwork.wg  responseTime:vector  ETV
attr source  responseTimeSignal
vector 5  SimNetwork.a.runway  landedThroughput:vector  ETV
attr source  landedThroughputSignal
vector 6  SimNetwork.a.runway  tookoffThroughput:vector  ETV
attr source  tookoffThroughputSignal
0	1439 14837 728 6566 100879.72801602765 1031949.309073845281 347 457.04711828087 20180.742745303 1837291.1476125 13044721416.024
1	16276 10912 717 6547 100542.135775492549 1030116.304587018006 346 0 1582.6233142033 25915.50973791 19237273.969726
2	27188 19989 715 6547 100542.135775492549 1030116.304587018006 692 0 3 368 402
3	47177 11268 725 6563 100636.3645037925 1031775.906440382131 347 0 2631.5141655723 39541.483987618 38607418.50199
4	58445 20043 720 6563 100543.255857174349 1031775.906440382131 694 0 4 401 483
5	78488 4991 746 6569 102000 1035000 312 0 5 346 732
6	83479 4991 746 6569 102000 1035000 312 0 5 347 727
7	88470 20018 719 6560 100543.255857174349 1031775.906440382131 693 0 5 850 1770
>>>>>>> branch 'develop' of git@github.com:enricomeloni/PESC_Control_Tower.git
