version 2
run ParkingMeasurement-5-20170108-17:30:32-5342
attr configname ParkingMeasurement
attr datetime 20170108-17:30:32
attr experiment ParkingMeasurement
attr inifile parkingStudy.ini
attr iterationvars ""
attr iterationvars2 $repetition=5
attr measurement ""
attr network controltower.SimNetwork
attr processid 5342
attr repetition 5
attr replication #5
attr resultdir results
attr runnumber 5
attr seedset 5
param SimNetwork.a.parkingLot.parkingDelay exponential(30min)
param SimNetwork.a.runway.landingTime exponential(5min)
param SimNetwork.a.runway.takeoffTime exponential(5min)
param SimNetwork.a.runway.throughputCheckInterval 50min
param SimNetwork.wg.interArrivalTime exponential(50min)

vector 7  SimNetwork.a.parkingLot  parkingOccupancy:vector  ETV
attr source  parkingOccupancy
vector 4  SimNetwork.a.takeoffQueue  queueLength:vector  ETV
attr source  queueLengthSignal
vector 0  SimNetwork.wg  responseTime:vector  ETV
attr source  responseTimeSignal
vector 3  SimNetwork.a.takeoffQueue  queueTime:vector  ETV
attr source  queueTimeSignal
vector 5  SimNetwork.a.runway  landedThroughput:vector  ETV
attr source  landedThroughputSignal
vector 6  SimNetwork.a.runway  tookoffThroughput:vector  ETV
attr source  tookoffThroughputSignal
vector 2  SimNetwork.a.landingQueue  queueLength:vector  ETV
attr source  queueLengthSignal
vector 1  SimNetwork.a.landingQueue  queueTime:vector  ETV
attr source  queueTimeSignal
0	662	100464.993729745581	3971.6708257464
0	667	101274.10335224477	3996.0567224673
0	673	102136.370665019785	6369.1830394707
0	699	110386.841284203604	2718.9509151803
0	707	110737.785143994161	12443.907632641
0	733	116095.222136651226	8160.4937495797
0	750	117815.94792099036	2330.7718173309
0	766	119403.965555672458	1776.5667899804
0	775	121664.644769482782	8164.7647841194
0	796	128527.277493126028	9506.5607319219
0	818	130724.71512991784	2223.9365422002
0	834	135317.051948055551	10404.270909239
0	861	138798.018815515221	3689.0785233187
0	872	140680.726059975941	5407.1094611235
0	894	142328.731835633012	2502.6448884585
0	905	143233.899547156576	12960.427795982
0	913	143997.18406702551	7133.6256284603
0	928	148267.439173392314	6634.6184318939
0	952	149776.520170461507	1457.1474631132
0	972	152858.89110073355	9108.1278981099
0	986	153148.315883655922	4001.4033320215
0	999	159383.267256641325	9033.7878086667
0	1022	165058.735137587476	5760.7278077638
0	1038	167330.702921567252	14737.034637911
0	1055	170819.13434405412	5018.0298182338
0	1078	172713.082705705511	2537.5579992653
0	1088	173077.002509513905	10990.028420947
0	1113	175068.24574027655	2666.9825775731
0	1121	176101.362061150682	4521.9904603615
0	1149	177108.360120143052	3351.313970064
0	1154	177140.631839084268	973.71288918454
0	1173	178227.182010187424	1863.7629668441
0	1186	179428.682611563793	5485.7033059496
0	1195	182261.893393801255	5066.8324980125
0	1213	187033.709439974691	9278.7557771546
0	1238	191335.590147005908	2186.3202077836
0	1247	192202.299629844973	9390.9473064286
0	1274	194094.278915776527	1748.0118108428
0	1296	196136.493454015914	3702.0300539058
0	1313	200406.864209384978	4793.6177732746
0	1325	201080.038755077432	11370.159108761
0	1330	201216.140947438575	8211.9642661357
0	1355	206917.322258094339	3620.3691757056
0	1364	207449.01576013578	8160.9893040309
0	1380	209334.701815285342	3463.7702514529
0	1406	213924.74402627793	2351.4408417735
0	1423	217478.47255149686	9762.6159219908
0	1434	217945.955318833513	5022.2407729863
0	1456	220505.169273571035	5521.7748974763
0	1464	221080.882380404254	3318.5849407159
0	1490	226463.168775201306	8354.049450896
0	1506	227027.031982747542	5269.6086645041
0	1514	227377.634134858103	1986.0157475085
0	1531	229548.445516720698	2792.8625679275
0	1556	231722.929141962168	2624.0956165323
0	1567	233963.941618843141	3888.1091972805
0	1596	238133.291984397561	4297.4829022546
0	1606	238199.450970403843	7774.292184631
0	1615	240140.483276767429	4640.2613959073
0	1632	243070.393695907811	5183.1287291785
0	1648	245849.812738736219	4070.0109623294
0	1673	247928.137095365887	1149.9344751871
0	1692	248873.759798841537	3956.9969420346
0	1697	248928.087550544567	1563.075925413
0	1714	250548.316433027679	2337.683879935
0	1740	256498.64888883023	7006.1301007806
0	1756	257290.965080973081	4789.941125922
0	1765	258154.993183128754	3714.9094525183
0	1785	263751.694189277411	6627.8589819783
0	1808	267549.829977897686	3990.3545177999
0	1816	268444.411717210367	8380.0523773037
0	1841	270964.755874762666	4528.4581431171
0	1849	271115.348161522068	2542.2127646938
0	1867	276866.096447352774	6944.4064255761
0	1897	285209.421127026247	10874.404132464
0	1902	285710.72607240758	5664.5149579815
0	1919	288619.151559002196	4850.7072501143
0	1944	291559.549897894293	3503.1049060846
0	1961	295041.477684113218	3804.2524000737
0	1978	297694.458401798184	6391.2646325667
0	1994	298223.199418059219	3675.4263921634
0	2019	302411.315559142747	4713.0695656381
0	2031	305602.038214214491	10527.157832261
0	2036	305709.253287195974	5262.1863505242
0	2057	318843.322334190986	16963.220132947
0	2074	321213.286361589409	7662.6149163416
0	2090	321417.342381671837	493.34046663174
0	2118	324563.57653215078	2464.382061858
0	2131	325921.857927694347	4669.2542339419
0	2139	326411.374804986085	3743.4876217182
0	2157	331915.265946978078	7849.6668736339
0	2203	340309.354238904064	6111.9379548358
0	2208	340611.066510826577	1874.9155215319
0	2216	340753.037220359004	1987.6189995474
0	2237	345240.47331121356	15559.877525598
0	2242	345344.270319428972	6066.4833751461
0	2260	353458.664715399478	9265.9052474027
0	2287	360449.973875648756	7888.4769857709
0	2295	362989.322376056271	5938.9981191095
0	2313	368414.994785919196	10738.441635064
0	2333	378542.162077464872	11147.961993398
0	2349	379120.257862063378	1972.7596728166
0	2365	379667.798735884484	706.91286024181
0	2382	381256.879976863849	2122.1175103202
0	2420	383484.8735977954	2742.7476420839
0	2430	383671.135426279085	1118.9354745921
0	2439	384260.530070030005	2979.0728812841
0	2455	385087.86875562755	1692.3968445346
0	2463	385240.246315892734	2432.5830344873
0	2480	387535.626640857657	3067.8031303007
0	2504	388738.405928684511	3289.3268809339
0	2515	389710.459451915683	2093.0685520179
0	2529	390793.278419293969	3046.7482782384
0	2554	394146.729095831682	4917.0944137396
0	2562	395177.589270340997	2342.3000637134
0	2581	403466.000587317226	9681.758608839
0	2608	404591.079140108061	1101.1284493796
0	2622	405281.497279608705	2504.3914658662
0	2647	409535.795669240574	1005.6630450006
0	2656	412145.727638429086	7556.7794737334
0	2681	415648.350165328795	1121.8520537485
0	2689	415950.697414388109	7303.2758207085
0	2697	416482.20266853528	12681.375685599
0	2722	419102.620456607474	2103.5359501043
0	2731	420034.179456723285	5293.7848536752
0	2765	427332.657901177707	3589.4776901742
0	2773	427658.233045130818	9662.3717344588
0	2790	431363.912638476073	7085.7848376587
0	2799	432475.751846823654	8474.7618458912
0	2815	434294.690427232253	6204.088536472
0	2832	435528.529385049134	2810.8034880648
0	2848	437970.992164507266	3007.9662757346
0	2868	447205.391198263245	10676.033242367
0	2887	456091.201449332719	10811.122914536
0	2904	460960.970266647724	8354.4991281044
0	2934	477992.473730087431	3310.2434046518
0	2942	479490.200231551064	20323.510194088
0	2973	489722.232427882812	12763.263592125
0	2978	489860.007280907319	1778.7815773935
0	2995	493341.582855009426	4748.4065110504
0	3012	495655.004495885579	3418.2477953434
0	3038	502645.239781879311	8166.7009484054
0	3054	503935.73329773358	7456.7460565312
0	3063	504972.564048476653	3141.0859046162
0	3081	512003.682887639638	9010.6090674732
0	3101	523097.542318109515	13885.670971122
0	3128	531811.03924012725	1261.7452328702
0	3144	533174.329919262212	2063.979229449
0	3161	534244.607905521452	12404.842135975
0	3178	537227.135598489252	5051.1160711027
0	3186	539430.755389605592	6005.1711184535
0	3212	545471.449433099014	10695.084761076
0	3246	550301.433532565439	5375.8690665367
0	3262	551703.976007967843	3726.8569427485
0	3271	552629.120951684623	5050.0697402776
0	3279	554966.728192180138	5928.8327232173
0	3288	555625.466992203508	14070.538036227
0	3304	557583.732756914769	6377.7013337824
0	3354	562591.195939321542	2019.1267225816
0	3362	562867.103726169783	6286.7227779334
0	3371	564188.111200812237	2350.8990768778
0	3379	566207.661681111596	4137.6417953032
0	3396	568055.157662214817	7249.9565440122
0	3419	571562.462077466617	4512.7463864144
0	3432	572111.213428858732	9953.6532899618
0	3437	572215.972883322655	3697.5294277104
0	3471	578190.107009925837	1034.0677529658
0	3480	579144.397376179852	8540.1779613233
0	3488	581448.509296147349	4229.7983407048
0	3517	586082.318018238793	8720.5530195512
0	3525	586431.59633250842	3243.1089348156
0	3538	587313.475146201594	3496.2296230277
0	3564	593359.896482245241	7201.193134914
0	3581	594813.933106420755	2679.3870923027
0	3589	596546.306752424686	5237.5051815075
0	3610	602868.338178924422	9076.2503687394
0	3624	603902.564127838057	2253.5953265414
0	3641	606493.761286398011	4244.9857110727
0	3658	609686.218416388151	4014.7663786715
0	3675	612642.330211648956	3916.8845715082
0	3691	613477.632360039343	2851.229614086
0	3742	621280.006586144709	4116.1651626963
0	3750	621453.5764548285	1819.6601722568
0	3758	623140.612687266902	2963.6945520413
0	3774	623952.507393659263	3565.0087051088
0	3789	625111.874109528182	4684.6939011913
0	3805	626486.837185262494	13438.560667174
0	3815	626941.906987469182	3715.9196359078
0	3824	627272.655643733317	2911.9808639552
0	3841	631263.508956328241	5740.3311930136
0	3859	636097.049987411331	6667.2421544921
0	3891	643282.468736334123	7618.0729831428
0	3912	644370.504717900028	1398.3176310933
0	3917	644381.54335692977	2188.1214569191
0	3934	647056.873283485003	3974.6211406057
0	3943	650165.342501848536	7545.7075635429
0	3961	654233.904318637372	7891.296283865
0	3986	659318.642049350552	892.4567805559
0	3995	661141.726000992356	10723.760510063
0	4028	665844.425894654038	7357.969820138
0	4037	666740.797682255652	3186.2342755448
0	4048	668063.494218035351	5393.046599254
0	4062	670422.930124340968	6856.2770345813
0	4079	673343.44087337354	5322.3724503236
0	4107	676890.115809322987	3962.3519016472
0	4112	677421.364941650867	1144.3585623965
0	4129	678956.732092793976	2634.5000649765
0	4154	681671.031914691549	4247.6969095738
0	4171	684441.489477627541	4892.1100908293
0	4180	689820.545808069415	8584.1018581572
0	4198	694238.855238255809	10751.357424039
0	4217	702106.644723654355	9981.4081110904
0	4243	708585.652635001364	12381.787367638
0	4252	712592.5082759995	6986.1191566646
0	4277	715451.851667628858	1059.9309635413
0	4285	716413.018521402417	8615.7555557072
0	4305	727159.549418422031	12597.072227505
0	4356	732272.644561584556	2613.6351250705
0	4391	734530.624947774196	7334.8574756744
0	4401	734566.641938078477	10801.580140428
0	4406	734576.329138826632	4910.998484022
0	4411	734645.158794491063	3044.8098128654
0	4428	736830.936448836093	2864.9045714925
0	4436	737062.777415228702	4801.6510887188
0	4445	738370.118679469298	5583.2385592827
0	4461	739713.232938046919	8831.4797776796
0	4485	740741.603043929147	1486.4258356399
0	4502	742141.463465368936	1698.0120535684
0	4521	742984.601710813874	7951.7419753492
0	4529	743559.123036449313	3789.0568628889
0	4534	743610.343716711868	2841.9191296039
0	4553	752726.334378665921	10498.603628512
0	4573	763990.97424185063	16457.452983187
0	4594	769973.28068026203	6932.028782356
0	4608	773722.01862458138	6686.2516467154
0	4630	789015.769194309679	19120.300828711
0	4649	798621.969260241751	15749.931548851
0	4675	804485.068360472441	1542.435897183
0	4683	805274.496749783731	9359.9357095499
0	4717	812541.28576641999	9084.2968658706
0	4745	813491.425227848243	1177.9008564524
0	4750	813690.517613730064	1664.1101879726
0	4758	814942.574877526041	2371.9843681177
0	4775	817331.149082472595	4318.1035484206
0	4783	818154.565174789175	6473.092733482
0	4800	820289.789561792939	4868.926255403
0	4826	825389.126792073359	1878.4193298299
0	4834	826251.189150719213	7222.8173773928
0	4860	832409.247242364942	8370.8652336786
0	4868	832980.167097247381	3688.6911824538
0	4885	835541.222268264446	5337.67894367
0	4908	848459.598599578524	13827.950495836
0	4930	851665.147025612392	3276.8788975986
0	4940	855669.614944185885	9079.5734054286
0	4957	859621.175657662846	9486.4422527582
0	4974	862585.20529181619	4453.8238085215
0	4999	864455.08459536226	2303.4773866447
0	5007	866878.652584540531	3933.5225273579
0	5025	870858.795110417477	7577.0068340885
0	5042	873805.716159205225	3692.0045211434
0	5068	880643.112225044835	2108.3110373743
0	5093	882060.445684681788	796.14368055368
0	5101	883327.639073717418	3714.0019329961
0	5117	883925.536907237677	10656.034457047
0	5148	887980.823570538851	2955.3789965981
0	5154	888002.748924327121	4595.0105122687
0	5159	888100.371511004166	6707.383857765
0	5177	896221.322329669996	10134.903013321
0	5195	901541.415842526408	9988.6406646838
0	5213	906660.029997746579	6508.084827191
0	5239	912367.085198355081	831.83741923262
0	5247	912833.443389138129	7175.1477814384
0	5286	924538.101097620674	3008.966848591
0	5294	925345.376747714949	3832.9096376107
0	5323	926682.725217402454	15038.695662824
0	5332	927299.119525607441	3776.9150433652
0	5364	929027.267467387449	1691.4713479044
0	5372	929226.507686911272	1261.0946067245
0	5380	929493.318128950893	3781.3687231707
0	5389	930142.099390965411	4392.3872790963
0	5408	931383.309379312528	2988.3814697589
0	5436	934332.236623120641	9338.1522077017
0	5441	934420.768682330229	4091.7954786515
0	5446	934464.531411040033	3111.2541309932
0	5471	936787.349152147411	4010.4675232118
0	5479	937430.28166614013	1279.4761033865
0	5522	946952.465875555057	10570.255720853
0	5530	947747.34908045394	4140.2808655248
0	5539	948390.277445406352	1917.0534389421
0	5547	950022.290233436658	6396.1757957019
0	5566	957122.887931500986	10342.810789112
0	5586	971764.218032232357	16286.954311923
0	5611	972903.192536343473	3363.2335668057
0	5619	973984.174397227286	2102.6518361968
0	5664	980650.246927516842	8235.0582529225
0	5679	981234.322032998479	2528.1836156984
0	5697	981607.267396524862	2420.580349592
0	5705	981667.37889189652	3342.4589667031
0	5718	982074.592854592018	1021.468170128
0	5738	984198.069102653786	3290.7001145459
0	5757	985086.64024035068	3450.8142216071
0	5762	985520.783371449574	6226.2988567352
0	5767	985714.494270694682	3016.1969845956
0	5784	989996.068222245004	5856.2373730009
0	5810	994226.637095355599	3675.5528575389
0	5835	996403.891136514521	1229.8195683612
0	5843	996675.657022058686	4585.1148745128
0	5851	997493.195920103697	11026.769809593
0	5878	1007391.692381306002	11985.330264564
0	5895	1008380.269721380378	3160.9231947366
0	5912	1011771.5807496149	5093.9705007028
0	5920	1012562.385519542881	5044.5405708752
0	5937	1015772.208640477678	5373.6117842352
0	5977	1030386.128449780976	15908.208123317
0	5988	1031508.005197413443	3091.595047415
0	6010	1033125.146314736512	4799.9059823251
0	6015	1033375.089145416633	2752.9467236455
0	6031	1034381.979733484588	5886.2129219631
0	6039	1034630.334317324918	3717.0853764603
0	6056	1035929.102190885614	2188.8819352753
1	679	107667.890369023282	0
1	687	107934.728387071487	0
1	713	113499.879985363373	0
1	722	115485.176103659413	0
1	739	117627.398765692079	0
1	755	119020.716761204168	0
1	781	124912.781038816562	0
1	798	128527.277493126028	26.498905408387
1	807	130273.47175117432	0
1	836	135317.051948055551	208.11165585908
1	841	135401.893297371916	128.27669851944
1	849	136863.558438565234	0
1	874	140680.726059975941	854.63911280144
1	883	141632.820741498434	0
1	915	143997.18406702551	246.42086440187
1	933	148319.372707348299	0
1	941	149146.912551634462	0
1	958	150349.479447974668	0
1	974	152858.89110073355	265.22281707683
1	1001	159383.267256641325	85.259926817615
1	1010	162086.974088566936	0
1	1027	165801.104525820342	0
1	1044	170175.524706440208	0
1	1061	171579.371600789139	0
1	1080	172713.082705705511	311.81954300204
1	1093	173757.046150079028	0
1	1101	173942.979305614181	0
1	1126	176166.918949899727	0
1	1137	176586.957227231059	223.53818388771
1	1159	177195.06089578875	0
1	1175	178227.182010187424	472.22834736734
1	1200	182811.352323416341	0
1	1219	189149.269939222289	0
1	1227	190154.963332692118	445.0836863761
1	1252	192346.267104933688	0
1	1260	192669.396278536874	234.93287842672
1	1276	194094.278915776527	1090.1022344736
1	1285	195613.24643611033	0
1	1302	199288.026456104833	0
1	1335	203296.953082388753	0
1	1344	205870.931563832426	0
1	1369	207715.856629506052	0
1	1386	211573.303184504441	0
1	1394	212923.714545847218	0
1	1411	214983.394376094722	0
1	1436	217945.955318833513	183.6578791452
1	1445	219456.926088925829	1347.8067646206
1	1469	221757.423318243477	0
1	1479	225391.618387349627	0
1	1495	226755.582948793193	0
1	1520	229098.833525429908	0
1	1536	230075.832421562675	0
1	1544	230425.158785772848	0
1	1569	233963.941618843141	128.1325367002
1	1578	235500.221880860101	0
1	1598	238133.291984397561	246.02701766827
1	1620	241779.801776406831	0
1	1637	244916.762856806923	0
1	1654	246778.202620178794	0
1	1662	247365.01162513161	0
1	1678	248210.632553092642	0
1	1703	249492.518788049669	0
1	1720	252501.023955051099	0
1	1728	254440.083730610481	0
1	1745	257123.835207299066	0
1	1770	260064.359339906676	0
1	1787	263751.694189277411	192.2187291796
1	1796	266436.29773164554	0
1	1821	268573.135396828249	0
1	1829	269921.690021776721	0
1	1855	274335.016994562594	0
1	1873	280046.211114426032	0
1	1882	283768.444308887919	0
1	1908	288056.444991809727	0
1	1925	291237.225284039558	0
1	1933	291394.033496132101	90.839726900643
1	1950	294547.773025895821	0
1	1966	295074.88038195395	0
1	1983	297698.245993504685	0
1	2000	300447.066936671783	0
1	2008	301880.1022012441	0
1	2044	313550.671445247776	0
1	2062	320924.001915040096	0
1	2079	321252.603693752424	0
1	2095	322099.194470292766	0
1	2103	322667.88718326785	0
1	2120	324563.57653215078	497.97745880662
1	2145	329680.595785615147	0
1	2163	334197.416284068237	0
1	2172	338736.150989294681	0
1	2180	338765.418220811612	0
1	2189	339277.786944282912	0
1	2222	344192.75946799677	0
1	2249	352561.496889877862	0
1	2267	357050.324256946727	0
1	2275	358433.546378072594	756.99322721727
1	2302	367394.200084066898	0
1	2321	377147.498189246742	0
1	2338	378960.885875642678	0
1	2354	379134.762466543634	0
1	2370	380742.125955711524	0
1	2387	381281.457188745945	0
1	2395	382552.199951686954	0
1	2403	382807.66328140546	0
1	2422	383484.8735977954	89.40168670243
1	2444	384467.823510557004	0
1	2468	385449.079047750627	0
1	2485	387617.390899897825	0
1	2493	388149.751355842856	403.22121478729
1	2517	389710.459451915683	480.8247698236
1	2534	392835.289206627566	0
1	2543	393811.392069106789	27.15009062856
1	2570	402777.105813742531	0
1	2586	403489.95069072846	0
1	2594	403800.826982936321	0
1	2610	404591.079140108061	2.130975412331
1	2628	408530.132624239978	0
1	2636	408949.901745780657	302.48015210104
1	2662	414526.498111580299	0
1	2670	414740.39460304811	0
1	2702	416999.084506503178	0
1	2711	418057.170919030792	61.309608358729
1	2737	423743.180211003551	0
1	2748	424764.079944615339	763.08994368289
1	2753	424808.240070707266	530.11226988987
1	2778	428090.601890760283	0
1	2804	432717.725896984287	0
1	2820	434963.025888772702	0
1	2837	436529.357955896316	0
1	2856	445280.078534797004	0
1	2874	452606.471138543336	0
1	2893	459166.690037463082	0
1	2914	474682.230325435664	0
1	2922	476958.968835758003	0
1	2950	488081.225703513789	0
1	2958	488638.506310798037	45.329966839004
1	2984	492236.756700542179	0
1	3000	494478.5388334739	0
1	3017	496478.987241202415	0
1	3027	501831.478143860405	0
1	3043	502993.073820166404	0
1	3069	509211.871346987582	0
1	3089	521839.765769545956	0
1	3108	530549.294007257002	0
1	3117	531110.350689813216	0
1	3133	532176.0195273866	0
1	3149	533425.584271152094	0
1	3166	534776.364672023249	0
1	3192	541554.928955976195	0
1	3201	544925.564466028754	0
1	3218	547579.051211407052	0
1	3226	547977.119065219323	0
1	3235	549037.895468962813	0
1	3251	551206.031423132343	0
1	3293	556580.380948236351	0
1	3310	560572.069216739946	0
1	3319	561077.811507934728	272.61038973208
1	3327	561837.212123934416	0
1	3335	562142.157241206792	72.137355398368
1	3346	562201.146419463305	43.586280566384
1	3385	567049.715691052181	0
1	3401	568518.443455612232	0
1	3421	571562.462077466617	958.24266261009
1	3444	577156.039256960077	0
1	3452	577218.710955442547	0
1	3460	577361.764998687557	0
1	3494	583188.487397692853	0
1	3502	584041.880093270315	224.63457009645
1	3527	586431.59633250842	272.89298517715
1	3545	591308.801570917185	0
1	3553	592134.546014118103	0
1	3569	593792.087810185066	0
1	3596	601648.968801296656	0
1	3612	602868.338178924422	619.56260359913
1	3629	605671.452037716673	0
1	3646	608725.44564014071	0
1	3663	610626.402745953327	0
1	3680	613048.276518088522	0
1	3697	617163.841423448451	0
1	3706	619633.916282571687	0
1	3714	620176.918135225554	0
1	3722	620387.498688550492	0
1	3731	621043.737859640606	616.55765130373
1	3763	623225.987351561334	0
1	3791	625111.874109528182	751.19932975005
1	3807	626486.837185262494	963.6594219479
1	3829	629429.80783291928	0
1	3847	635664.395753191348	0
1	3866	642193.42190001068	0
1	3874	642639.677136142922	20.042197837264
1	3893	643282.468736334123	310.28164952743
1	3898	643352.346930653132	270.09478777387
1	3923	646342.608034772384	0
1	3948	650417.965490928915	0
1	3967	658426.185268794647	0
1	3975	658559.05012701569	72.594052499612
1	4000	662670.447618781372	0
1	4009	663554.56340671088	0
1	4017	663760.876421703953	194.22333194429
1	4050	668063.494218035351	42.425794985411
1	4068	672927.76390767575	0
1	4085	676277.006379254409	0
1	4093	676442.503877152917	120.27184933546
1	4117	677423.335005117781	0
1	4134	679549.379386798263	0
1	4143	681236.443949912169	0
1	4159	683487.497814216844	0
1	4186	692125.236612563998	0
1	4204	696203.86526736384	0
1	4223	705606.389119334858	0
1	4231	707797.262965695168	0
1	4258	714391.92070408756	0
1	4266	714885.691344185252	323.21415326812
1	4293	723765.061797650191	0
1	4310	727195.767472099749	0
1	4319	729659.009436514062	0
1	4327	729665.330654804653	0
1	4335	730881.753160367284	0
1	4358	732272.644561584556	672.29557995888
1	4363	732709.002759214474	447.87643270461
1	4377	733532.714169102381	745.83404891577
1	4393	734530.624947774196	564.59307043065
1	4417	735032.859735464676	0
1	4450	739255.177208289242	0
1	4466	739770.066173560451	0
1	4474	740443.451411800498	0
1	4490	740768.424587107955	0
1	4507	742227.730750153981	0
1	4541	747533.521258663795	0
1	4562	763041.251897906057	0
1	4579	767035.76697786603	0
1	4596	769973.28068026203	77.812314663362
1	4616	782872.037711390698	0
1	4637	795914.561040233788	0
1	4655	802942.632463289476	0
1	4663	803456.988900549367	0
1	4690	811681.472441307149	0
1	4698	812113.151596668688	86.744170911179
1	4709	812351.928700614462	38.404329218618
1	4722	812570.590509408349	0
1	4731	813013.045534052041	0
1	4763	815420.863306389972	0
1	4789	819028.37177332645	0
1	4806	823510.707462243464	0
1	4814	824038.382008686364	0
1	4840	829291.47591479355	0
1	4848	830203.543324594427	0
1	4874	834631.648103742232	0
1	4894	846590.041538757306	0
1	4910	848459.598599578524	71.33047156473
1	4919	850134.733404904605	0
1	4946	858131.381483294697	0
1	4963	862151.607208717594	0
1	4979	862945.13005718266	0
1	4987	863305.44408830411	23.655811975143
1	5014	870113.711638061845	0
1	5031	873269.50245019035	0
1	5048	878534.801187670498	0
1	5057	879613.637140721307	0
1	5073	881264.302004128103	0
1	5081	881392.987653239147	0
1	5106	883407.738412058412	0
1	5123	885025.444573940773	0
1	5131	886086.419316348771	0
1	5165	891552.775177842613	0
1	5184	900151.945170555625	0
1	5201	905658.295607699741	0
1	5219	911535.247779122463	0
1	5227	911717.945052480255	73.915497901642
1	5255	921512.467110104241	0
1	5263	921562.902537397607	33.768288367938
1	5271	923522.204482242288	0
1	5296	925345.376747714949	351.29233229598
1	5307	925904.510064695409	192.56065891522
1	5312	926315.142922976477	565.4308111074
1	5337	927335.796119483002	0
1	5345	927965.413080186778	0
1	5353	928394.927909553605	0
1	5394	930328.973203678732	0
1	5410	931383.309379312528	30.032099265659
1	5418	932776.881628935583	0
1	5452	936150.805562753635	0
1	5460	936382.210154701602	0
1	5486	943607.068214929136	0
1	5494	943693.720909844858	67.60647211014
1	5503	946473.224006464282	0
1	5514	946784.036849212969	3.959706824463
1	5554	955477.263720309068	0
1	5575	969539.958969537802	0
1	5591	971881.522561030467	0
1	5600	972415.188674594385	0
1	5626	978324.919925193429	0
1	5634	978706.138417300085	0
1	5642	979186.687046932868	0
1	5650	979322.396020941635	27.91150622727
1	5681	981234.322032998479	326.95304489063
1	5689	981377.668844932195	324.54416046815
1	5707	981667.37889189652	31.552873152983
1	5723	982698.297286099129	0
1	5740	984198.069102653786	58.238253409732
1	5772	986466.426110511075	0
1	5790	990551.084237816701	0
1	5798	992090.542147545933	0
1	5815	995174.071568153345	0
1	5823	995406.362116742466	0
1	5859	1005219.346526643806	0
1	5867	1006677.610248912127	0
1	5883	1007517.844948667667	0
1	5900	1010398.596856242486	0
1	5926	1014477.920326464173	0
1	5946	1028325.240332411447	0
1	5954	1028490.893933268522	74.483783270111
1	5966	1029299.810472018467	804.04366049699
1	5990	1031508.005197413443	885.86277564234
1	5995	1031520.758232969859	607.50929210526
1	6020	1033740.220255610286	0
1	6044	1034700.611681714498	0
2	677	107667.890369023282	1
2	679	107667.890369023282	0
2	685	107934.728387071487	1
2	687	107934.728387071487	0
2	711	113499.879985363373	1
2	713	113499.879985363373	0
2	720	115485.176103659413	1
2	722	115485.176103659413	0
2	737	117627.398765692079	1
2	739	117627.398765692079	0
2	753	119020.716761204168	1
2	755	119020.716761204168	0
2	779	124912.781038816562	1
2	781	124912.781038816562	0
2	793	128500.778587717641	1
2	798	128527.277493126028	0
2	805	130273.47175117432	1
2	807	130273.47175117432	0
2	828	135108.940292196472	1
2	831	135273.61659885248	2
2	836	135317.051948055551	1
2	841	135401.893297371916	0
2	847	136863.558438565234	1
2	849	136863.558438565234	0
2	869	139826.0869471745	1
2	874	140680.726059975941	0
2	881	141632.820741498434	1
2	883	141632.820741498434	0
2	910	143750.763202623637	1
2	915	143997.18406702551	0
2	931	148319.372707348299	1
2	933	148319.372707348299	0
2	939	149146.912551634462	1
2	941	149146.912551634462	0
2	956	150349.479447974668	1
2	958	150349.479447974668	0
2	969	152593.668283656724	1
2	974	152858.89110073355	0
2	996	159298.00732982371	1
2	1001	159383.267256641325	0
2	1008	162086.974088566936	1
2	1010	162086.974088566936	0
2	1025	165801.104525820342	1
2	1027	165801.104525820342	0
2	1042	170175.524706440208	1
2	1044	170175.524706440208	0
2	1059	171579.371600789139	1
2	1061	171579.371600789139	0
2	1072	172401.263162703469	1
2	1080	172713.082705705511	0
2	1091	173757.046150079028	1
2	1093	173757.046150079028	0
2	1099	173942.979305614181	1
2	1101	173942.979305614181	0
2	1124	176166.918949899727	1
2	1126	176166.918949899727	0
2	1129	176363.41904334335	1
2	1137	176586.957227231059	0
2	1157	177195.06089578875	1
2	1159	177195.06089578875	0
2	1170	177754.953662820085	1
2	1175	178227.182010187424	0
2	1198	182811.352323416341	1
2	1200	182811.352323416341	0
2	1217	189149.269939222289	1
2	1219	189149.269939222289	0
2	1222	189709.879646316019	1
2	1227	190154.963332692118	0
2	1250	192346.267104933688	1
2	1252	192346.267104933688	0
2	1255	192434.463400110159	1
2	1260	192669.396278536874	0
2	1271	193004.176681302918	1
2	1276	194094.278915776527	0
2	1283	195613.24643611033	1
2	1285	195613.24643611033	0
2	1300	199288.026456104833	1
2	1302	199288.026456104833	0
2	1333	203296.953082388753	1
2	1335	203296.953082388753	0
2	1342	205870.931563832426	1
2	1344	205870.931563832426	0
2	1367	207715.856629506052	1
2	1369	207715.856629506052	0
2	1384	211573.303184504441	1
2	1386	211573.303184504441	0
2	1392	212923.714545847218	1
2	1394	212923.714545847218	0
2	1409	214983.394376094722	1
2	1411	214983.394376094722	0
2	1431	217762.297439688312	1
2	1436	217945.955318833513	0
2	1439	218109.11932430526	1
2	1445	219456.926088925829	0
2	1467	221757.423318243477	1
2	1469	221757.423318243477	0
2	1477	225391.618387349627	1
2	1479	225391.618387349627	0
2	1493	226755.582948793193	1
2	1495	226755.582948793193	0
2	1518	229098.833525429908	1
2	1520	229098.833525429908	0
2	1534	230075.832421562675	1
2	1536	230075.832421562675	0
2	1542	230425.158785772848	1
2	1544	230425.158785772848	0
2	1564	233835.809082142945	1
2	1569	233963.941618843141	0
2	1576	235500.221880860101	1
2	1578	235500.221880860101	0
2	1593	237887.264966729288	1
2	1598	238133.291984397561	0
2	1618	241779.801776406831	1
2	1620	241779.801776406831	0
2	1635	244916.762856806923	1
2	1637	244916.762856806923	0
2	1652	246778.202620178794	1
2	1654	246778.202620178794	0
2	1660	247365.01162513161	1
2	1662	247365.01162513161	0
2	1676	248210.632553092642	1
2	1678	248210.632553092642	0
2	1701	249492.518788049669	1
2	1703	249492.518788049669	0
2	1718	252501.023955051099	1
2	1720	252501.023955051099	0
2	1726	254440.083730610481	1
2	1728	254440.083730610481	0
2	1743	257123.835207299066	1
2	1745	257123.835207299066	0
2	1768	260064.359339906676	1
2	1770	260064.359339906676	0
2	1782	263559.475460097807	1
2	1787	263751.694189277411	0
2	1794	266436.29773164554	1
2	1796	266436.29773164554	0
2	1819	268573.135396828249	1
2	1821	268573.135396828249	0
2	1827	269921.690021776721	1
2	1829	269921.690021776721	0
2	1853	274335.016994562594	1
2	1855	274335.016994562594	0
2	1871	280046.211114426032	1
2	1873	280046.211114426032	0
2	1880	283768.444308887919	1
2	1882	283768.444308887919	0
2	1906	288056.444991809727	1
2	1908	288056.444991809727	0
2	1923	291237.225284039558	1
2	1925	291237.225284039558	0
2	1928	291303.193769231458	1
2	1933	291394.033496132101	0
2	1948	294547.773025895821	1
2	1950	294547.773025895821	0
2	1964	295074.88038195395	1
2	1966	295074.88038195395	0
2	1981	297698.245993504685	1
2	1983	297698.245993504685	0
2	1998	300447.066936671783	1
2	2000	300447.066936671783	0
2	2006	301880.1022012441	1
2	2008	301880.1022012441	0
2	2042	313550.671445247776	1
2	2044	313550.671445247776	0
2	2060	320924.001915040096	1
2	2062	320924.001915040096	0
2	2077	321252.603693752424	1
2	2079	321252.603693752424	0
2	2093	322099.194470292766	1
2	2095	322099.194470292766	0
2	2101	322667.88718326785	1
2	2103	322667.88718326785	0
2	2115	324065.599073344157	1
2	2120	324563.57653215078	0
2	2143	329680.595785615147	1
2	2145	329680.595785615147	0
2	2161	334197.416284068237	1
2	2163	334197.416284068237	0
2	2170	338736.150989294681	1
2	2172	338736.150989294681	0
2	2178	338765.418220811612	1
2	2180	338765.418220811612	0
2	2187	339277.786944282912	1
2	2189	339277.786944282912	0
2	2220	344192.75946799677	1
2	2222	344192.75946799677	0
2	2247	352561.496889877862	1
2	2249	352561.496889877862	0
2	2265	357050.324256946727	1
2	2267	357050.324256946727	0
2	2270	357676.553150855326	1
2	2275	358433.546378072594	0
2	2300	367394.200084066898	1
2	2302	367394.200084066898	0
2	2319	377147.498189246742	1
2	2321	377147.498189246742	0
2	2336	378960.885875642678	1
2	2338	378960.885875642678	0
2	2352	379134.762466543634	1
2	2354	379134.762466543634	0
2	2368	380742.125955711524	1
2	2370	380742.125955711524	0
2	2385	381281.457188745945	1
2	2387	381281.457188745945	0
2	2393	382552.199951686954	1
2	2395	382552.199951686954	0
2	2401	382807.66328140546	1
2	2403	382807.66328140546	0
2	2414	383395.47191109297	1
2	2422	383484.8735977954	0
2	2442	384467.823510557004	1
2	2444	384467.823510557004	0
2	2466	385449.079047750627	1
2	2468	385449.079047750627	0
2	2483	387617.390899897825	1
2	2485	387617.390899897825	0
2	2488	387746.530141055561	1
2	2493	388149.751355842856	0
2	2512	389229.634682092078	1
2	2517	389710.459451915683	0
2	2532	392835.289206627566	1
2	2534	392835.289206627566	0
2	2538	393784.241978478229	1
2	2543	393811.392069106789	0
2	2568	402777.105813742531	1
2	2570	402777.105813742531	0
2	2584	403489.95069072846	1
2	2586	403489.95069072846	0
2	2592	403800.826982936321	1
2	2594	403800.826982936321	0
2	2605	404588.94816469573	1
2	2610	404591.079140108061	0
2	2626	408530.132624239978	1
2	2628	408530.132624239978	0
2	2631	408647.421593679615	1
2	2636	408949.901745780657	0
2	2660	414526.498111580299	1
2	2662	414526.498111580299	0
2	2668	414740.39460304811	1
2	2670	414740.39460304811	0
2	2700	416999.084506503178	1
2	2702	416999.084506503178	0
2	2706	417995.861310672063	1
2	2711	418057.170919030792	0
2	2735	423743.180211003551	1
2	2737	423743.180211003551	0
2	2740	424000.990000932452	1
2	2743	424278.127800817391	2
2	2748	424764.079944615339	1
2	2753	424808.240070707266	0
2	2776	428090.601890760283	1
2	2778	428090.601890760283	0
2	2802	432717.725896984287	1
2	2804	432717.725896984287	0
2	2818	434963.025888772702	1
2	2820	434963.025888772702	0
2	2835	436529.357955896316	1
2	2837	436529.357955896316	0
2	2854	445280.078534797004	1
2	2856	445280.078534797004	0
2	2872	452606.471138543336	1
2	2874	452606.471138543336	0
2	2891	459166.690037463082	1
2	2893	459166.690037463082	0
2	2912	474682.230325435664	1
2	2914	474682.230325435664	0
2	2920	476958.968835758003	1
2	2922	476958.968835758003	0
2	2948	488081.225703513789	1
2	2950	488081.225703513789	0
2	2953	488593.176343959033	1
2	2958	488638.506310798037	0
2	2982	492236.756700542179	1
2	2984	492236.756700542179	0
2	2998	494478.5388334739	1
2	3000	494478.5388334739	0
2	3015	496478.987241202415	1
2	3017	496478.987241202415	0
2	3025	501831.478143860405	1
2	3027	501831.478143860405	0
2	3041	502993.073820166404	1
2	3043	502993.073820166404	0
2	3067	509211.871346987582	1
2	3069	509211.871346987582	0
2	3087	521839.765769545956	1
2	3089	521839.765769545956	0
2	3106	530549.294007257002	1
2	3108	530549.294007257002	0
2	3115	531110.350689813216	1
2	3117	531110.350689813216	0
2	3131	532176.0195273866	1
2	3133	532176.0195273866	0
2	3147	533425.584271152094	1
2	3149	533425.584271152094	0
2	3164	534776.364672023249	1
2	3166	534776.364672023249	0
2	3190	541554.928955976195	1
2	3192	541554.928955976195	0
2	3199	544925.564466028754	1
2	3201	544925.564466028754	0
2	3216	547579.051211407052	1
2	3218	547579.051211407052	0
2	3224	547977.119065219323	1
2	3226	547977.119065219323	0
2	3233	549037.895468962813	1
2	3235	549037.895468962813	0
2	3249	551206.031423132343	1
2	3251	551206.031423132343	0
2	3291	556580.380948236351	1
2	3293	556580.380948236351	0
2	3308	560572.069216739946	1
2	3310	560572.069216739946	0
2	3313	560805.201118202644	1
2	3319	561077.811507934728	0
2	3325	561837.212123934416	1
2	3327	561837.212123934416	0
2	3330	562070.019885808424	1
2	3335	562142.157241206792	0
2	3338	562157.560138896921	1
2	3346	562201.146419463305	0
2	3383	567049.715691052181	1
2	3385	567049.715691052181	0
2	3399	568518.443455612232	1
2	3401	568518.443455612232	0
2	3413	570604.219414856527	1
2	3421	571562.462077466617	0
2	3442	577156.039256960077	1
2	3444	577156.039256960077	0
2	3450	577218.710955442547	1
2	3452	577218.710955442547	0
2	3458	577361.764998687557	1
2	3460	577361.764998687557	0
2	3492	583188.487397692853	1
2	3494	583188.487397692853	0
2	3497	583817.245523173863	1
2	3502	584041.880093270315	0
2	3522	586158.703347331269	1
2	3527	586431.59633250842	0
2	3543	591308.801570917185	1
2	3545	591308.801570917185	0
2	3551	592134.546014118103	1
2	3553	592134.546014118103	0
2	3567	593792.087810185066	1
2	3569	593792.087810185066	0
2	3594	601648.968801296656	1
2	3596	601648.968801296656	0
2	3607	602248.775575325296	1
2	3612	602868.338178924422	0
2	3627	605671.452037716673	1
2	3629	605671.452037716673	0
2	3644	608725.44564014071	1
2	3646	608725.44564014071	0
2	3661	610626.402745953327	1
2	3663	610626.402745953327	0
2	3678	613048.276518088522	1
2	3680	613048.276518088522	0
2	3695	617163.841423448451	1
2	3697	617163.841423448451	0
2	3704	619633.916282571687	1
2	3706	619633.916282571687	0
2	3712	620176.918135225554	1
2	3714	620176.918135225554	0
2	3720	620387.498688550492	1
2	3722	620387.498688550492	0
2	3725	620427.180208336881	1
2	3731	621043.737859640606	0
2	3761	623225.987351561334	1
2	3763	623225.987351561334	0
2	3786	624360.674779778127	1
2	3791	625111.874109528182	0
2	3802	625523.177763314595	1
2	3807	626486.837185262494	0
2	3827	629429.80783291928	1
2	3829	629429.80783291928	0
2	3845	635664.395753191348	1
2	3847	635664.395753191348	0
2	3864	642193.42190001068	1
2	3866	642193.42190001068	0
2	3869	642619.634938305658	1
2	3874	642639.677136142922	0
2	3885	642972.187086806696	1
2	3888	643082.252142879257	2
2	3893	643282.468736334123	1
2	3898	643352.346930653132	0
2	3921	646342.608034772384	1
2	3923	646342.608034772384	0
2	3946	650417.965490928915	1
2	3948	650417.965490928915	0
2	3965	658426.185268794647	1
2	3967	658426.185268794647	0
2	3970	658486.456074516078	1
2	3975	658559.05012701569	0
2	3998	662670.447618781372	1
2	4000	662670.447618781372	0
2	4007	663554.56340671088	1
2	4009	663554.56340671088	0
2	4012	663566.653089759666	1
2	4017	663760.876421703953	0
2	4045	668021.06842304994	1
2	4050	668063.494218035351	0
2	4066	672927.76390767575	1
2	4068	672927.76390767575	0
2	4083	676277.006379254409	1
2	4085	676277.006379254409	0
2	4088	676322.232027817453	1
2	4093	676442.503877152917	0
2	4115	677423.335005117781	1
2	4117	677423.335005117781	0
2	4132	679549.379386798263	1
2	4134	679549.379386798263	0
2	4141	681236.443949912169	1
2	4143	681236.443949912169	0
2	4157	683487.497814216844	1
2	4159	683487.497814216844	0
2	4184	692125.236612563998	1
2	4186	692125.236612563998	0
2	4202	696203.86526736384	1
2	4204	696203.86526736384	0
2	4221	705606.389119334858	1
2	4223	705606.389119334858	0
2	4229	707797.262965695168	1
2	4231	707797.262965695168	0
2	4256	714391.92070408756	1
2	4258	714391.92070408756	0
2	4261	714562.477190917133	1
2	4266	714885.691344185252	0
2	4291	723765.061797650191	1
2	4293	723765.061797650191	0
2	4308	727195.767472099749	1
2	4310	727195.767472099749	0
2	4317	729659.009436514062	1
2	4319	729659.009436514062	0
2	4325	729665.330654804653	1
2	4327	729665.330654804653	0
2	4333	730881.753160367284	1
2	4335	730881.753160367284	0
2	4346	731600.348981625674	1
2	4353	732261.126326509861	2
2	4358	732272.644561584556	1
2	4363	732709.002759214474	0
2	4366	732786.880120186616	1
2	4377	733532.714169102381	0
2	4388	733966.031877343547	1
2	4393	734530.624947774196	0
2	4415	735032.859735464676	1
2	4417	735032.859735464676	0
2	4448	739255.177208289242	1
2	4450	739255.177208289242	0
2	4464	739770.066173560451	1
2	4466	739770.066173560451	0
2	4472	740443.451411800498	1
2	4474	740443.451411800498	0
2	4488	740768.424587107955	1
2	4490	740768.424587107955	0
2	4505	742227.730750153981	1
2	4507	742227.730750153981	0
2	4539	747533.521258663795	1
2	4541	747533.521258663795	0
2	4560	763041.251897906057	1
2	4562	763041.251897906057	0
2	4577	767035.76697786603	1
2	4579	767035.76697786603	0
2	4591	769895.468365598668	1
2	4596	769973.28068026203	0
2	4614	782872.037711390698	1
2	4616	782872.037711390698	0
2	4635	795914.561040233788	1
2	4637	795914.561040233788	0
2	4653	802942.632463289476	1
2	4655	802942.632463289476	0
2	4661	803456.988900549367	1
2	4663	803456.988900549367	0
2	4688	811681.472441307149	1
2	4690	811681.472441307149	0
2	4693	812026.407425757509	1
2	4698	812113.151596668688	0
2	4704	812313.524371395844	1
2	4709	812351.928700614462	0
2	4720	812570.590509408349	1
2	4722	812570.590509408349	0
2	4729	813013.045534052041	1
2	4731	813013.045534052041	0
2	4761	815420.863306389972	1
2	4763	815420.863306389972	0
2	4787	819028.37177332645	1
2	4789	819028.37177332645	0
2	4804	823510.707462243464	1
2	4806	823510.707462243464	0
2	4812	824038.382008686364	1
2	4814	824038.382008686364	0
2	4838	829291.47591479355	1
2	4840	829291.47591479355	0
2	4846	830203.543324594427	1
2	4848	830203.543324594427	0
2	4872	834631.648103742232	1
2	4874	834631.648103742232	0
2	4892	846590.041538757306	1
2	4894	846590.041538757306	0
2	4905	848388.268128013794	1
2	4910	848459.598599578524	0
2	4917	850134.733404904605	1
2	4919	850134.733404904605	0
2	4944	858131.381483294697	1
2	4946	858131.381483294697	0
2	4961	862151.607208717594	1
2	4963	862151.607208717594	0
2	4977	862945.13005718266	1
2	4979	862945.13005718266	0
2	4982	863281.788276328967	1
2	4987	863305.44408830411	0
2	5012	870113.711638061845	1
2	5014	870113.711638061845	0
2	5029	873269.50245019035	1
2	5031	873269.50245019035	0
2	5046	878534.801187670498	1
2	5048	878534.801187670498	0
2	5055	879613.637140721307	1
2	5057	879613.637140721307	0
2	5071	881264.302004128103	1
2	5073	881264.302004128103	0
2	5079	881392.987653239147	1
2	5081	881392.987653239147	0
2	5104	883407.738412058412	1
2	5106	883407.738412058412	0
2	5121	885025.444573940773	1
2	5123	885025.444573940773	0
2	5129	886086.419316348771	1
2	5131	886086.419316348771	0
2	5163	891552.775177842613	1
2	5165	891552.775177842613	0
2	5182	900151.945170555625	1
2	5184	900151.945170555625	0
2	5199	905658.295607699741	1
2	5201	905658.295607699741	0
2	5217	911535.247779122463	1
2	5219	911535.247779122463	0
2	5222	911644.029554578613	1
2	5227	911717.945052480255	0
2	5253	921512.467110104241	1
2	5255	921512.467110104241	0
2	5258	921529.134249029669	1
2	5263	921562.902537397607	0
2	5269	923522.204482242288	1
2	5271	923522.204482242288	0
2	5291	924994.084415418969	1
2	5296	925345.376747714949	0
2	5299	925711.949405780189	1
2	5302	925749.71211186908	2
2	5307	925904.510064695409	1
2	5312	926315.142922976477	0
2	5335	927335.796119483002	1
2	5337	927335.796119483002	0
2	5343	927965.413080186778	1
2	5345	927965.413080186778	0
2	5351	928394.927909553605	1
2	5353	928394.927909553605	0
2	5392	930328.973203678732	1
2	5394	930328.973203678732	0
2	5405	931353.277280046869	1
2	5410	931383.309379312528	0
2	5416	932776.881628935583	1
2	5418	932776.881628935583	0
2	5450	936150.805562753635	1
2	5452	936150.805562753635	0
2	5458	936382.210154701602	1
2	5460	936382.210154701602	0
2	5484	943607.068214929136	1
2	5486	943607.068214929136	0
2	5489	943626.114437734718	1
2	5494	943693.720909844858	0
2	5501	946473.224006464282	1
2	5503	946473.224006464282	0
2	5509	946780.077142388506	1
2	5514	946784.036849212969	0
2	5552	955477.263720309068	1
2	5554	955477.263720309068	0
2	5573	969539.958969537802	1
2	5575	969539.958969537802	0
2	5589	971881.522561030467	1
2	5591	971881.522561030467	0
2	5598	972415.188674594385	1
2	5600	972415.188674594385	0
2	5624	978324.919925193429	1
2	5626	978324.919925193429	0
2	5632	978706.138417300085	1
2	5634	978706.138417300085	0
2	5640	979186.687046932868	1
2	5642	979186.687046932868	0
2	5645	979294.484514714365	1
2	5650	979322.396020941635	0
2	5672	980907.368988107851	1
2	5676	981053.124684464049	2
2	5681	981234.322032998479	1
2	5689	981377.668844932195	0
2	5702	981635.826018743537	1
2	5707	981667.37889189652	0
2	5721	982698.297286099129	1
2	5723	982698.297286099129	0
2	5735	984139.830849244054	1
2	5740	984198.069102653786	0
2	5770	986466.426110511075	1
2	5772	986466.426110511075	0
2	5788	990551.084237816701	1
2	5790	990551.084237816701	0
2	5796	992090.542147545933	1
2	5798	992090.542147545933	0
2	5813	995174.071568153345	1
2	5815	995174.071568153345	0
2	5821	995406.362116742466	1
2	5823	995406.362116742466	0
2	5857	1005219.346526643806	1
2	5859	1005219.346526643806	0
2	5865	1006677.610248912127	1
2	5867	1006677.610248912127	0
2	5881	1007517.844948667667	1
2	5883	1007517.844948667667	0
2	5898	1010398.596856242486	1
2	5900	1010398.596856242486	0
2	5924	1014477.920326464173	1
2	5926	1014477.920326464173	0
2	5944	1028325.240332411447	1
2	5946	1028325.240332411447	0
2	5949	1028416.410149998411	1
2	5954	1028490.893933268522	0
2	5957	1028495.766811521476	1
2	5966	1029299.810472018467	0
2	5982	1030622.142421771099	1
2	5985	1030913.248940864598	2
2	5990	1031508.005197413443	1
2	5995	1031520.758232969859	0
2	6018	1033740.220255610286	1
2	6020	1033740.220255610286	0
2	6042	1034700.611681714498	1
2	6044	1034700.611681714498	0
3	664	100464.993729745581	762.82637621903
3	669	101274.10335224477	882.31774530023
3	696	110256.34693509384	0
3	704	110705.901104588437	0
3	730	116084.485014017796	0
3	747	117699.499630967476	0
3	763	119270.22710566329	0
3	772	121469.423545487829	0
3	790	128310.357616115164	0
3	815	130524.997762199127	0
3	825	135062.028375968059	0
3	858	138734.625500919573	0
3	866	139361.369847980055	0
3	891	142194.853581062709	0
3	899	142977.853017237046	0
3	907	143233.899547156576	100.84970761778
3	925	148110.323795219114	0
3	949	149348.526483045205	0
3	966	152481.279794536275	0
3	983	153109.17460302707	0
3	992	158942.452270191172	0
3	1018	164967.983243269363	0
3	1035	167208.756434729936	0
3	1052	170508.506050282308	0
3	1069	172155.443585193785	0
3	1085	173009.990250794363	342.69589169173
3	1110	174976.191012832088	0
3	1118	176002.285829031013	0
3	1142	176613.629695661739	142.22414722699
3	1151	177108.360120143052	313.01428670569
3	1167	177712.740385391972	0
3	1183	179002.848518386965	239.35445796261
3	1192	181994.871751217546	0
3	1210	187015.203737264418	0
3	1235	190933.020194179334	0
3	1243	191678.19639249443	0
3	1268	192917.209575327073	0
3	1293	196053.427664682089	0
3	1310	200171.132569840554	0
3	1318	200418.707001164752	0
3	1327	201080.038755077432	200.70138868116
3	1352	206877.318593940608	0
3	1361	207148.374934802951	0
3	1377	208359.815126509261	0
3	1403	213757.331865380241	0
3	1420	217252.968730270903	0
3	1428	217522.94657160062	0
3	1453	219917.376752229805	16.683545919136
3	1461	220915.466418926525	0
3	1487	226035.562137927832	0
3	1503	226995.71418784729	0
3	1511	227334.346993647308	0
3	1528	229504.42401635451	0
3	1553	231364.551228022243	0
3	1561	232197.759605018372	0
3	1587	237540.272654063854	0
3	1603	238152.170251426041	569.52899668887
3	1611	239874.099351019086	0
3	1628	242938.9419749525	0
3	1645	245571.453011660381	0
3	1670	247738.289554106185	0
3	1686	248767.260172665738	338.47785897915
3	1694	248873.759798841537	83.22324560559
3	1711	250450.532590487413	0
3	1737	256300.378052254888	0
3	1753	257267.432860672395	0
3	1761	257482.369314201814	0
3	1779	263545.086245422973	0
3	1805	267066.513326753053	0
3	1813	268136.693209046564	0
3	1838	270716.610815332551	761.80914725376
3	1846	271077.076882916515	0
3	1864	276143.38782219297	0
3	1890	284070.468464363718	0
3	1899	285209.421127026247	996.36618112739
3	1916	288568.716441679778	0
3	1941	291465.535764638611	70.812917350785
3	1958	295023.035289770626	195.68180553387
3	1975	297442.588123516152	0
3	1991	298017.559165640566	170.6320133569
3	2016	302004.002623904382	65.963409170268
3	2025	303878.814203584286	0
3	2033	305602.038214214491	1031.2706827785
3	2054	318816.361405083541	0
3	2071	321040.320160863555	0
3	2087	321349.260161377669	0
3	2111	323920.114038197973	0
3	2128	325817.840378158665	0
3	2136	326110.070528705948	0
3	2154	331539.779847117093	0
3	2200	340307.879575767807	109.18850775723
3	2205	340309.354238904064	68.958173832717
3	2213	340688.636543726411	0
3	2230	344567.346167269579	0
3	2239	345240.47331121356	344.69062731723
3	2257	353204.650284672802	0
3	2284	360030.536156995876	0
3	2292	362669.003984236794	0
3	2310	368305.604887138124	0
3	2330	378091.806301928593	0
3	2346	379075.730356634678	0
3	2362	379336.186108489852	0
3	2379	381187.488440704546	0
3	2411	383307.808785676174	76.027803442551
3	2427	383662.761085555052	179.46119406388
3	2435	383740.527022600665	0
3	2452	384719.174476298196	0
3	2460	385225.571676630581	0
3	2477	387159.764274787247	0
3	2501	388406.44514362826	0
3	2509	388977.154217165673	0
3	2526	390013.579614764807	0
3	2551	393894.015115750852	70.688978602751
3	2559	394915.107510739011	0
3	2578	403324.50372019598	0
3	2602	404122.475048951786	0
3	2618	404962.933746999742	0
3	2644	409529.881772358552	0
3	2653	411923.088666016849	0
3	2678	415543.05818251399	0
3	2686	415870.567166891766	0
3	2694	416385.796095377091	0
3	2719	418885.535365198767	0
3	2727	419198.819472328917	0
3	2762	427158.036434574822	0
3	2770	427640.459371815617	0
3	2787	430681.974149986955	0
3	2796	432158.080810379393	0
3	2812	433793.567179904672	0
3	2829	435329.673798127257	0
3	2845	437831.970403910054	0
3	2865	447130.748148891567	0
3	2883	455598.25702862824	0
3	2901	460527.026163613097	0
3	2931	477865.789264918884	0
3	2939	479066.100567118969	0
3	2967	489496.280422715325	0
3	2975	489722.232427882812	28.144015423333
3	2992	493252.308644842867	0
3	3009	495550.055761875256	0
3	3035	502367.703948310673	441.98159958839
3	3051	503630.997201140168	0
3	3060	504678.963765767769	0
3	3078	511814.025772509981	0
3	3098	522877.497471245117	0
3	3125	531593.435136283465	0
3	3141	533105.921357847726	0
3	3157	533989.441640928877	233.69337500582
3	3174	536966.992741194658	0
3	3183	539266.531524753616	0
3	3209	545244.680675694169	232.82118399003
3	3243	550126.781795144043	0
3	3259	551701.708489576101	58.910306492516
3	3268	552502.588206793309	0
3	3276	554902.78599329027	0
3	3285	555481.728465379787	0
3	3301	557570.587328464849	0
3	3351	562521.41107738655	321.95970058632
3	3359	562665.312700672872	0
3	3367	563118.2611006982	0
3	3376	565955.9785157855	0
3	3393	567738.242599604472	0
3	3410	570598.056395172878	0
3	3426	571979.866914914082	433.77308980004
3	3434	572111.213428858732	23.059245040804
3	3468	578102.713905854066	56.480778644682
3	3476	578712.742150990213	0
3	3485	581412.523414583571	0
3	3511	585265.624240195967	0
3	3519	586082.318018238793	765.07796382994
3	3535	587236.268247368813	0
3	3561	592809.314109647204	584.40369492206
3	3578	594296.211202238024	0
3	3586	596195.474745354376	0
3	3604	602236.946602750137	0
3	3621	603808.067120150542	0
3	3637	605878.561310031488	0
3	3655	609588.278574929163	0
3	3671	611876.815524833224	0
3	3688	613354.492783820458	0
3	3739	621208.709491409631	0
3	3747	621360.894552412869	0
3	3755	622032.14310804096	0
3	3771	623773.859483783065	237.38697360988
3	3780	624017.965768026163	0
3	3796	625372.153482268171	1219.9792338658
3	3812	626500.177353402223	1102.4671057872
3	3821	627057.614226199134	0
3	3838	630844.11303323994	0
3	3856	636068.322419676926	0
3	3882	642961.604014293046	226.8344263054
3	3906	643820.916170043272	0
3	3914	644370.504717900028	469.45232657663
3	3931	646891.489965234816	0
3	3940	649900.653878605096	0
3	3958	654205.227895120888	0
3	3983	659311.48292193048	0
3	3992	661059.434150340756	0
3	4025	665539.039553708486	0
3	4034	666394.708894023471	0
3	4042	667839.5081349195	0
3	4059	670100.304453741703	0
3	4076	673303.839975329582	0
3	4101	676581.970575025887	129.92367121029
3	4109	676890.115809322987	161.6432139612
3	4126	678490.041284729612	0
3	4151	681533.881841246443	290.01654593386
3	4168	684395.932437723104	523.19108171171
3	4177	689732.463347178254	0
3	4195	694047.810602238978	0
3	4213	701948.279788159954	0
3	4240	708498.702699951519	0
3	4249	712346.367222760998	0
3	4274	715226.319183507414	0
3	4282	716241.347196464092	0
3	4302	726738.153683724136	0
3	4343	731528.678686191102	0
3	4382	733743.091368808306	2016.7389047279
3	4398	734540.477474385241	1374.3252645149
3	4403	734566.641938078477	1294.6356741346
3	4408	734576.329138826632	623.40872139026
3	4425	736656.68984981609	0
3	4433	736925.645533090708	0
3	4442	738367.558073509072	0
3	4458	739573.475860843804	191.08651635974
3	4482	740648.206081744938	0
3	4499	741728.42938811045	0
3	4515	742538.617460042465	0
3	4523	742984.601710813874	133.72325390528
3	4531	743559.123036449313	496.13488797968
3	4550	752701.416034573485	0
3	4570	763821.298735496791	0
3	4588	769594.967015453323	0
3	4605	773697.964304866132	0
3	4626	788614.02905303239	0
3	4645	797914.77258036634	0
3	4672	804299.320392120855	0
3	4680	804986.64476636137	0
3	4714	812468.148003933851	351.97208334431
3	4739	813347.43257418572	0
3	4747	813491.425227848243	8.575159220177
3	4755	814913.046361956187	0
3	4772	816380.537268703091	0
3	4780	818017.867008243888	0
3	4797	820216.424237701831	0
3	4823	825361.565704710852	0
3	4831	825607.061624080782	0
3	4857	832002.229900936837	0
3	4865	832975.741474247218	0
3	4882	835530.745326765965	0
3	4902	848293.619537325904	0
3	4927	851162.896883037847	0
3	4936	854701.051447073357	0
3	4954	858853.181619241876	0
3	4971	862455.147935142375	0
3	4996	864416.199335612569	0
3	5004	865956.537830429741	0
3	5022	870804.498103124093	0
3	5039	873797.366479443481	0
3	5065	880204.670297411631	0
3	5089	881699.253436675163	0
3	5098	883203.737063334591	0
3	5114	883847.044154308145	0
3	5139	887090.518400572426	0
3	5150	887980.823570538851	760.02040868563
3	5156	888002.748924327121	304.07949256956
3	5174	896090.065877288345	0
3	5192	901251.23669214938	0
3	5210	906364.778966153696	0
3	5236	912057.782030051437	0
3	5244	912795.924687076718	0
3	5280	924251.985136485698	0
3	5288	924538.101097620674	203.28751889964
3	5320	926438.508084609944	100.8982536095
3	5329	927277.694702774765	0
3	5361	928909.066866991132	0
3	5369	929159.680228571303	0
3	5377	929279.65138663008	0
3	5386	930141.182769894235	0
3	5402	931286.19293598043	0
3	5426	932816.286614322487	0
3	5438	934332.236623120641	1305.0379624957
3	5443	934420.768682330229	599.00570424262
3	5468	936767.987706670758	0
3	5476	937428.936626881189	0
3	5519	946860.986648874619	193.59531381482
3	5527	946993.719737152712	0
3	5536	948013.388792240663	0
3	5544	949928.019412170583	0
3	5562	956592.393248997637	0
3	5583	971681.949317140304	0
3	5608	972675.157330498731	0
3	5616	973856.885019112467	0
3	5658	980061.978299323552	523.78472630813
3	5666	980650.246927516842	18.929243911638
3	5694	981380.67081828105	552.48689483177
3	5699	981607.267396524862	358.80105802348
3	5715	981984.370119324395	0
3	5731	983332.337251971678	0
3	5748	984984.71684389096	0
3	5759	985086.64024035068	48.660396029897
3	5764	985520.783371449574	440.93889846943
3	5781	989547.187148158848	0
3	5807	994108.083908859082	0
3	5832	996114.103050994757	0
3	5840	996648.598256821934	0
3	5848	996809.396053223749	0
3	5875	1007232.205281811804	308.15455945889
3	5892	1008269.442244765032	0
3	5909	1011297.049294781936	0
3	5917	1012414.276750451428	0
3	5934	1015633.301301257498	0
3	5971	1029368.61456840106	844.36423469585
3	5979	1030386.128449780976	702.8089130001
3	6003	1031894.599606583745	0
3	6012	1033125.146314736512	1079.2523607255
3	6028	1034344.822257254174	135.25334019494
3	6036	1034601.863512767477	0
3	6053	1035642.192930517306	0
4	659	100391.785606944539	2
4	664	100464.993729745581	1
4	669	101274.10335224477	0
4	694	110256.34693509384	1
4	696	110256.34693509384	0
4	702	110705.901104588437	1
4	704	110705.901104588437	0
4	728	116084.485014017796	1
4	730	116084.485014017796	0
4	745	117699.499630967476	1
4	747	117699.499630967476	0
4	761	119270.22710566329	1
4	763	119270.22710566329	0
4	770	121469.423545487829	1
4	772	121469.423545487829	0
4	788	128310.357616115164	1
4	790	128310.357616115164	0
4	813	130524.997762199127	1
4	815	130524.997762199127	0
4	823	135062.028375968059	1
4	825	135062.028375968059	0
4	856	138734.625500919573	1
4	858	138734.625500919573	0
4	864	139361.369847980055	1
4	866	139361.369847980055	0
4	889	142194.853581062709	1
4	891	142194.853581062709	0
4	897	142977.853017237046	1
4	899	142977.853017237046	0
4	902	143133.049839538792	1
4	907	143233.899547156576	0
4	923	148110.323795219114	1
4	925	148110.323795219114	0
4	947	149348.526483045205	1
4	949	149348.526483045205	0
4	964	152481.279794536275	1
4	966	152481.279794536275	0
4	981	153109.17460302707	1
4	983	153109.17460302707	0
4	990	158942.452270191172	1
4	992	158942.452270191172	0
4	1016	164967.983243269363	1
4	1018	164967.983243269363	0
4	1033	167208.756434729936	1
4	1035	167208.756434729936	0
4	1050	170508.506050282308	1
4	1052	170508.506050282308	0
4	1067	172155.443585193785	1
4	1069	172155.443585193785	0
4	1075	172667.294359102634	1
4	1085	173009.990250794363	0
4	1108	174976.191012832088	1
4	1110	174976.191012832088	0
4	1116	176002.285829031013	1
4	1118	176002.285829031013	0
4	1132	176471.405548434747	1
4	1142	176613.629695661739	0
4	1145	176795.345833437365	1
4	1151	177108.360120143052	0
4	1165	177712.740385391972	1
4	1167	177712.740385391972	0
4	1178	178763.494060424354	1
4	1183	179002.848518386965	0
4	1190	181994.871751217546	1
4	1192	181994.871751217546	0
4	1208	187015.203737264418	1
4	1210	187015.203737264418	0
4	1233	190933.020194179334	1
4	1235	190933.020194179334	0
4	1241	191678.19639249443	1
4	1243	191678.19639249443	0
4	1266	192917.209575327073	1
4	1268	192917.209575327073	0
4	1291	196053.427664682089	1
4	1293	196053.427664682089	0
4	1308	200171.132569840554	1
4	1310	200171.132569840554	0
4	1316	200418.707001164752	1
4	1318	200418.707001164752	0
4	1321	200879.337366396268	1
4	1327	201080.038755077432	0
4	1350	206877.318593940608	1
4	1352	206877.318593940608	0
4	1359	207148.374934802951	1
4	1361	207148.374934802951	0
4	1375	208359.815126509261	1
4	1377	208359.815126509261	0
4	1401	213757.331865380241	1
4	1403	213757.331865380241	0
4	1418	217252.968730270903	1
4	1420	217252.968730270903	0
4	1426	217522.94657160062	1
4	1428	217522.94657160062	0
4	1448	219900.693206310669	1
4	1453	219917.376752229805	0
4	1459	220915.466418926525	1
4	1461	220915.466418926525	0
4	1485	226035.562137927832	1
4	1487	226035.562137927832	0
4	1501	226995.71418784729	1
4	1503	226995.71418784729	0
4	1509	227334.346993647308	1
4	1511	227334.346993647308	0
4	1526	229504.42401635451	1
4	1528	229504.42401635451	0
4	1551	231364.551228022243	1
4	1553	231364.551228022243	0
4	1559	232197.759605018372	1
4	1561	232197.759605018372	0
4	1585	237540.272654063854	1
4	1587	237540.272654063854	0
4	1590	237582.641254737169	1
4	1603	238152.170251426041	0
4	1609	239874.099351019086	1
4	1611	239874.099351019086	0
4	1626	242938.9419749525	1
4	1628	242938.9419749525	0
4	1643	245571.453011660381	1
4	1645	245571.453011660381	0
4	1668	247738.289554106185	1
4	1670	247738.289554106185	0
4	1681	248428.782313686586	1
4	1686	248767.260172665738	0
4	1689	248790.536553235947	1
4	1694	248873.759798841537	0
4	1709	250450.532590487413	1
4	1711	250450.532590487413	0
4	1735	256300.378052254888	1
4	1737	256300.378052254888	0
4	1751	257267.432860672395	1
4	1753	257267.432860672395	0
4	1759	257482.369314201814	1
4	1761	257482.369314201814	0
4	1777	263545.086245422973	1
4	1779	263545.086245422973	0
4	1803	267066.513326753053	1
4	1805	267066.513326753053	0
4	1811	268136.693209046564	1
4	1813	268136.693209046564	0
4	1832	269954.801668078786	1
4	1838	270716.610815332551	0
4	1844	271077.076882916515	1
4	1846	271077.076882916515	0
4	1862	276143.38782219297	1
4	1864	276143.38782219297	0
4	1888	284070.468464363718	1
4	1890	284070.468464363718	0
4	1893	284213.054945898854	1
4	1899	285209.421127026247	0
4	1914	288568.716441679778	1
4	1916	288568.716441679778	0
4	1936	291394.722847287826	1
4	1941	291465.535764638611	0
4	1953	294827.353484236753	1
4	1958	295023.035289770626	0
4	1973	297442.588123516152	1
4	1975	297442.588123516152	0
4	1986	297846.927152283667	1
4	1991	298017.559165640566	0
4	2011	301938.039214734114	1
4	2016	302004.002623904382	0
4	2023	303878.814203584286	1
4	2025	303878.814203584286	0
4	2028	304570.767531435959	1
4	2033	305602.038214214491	0
4	2052	318816.361405083541	1
4	2054	318816.361405083541	0
4	2069	321040.320160863555	1
4	2071	321040.320160863555	0
4	2085	321349.260161377669	1
4	2087	321349.260161377669	0
4	2109	323920.114038197973	1
4	2111	323920.114038197973	0
4	2126	325817.840378158665	1
4	2128	325817.840378158665	0
4	2134	326110.070528705948	1
4	2136	326110.070528705948	0
4	2152	331539.779847117093	1
4	2154	331539.779847117093	0
4	2192	340198.69106801058	1
4	2195	340240.396065071347	2
4	2200	340307.879575767807	1
4	2205	340309.354238904064	0
4	2211	340688.636543726411	1
4	2213	340688.636543726411	0
4	2228	344567.346167269579	1
4	2230	344567.346167269579	0
4	2233	344895.782683896331	1
4	2239	345240.47331121356	0
4	2255	353204.650284672802	1
4	2257	353204.650284672802	0
4	2282	360030.536156995876	1
4	2284	360030.536156995876	0
4	2290	362669.003984236794	1
4	2292	362669.003984236794	0
4	2308	368305.604887138124	1
4	2310	368305.604887138124	0
4	2328	378091.806301928593	1
4	2330	378091.806301928593	0
4	2344	379075.730356634678	1
4	2346	379075.730356634678	0
4	2360	379336.186108489852	1
4	2362	379336.186108489852	0
4	2377	381187.488440704546	1
4	2379	381187.488440704546	0
4	2406	383231.780982233623	1
4	2411	383307.808785676174	0
4	2417	383483.299891491171	1
4	2427	383662.761085555052	0
4	2433	383740.527022600665	1
4	2435	383740.527022600665	0
4	2450	384719.174476298196	1
4	2452	384719.174476298196	0
4	2458	385225.571676630581	1
4	2460	385225.571676630581	0
4	2475	387159.764274787247	1
4	2477	387159.764274787247	0
4	2499	388406.44514362826	1
4	2501	388406.44514362826	0
4	2507	388977.154217165673	1
4	2509	388977.154217165673	0
4	2524	390013.579614764807	1
4	2526	390013.579614764807	0
4	2546	393823.326137148101	1
4	2551	393894.015115750852	0
4	2557	394915.107510739011	1
4	2559	394915.107510739011	0
4	2576	403324.50372019598	1
4	2578	403324.50372019598	0
4	2600	404122.475048951786	1
4	2602	404122.475048951786	0
4	2616	404962.933746999742	1
4	2618	404962.933746999742	0
4	2642	409529.881772358552	1
4	2644	409529.881772358552	0
4	2651	411923.088666016849	1
4	2653	411923.088666016849	0
4	2676	415543.05818251399	1
4	2678	415543.05818251399	0
4	2684	415870.567166891766	1
4	2686	415870.567166891766	0
4	2692	416385.796095377091	1
4	2694	416385.796095377091	0
4	2717	418885.535365198767	1
4	2719	418885.535365198767	0
4	2725	419198.819472328917	1
4	2727	419198.819472328917	0
4	2760	427158.036434574822	1
4	2762	427158.036434574822	0
4	2768	427640.459371815617	1
4	2770	427640.459371815617	0
4	2785	430681.974149986955	1
4	2787	430681.974149986955	0
4	2794	432158.080810379393	1
4	2796	432158.080810379393	0
4	2810	433793.567179904672	1
4	2812	433793.567179904672	0
4	2827	435329.673798127257	1
4	2829	435329.673798127257	0
4	2843	437831.970403910054	1
4	2845	437831.970403910054	0
4	2863	447130.748148891567	1
4	2865	447130.748148891567	0
4	2881	455598.25702862824	1
4	2883	455598.25702862824	0
4	2899	460527.026163613097	1
4	2901	460527.026163613097	0
4	2929	477865.789264918884	1
4	2931	477865.789264918884	0
4	2937	479066.100567118969	1
4	2939	479066.100567118969	0
4	2965	489496.280422715325	1
4	2967	489496.280422715325	0
4	2970	489694.088412459479	1
4	2975	489722.232427882812	0
4	2990	493252.308644842867	1
4	2992	493252.308644842867	0
4	3007	495550.055761875256	1
4	3009	495550.055761875256	0
4	3030	501925.722348722278	1
4	3035	502367.703948310673	0
4	3049	503630.997201140168	1
4	3051	503630.997201140168	0
4	3058	504678.963765767769	1
4	3060	504678.963765767769	0
4	3076	511814.025772509981	1
4	3078	511814.025772509981	0
4	3096	522877.497471245117	1
4	3098	522877.497471245117	0
4	3123	531593.435136283465	1
4	3125	531593.435136283465	0
4	3139	533105.921357847726	1
4	3141	533105.921357847726	0
4	3152	533755.748265923056	1
4	3157	533989.441640928877	0
4	3172	536966.992741194658	1
4	3174	536966.992741194658	0
4	3181	539266.531524753616	1
4	3183	539266.531524753616	0
4	3204	545011.859491704143	1
4	3209	545244.680675694169	0
4	3241	550126.781795144043	1
4	3243	550126.781795144043	0
4	3254	551642.798183083585	1
4	3259	551701.708489576101	0
4	3266	552502.588206793309	1
4	3268	552502.588206793309	0
4	3274	554902.78599329027	1
4	3276	554902.78599329027	0
4	3283	555481.728465379787	1
4	3285	555481.728465379787	0
4	3299	557570.587328464849	1
4	3301	557570.587328464849	0
4	3341	562199.451376800229	1
4	3351	562521.41107738655	0
4	3357	562665.312700672872	1
4	3359	562665.312700672872	0
4	3365	563118.2611006982	1
4	3367	563118.2611006982	0
4	3374	565955.9785157855	1
4	3376	565955.9785157855	0
4	3391	567738.242599604472	1
4	3393	567738.242599604472	0
4	3408	570598.056395172878	1
4	3410	570598.056395172878	0
4	3416	571546.093825114038	1
4	3426	571979.866914914082	0
4	3429	572088.154183817928	1
4	3434	572111.213428858732	0
4	3463	578046.233127209384	1
4	3468	578102.713905854066	0
4	3474	578712.742150990213	1
4	3476	578712.742150990213	0
4	3483	581412.523414583571	1
4	3485	581412.523414583571	0
4	3509	585265.624240195967	1
4	3511	585265.624240195967	0
4	3514	585317.240054408851	1
4	3519	586082.318018238793	0
4	3533	587236.268247368813	1
4	3535	587236.268247368813	0
4	3556	592224.910414725148	1
4	3561	592809.314109647204	0
4	3576	594296.211202238024	1
4	3578	594296.211202238024	0
4	3584	596195.474745354376	1
4	3586	596195.474745354376	0
4	3602	602236.946602750137	1
4	3604	602236.946602750137	0
4	3619	603808.067120150542	1
4	3621	603808.067120150542	0
4	3635	605878.561310031488	1
4	3637	605878.561310031488	0
4	3653	609588.278574929163	1
4	3655	609588.278574929163	0
4	3669	611876.815524833224	1
4	3671	611876.815524833224	0
4	3686	613354.492783820458	1
4	3688	613354.492783820458	0
4	3737	621208.709491409631	1
4	3739	621208.709491409631	0
4	3745	621360.894552412869	1
4	3747	621360.894552412869	0
4	3753	622032.14310804096	1
4	3755	622032.14310804096	0
4	3766	623536.472510173186	1
4	3771	623773.859483783065	0
4	3778	624017.965768026163	1
4	3780	624017.965768026163	0
4	3783	624152.174248402343	1
4	3796	625372.153482268171	0
4	3799	625397.71024761498	1
4	3812	626500.177353402223	0
4	3819	627057.614226199134	1
4	3821	627057.614226199134	0
4	3836	630844.11303323994	1
4	3838	630844.11303323994	0
4	3854	636068.322419676926	1
4	3856	636068.322419676926	0
4	3877	642734.76958798765	1
4	3882	642961.604014293046	0
4	3904	643820.916170043272	1
4	3906	643820.916170043272	0
4	3909	643901.052391323401	1
4	3914	644370.504717900028	0
4	3929	646891.489965234816	1
4	3931	646891.489965234816	0
4	3938	649900.653878605096	1
4	3940	649900.653878605096	0
4	3956	654205.227895120888	1
4	3958	654205.227895120888	0
4	3981	659311.48292193048	1
4	3983	659311.48292193048	0
4	3990	661059.434150340756	1
4	3992	661059.434150340756	0
4	4023	665539.039553708486	1
4	4025	665539.039553708486	0
4	4032	666394.708894023471	1
4	4034	666394.708894023471	0
4	4040	667839.5081349195	1
4	4042	667839.5081349195	0
4	4057	670100.304453741703	1
4	4059	670100.304453741703	0
4	4074	673303.839975329582	1
4	4076	673303.839975329582	0
4	4096	676452.046903815601	1
4	4101	676581.970575025887	0
4	4104	676728.472595361791	1
4	4109	676890.115809322987	0
4	4124	678490.041284729612	1
4	4126	678490.041284729612	0
4	4146	681243.865295312584	1
4	4151	681533.881841246443	0
4	4162	683872.741356011393	1
4	4168	684395.932437723104	0
4	4175	689732.463347178254	1
4	4177	689732.463347178254	0
4	4193	694047.810602238978	1
4	4195	694047.810602238978	0
4	4211	701948.279788159954	1
4	4213	701948.279788159954	0
4	4238	708498.702699951519	1
4	4240	708498.702699951519	0
4	4247	712346.367222760998	1
4	4249	712346.367222760998	0
4	4272	715226.319183507414	1
4	4274	715226.319183507414	0
4	4280	716241.347196464092	1
4	4282	716241.347196464092	0
4	4300	726738.153683724136	1
4	4302	726738.153683724136	0
4	4341	731528.678686191102	1
4	4343	731528.678686191102	0
4	4349	731726.352464080399	1
4	4369	733166.15220987038	2
4	4372	733272.006263943865	3
4	4382	733743.091368808306	2
4	4385	733952.920417436371	3
4	4398	734540.477474385241	2
4	4403	734566.641938078477	1
4	4408	734576.329138826632	0
4	4423	736656.68984981609	1
4	4425	736656.68984981609	0
4	4431	736925.645533090708	1
4	4433	736925.645533090708	0
4	4440	738367.558073509072	1
4	4442	738367.558073509072	0
4	4453	739382.38934448406	1
4	4458	739573.475860843804	0
4	4480	740648.206081744938	1
4	4482	740648.206081744938	0
4	4497	741728.42938811045	1
4	4499	741728.42938811045	0
4	4513	742538.617460042465	1
4	4515	742538.617460042465	0
4	4518	742850.878456908598	1
4	4523	742984.601710813874	0
4	4526	743062.988148469632	1
4	4531	743559.123036449313	0
4	4548	752701.416034573485	1
4	4550	752701.416034573485	0
4	4568	763821.298735496791	1
4	4570	763821.298735496791	0
4	4586	769594.967015453323	1
4	4588	769594.967015453323	0
4	4603	773697.964304866132	1
4	4605	773697.964304866132	0
4	4624	788614.02905303239	1
4	4626	788614.02905303239	0
4	4643	797914.77258036634	1
4	4645	797914.77258036634	0
4	4670	804299.320392120855	1
4	4672	804299.320392120855	0
4	4678	804986.64476636137	1
4	4680	804986.64476636137	0
4	4701	812116.175920589541	1
4	4714	812468.148003933851	0
4	4737	813347.43257418572	1
4	4739	813347.43257418572	0
4	4742	813482.850068628066	1
4	4747	813491.425227848243	0
4	4753	814913.046361956187	1
4	4755	814913.046361956187	0
4	4770	816380.537268703091	1
4	4772	816380.537268703091	0
4	4778	818017.867008243888	1
4	4780	818017.867008243888	0
4	4795	820216.424237701831	1
4	4797	820216.424237701831	0
4	4821	825361.565704710852	1
4	4823	825361.565704710852	0
4	4829	825607.061624080782	1
4	4831	825607.061624080782	0
4	4855	832002.229900936837	1
4	4857	832002.229900936837	0
4	4863	832975.741474247218	1
4	4865	832975.741474247218	0
4	4880	835530.745326765965	1
4	4882	835530.745326765965	0
4	4900	848293.619537325904	1
4	4902	848293.619537325904	0
4	4925	851162.896883037847	1
4	4927	851162.896883037847	0
4	4934	854701.051447073357	1
4	4936	854701.051447073357	0
4	4952	858853.181619241876	1
4	4954	858853.181619241876	0
4	4969	862455.147935142375	1
4	4971	862455.147935142375	0
4	4994	864416.199335612569	1
4	4996	864416.199335612569	0
4	5002	865956.537830429741	1
4	5004	865956.537830429741	0
4	5020	870804.498103124093	1
4	5022	870804.498103124093	0
4	5037	873797.366479443481	1
4	5039	873797.366479443481	0
4	5063	880204.670297411631	1
4	5065	880204.670297411631	0
4	5087	881699.253436675163	1
4	5089	881699.253436675163	0
4	5096	883203.737063334591	1
4	5098	883203.737063334591	0
4	5112	883847.044154308145	1
4	5114	883847.044154308145	0
4	5137	887090.518400572426	1
4	5139	887090.518400572426	0
4	5142	887220.803161853222	1
4	5145	887698.669431757563	2
4	5150	887980.823570538851	1
4	5156	888002.748924327121	0
4	5172	896090.065877288345	1
4	5174	896090.065877288345	0
4	5190	901251.23669214938	1
4	5192	901251.23669214938	0
4	5208	906364.778966153696	1
4	5210	906364.778966153696	0
4	5234	912057.782030051437	1
4	5236	912057.782030051437	0
4	5242	912795.924687076718	1
4	5244	912795.924687076718	0
4	5278	924251.985136485698	1
4	5280	924251.985136485698	0
4	5283	924334.81357872103	1
4	5288	924538.101097620674	0
4	5315	926337.609831000447	1
4	5320	926438.508084609944	0
4	5327	927277.694702774765	1
4	5329	927277.694702774765	0
4	5359	928909.066866991132	1
4	5361	928909.066866991132	0
4	5367	929159.680228571303	1
4	5369	929159.680228571303	0
4	5375	929279.65138663008	1
4	5377	929279.65138663008	0
4	5384	930141.182769894235	1
4	5386	930141.182769894235	0
4	5400	931286.19293598043	1
4	5402	931286.19293598043	0
4	5424	932816.286614322487	1
4	5426	932816.286614322487	0
4	5430	933027.198660624978	1
4	5433	933821.762978087606	2
4	5438	934332.236623120641	1
4	5443	934420.768682330229	0
4	5466	936767.987706670758	1
4	5468	936767.987706670758	0
4	5474	937428.936626881189	1
4	5476	937428.936626881189	0
4	5506	946667.391335059797	1
4	5519	946860.986648874619	0
4	5525	946993.719737152712	1
4	5527	946993.719737152712	0
4	5534	948013.388792240663	1
4	5536	948013.388792240663	0
4	5542	949928.019412170583	1
4	5544	949928.019412170583	0
4	5560	956592.393248997637	1
4	5562	956592.393248997637	0
4	5581	971681.949317140304	1
4	5583	971681.949317140304	0
4	5606	972675.157330498731	1
4	5608	972675.157330498731	0
4	5614	973856.885019112467	1
4	5616	973856.885019112467	0
4	5653	979538.193573015424	1
4	5658	980061.978299323552	0
4	5661	980631.317683605204	1
4	5666	980650.246927516842	0
4	5669	980828.183923449282	1
4	5684	981248.466338501379	2
4	5694	981380.67081828105	1
4	5699	981607.267396524862	0
4	5713	981984.370119324395	1
4	5715	981984.370119324395	0
4	5729	983332.337251971678	1
4	5731	983332.337251971678	0
4	5746	984984.71684389096	1
4	5748	984984.71684389096	0
4	5751	985037.979844320783	1
4	5754	985079.84447298014	2
4	5759	985086.64024035068	1
4	5764	985520.783371449574	0
4	5779	989547.187148158848	1
4	5781	989547.187148158848	0
4	5805	994108.083908859082	1
4	5807	994108.083908859082	0
4	5830	996114.103050994757	1
4	5832	996114.103050994757	0
4	5838	996648.598256821934	1
4	5840	996648.598256821934	0
4	5846	996809.396053223749	1
4	5848	996809.396053223749	0
4	5870	1006924.050722352913	1
4	5875	1007232.205281811804	0
4	5890	1008269.442244765032	1
4	5892	1008269.442244765032	0
4	5907	1011297.049294781936	1
4	5909	1011297.049294781936	0
4	5915	1012414.276750451428	1
4	5917	1012414.276750451428	0
4	5932	1015633.301301257498	1
4	5934	1015633.301301257498	0
4	5960	1028524.25033370521	1
4	5971	1029368.61456840106	0
4	5974	1029683.319536780873	1
4	5979	1030386.128449780976	0
4	6001	1031894.599606583745	1
4	6003	1031894.599606583745	0
4	6007	1032045.893954011015	1
4	6012	1033125.146314736512	0
4	6023	1034209.568917059235	1
4	6028	1034344.822257254174	0
4	6034	1034601.863512767477	1
4	6036	1034601.863512767477	0
4	6051	1035642.192930517306	1
4	6053	1035642.192930517306	0
5	671	102000	0
5	675	105000	0
5	689	108000	1
5	709	111000	1
5	718	114000	1
5	735	117000	1
5	768	120000	2
5	777	123000	0
5	786	126000	1
5	803	129000	1
5	820	132000	1
5	821	135000	0
5	854	138000	3
5	879	141000	1
5	917	144000	1
5	921	147000	1
5	954	150000	2
5	979	153000	2
5	988	156000	0
5	994	159000	0
5	1006	162000	1
5	1020	165000	1
5	1040	168000	1
5	1057	171000	1
5	1103	174000	3
5	1147	177000	3
5	1188	180000	2
5	1202	183000	0
5	1206	186000	1
5	1215	189000	0
5	1245	192000	2
5	1281	195000	3
5	1298	198000	1
5	1323	201000	1
5	1340	204000	1
5	1357	207000	1
5	1382	210000	1
5	1396	213000	1
5	1416	216000	2
5	1441	219000	0
5	1474	222000	3
5	1475	225000	0
5	1516	228000	2
5	1549	231000	3
5	1571	234000	0
5	1583	237000	2
5	1613	240000	1
5	1630	243000	1
5	1650	246000	1
5	1699	249000	3
5	1716	252000	1
5	1733	255000	2
5	1763	258000	1
5	1775	261000	1
5	1789	264000	0
5	1801	267000	2
5	1834	270000	1
5	1851	273000	1
5	1860	276000	1
5	1869	279000	0
5	1878	282000	1
5	1895	285000	1
5	1904	288000	0
5	1921	291000	1
5	1946	294000	2
5	1971	297000	2
5	1996	300000	1
5	2021	303000	2
5	2038	306000	0
5	2039	309000	0
5	2040	312000	0
5	2049	315000	1
5	2050	318000	0
5	2064	321000	0
5	2113	324000	4
5	2141	327000	1
5	2147	330000	0
5	2159	333000	1
5	2168	336000	1
5	2182	339000	1
5	2218	342000	2
5	2235	345000	1
5	2244	348000	0
5	2245	351000	0
5	2262	354000	1
5	2263	357000	0
5	2280	360000	2
5	2297	363000	0
5	2298	366000	0
5	2315	369000	1
5	2316	372000	0
5	2317	375000	0
5	2326	378000	1
5	2375	381000	3
5	2437	384000	4
5	2473	387000	2
5	2522	390000	3
5	2536	393000	0
5	2564	396000	2
5	2565	399000	0
5	2566	402000	0
5	2620	405000	4
5	2624	408000	0
5	2649	411000	2
5	2658	414000	0
5	2704	417000	2
5	2729	420000	2
5	2733	423000	0
5	2758	426000	3
5	2783	429000	1
5	2792	432000	0
5	2822	435000	1
5	2850	438000	2
5	2851	441000	0
5	2852	444000	0
5	2861	447000	1
5	2870	450000	0
5	2876	453000	0
5	2885	456000	1
5	2889	459000	0
5	2906	462000	1
5	2907	465000	0
5	2908	468000	0
5	2909	471000	0
5	2910	474000	0
5	2927	477000	2
5	2944	480000	0
5	2945	483000	0
5	2946	486000	0
5	2960	489000	1
5	2980	492000	1
5	3002	495000	1
5	3022	498000	2
5	3023	501000	0
5	3056	504000	2
5	3065	507000	0
5	3074	510000	1
5	3083	513000	0
5	3084	516000	0
5	3085	519000	0
5	3094	522000	1
5	3103	525000	0
5	3104	528000	0
5	3113	531000	1
5	3159	534000	3
5	3176	537000	1
5	3188	540000	0
5	3197	543000	1
5	3214	546000	1
5	3231	549000	2
5	3264	552000	2
5	3281	555000	0
5	3306	558000	1
5	3315	561000	0
5	3369	564000	5
5	3381	567000	0
5	3406	570000	2
5	3439	573000	1
5	3440	576000	0
5	3478	579000	3
5	3490	582000	0
5	3507	585000	2
5	3540	588000	1
5	3541	591000	0
5	3574	594000	3
5	3591	597000	0
5	3592	600000	0
5	3617	603000	2
5	3639	606000	1
5	3651	609000	1
5	3673	612000	1
5	3693	615000	1
5	3702	618000	1
5	3727	621000	2
5	3776	624000	3
5	3817	627000	2
5	3834	630000	1
5	3843	633000	0
5	3852	636000	1
5	3861	639000	0
5	3862	642000	0
5	3919	645000	4
5	3936	648000	1
5	3953	651000	1
5	3954	654000	0
5	3963	657000	0
5	3988	660000	2
5	4005	663000	1
5	4030	666000	2
5	4055	669000	1
5	4064	672000	0
5	4081	675000	1
5	4122	678000	3
5	4139	681000	1
5	4164	684000	1
5	4173	687000	1
5	4182	690000	0
5	4191	693000	1
5	4200	696000	0
5	4209	699000	1
5	4215	702000	0
5	4219	705000	0
5	4233	708000	1
5	4245	711000	1
5	4254	714000	0
5	4287	717000	2
5	4288	720000	0
5	4289	723000	0
5	4298	726000	1
5	4315	729000	1
5	4351	732000	3
5	4413	735000	4
5	4438	738000	1
5	4495	741000	4
5	4536	744000	1
5	4537	747000	0
5	4546	750000	1
5	4555	753000	0
5	4556	756000	0
5	4557	759000	0
5	4558	762000	0
5	4575	765000	1
5	4584	768000	1
5	4601	771000	1
5	4610	774000	0
5	4611	777000	0
5	4612	780000	0
5	4618	783000	0
5	4622	786000	1
5	4628	789000	0
5	4632	792000	0
5	4633	795000	0
5	4647	798000	1
5	4651	801000	0
5	4668	804000	2
5	4685	807000	0
5	4686	810000	0
5	4727	813000	4
5	4768	816000	2
5	4785	819000	0
5	4802	822000	1
5	4819	825000	2
5	4836	828000	0
5	4853	831000	2
5	4870	834000	0
5	4887	837000	1
5	4888	840000	0
5	4889	843000	0
5	4890	846000	0
5	4915	849000	2
5	4932	852000	1
5	4938	855000	0
5	4942	858000	0
5	4959	861000	1
5	4992	864000	3
5	5009	867000	0
5	5010	870000	0
5	5027	873000	1
5	5044	876000	1
5	5053	879000	1
5	5091	882000	3
5	5119	885000	1
5	5152	888000	2
5	5161	891000	0
5	5170	894000	1
5	5179	897000	0
5	5180	900000	0
5	5197	903000	1
5	5203	906000	0
5	5215	909000	1
5	5232	912000	2
5	5249	915000	0
5	5250	918000	0
5	5251	921000	0
5	5273	924000	2
5	5325	927000	4
5	5382	930000	3
5	5428	933000	3
5	5448	936000	0
5	5481	939000	2
5	5482	942000	0
5	5499	945000	2
5	5532	948000	2
5	5549	951000	0
5	5550	954000	0
5	5564	957000	1
5	5568	960000	0
5	5569	963000	0
5	5570	966000	0
5	5571	969000	0
5	5593	972000	1
5	5621	975000	2
5	5622	978000	0
5	5674	981000	4
5	5733	984000	4
5	5777	987000	2
5	5786	990000	0
5	5803	993000	2
5	5828	996000	2
5	5853	999000	0
5	5854	1002000	0
5	5855	1005000	0
5	5888	1008000	3
5	5902	1011000	0
5	5922	1014000	1
5	5939	1017000	1
5	5940	1020000	0
5	5941	1023000	0
5	5942	1026000	0
5	5962	1029000	1
5	6005	1032000	4
5	6049	1035000	2
6	671	102000	3
6	675	105000	1
6	689	108000	0
6	709	111000	2
6	718	114000	0
6	735	117000	1
6	768	120000	2
6	777	123000	1
6	786	126000	0
6	803	129000	1
6	820	132000	1
6	821	135000	0
6	854	138000	1
6	879	141000	2
6	917	144000	3
6	921	147000	0
6	954	150000	2
6	979	153000	1
6	988	156000	1
6	994	159000	0
6	1006	162000	1
6	1020	165000	0
6	1040	168000	2
6	1057	171000	1
6	1103	174000	2
6	1147	177000	2
6	1188	180000	4
6	1202	183000	1
6	1206	186000	0
6	1215	189000	1
6	1245	192000	1
6	1281	195000	2
6	1298	198000	1
6	1323	201000	1
6	1340	204000	2
6	1357	207000	1
6	1382	210000	2
6	1396	213000	0
6	1416	216000	1
6	1441	219000	2
6	1474	222000	2
6	1475	225000	0
6	1516	228000	3
6	1549	231000	1
6	1571	234000	2
6	1583	237000	0
6	1613	240000	2
6	1630	243000	1
6	1650	246000	2
6	1699	249000	3
6	1716	252000	1
6	1733	255000	0
6	1763	258000	2
6	1775	261000	1
6	1789	264000	1
6	1801	267000	0
6	1834	270000	2
6	1851	273000	2
6	1860	276000	0
6	1869	279000	1
6	1878	282000	0
6	1895	285000	0
6	1904	288000	2
6	1921	291000	1
6	1946	294000	1
6	1971	297000	1
6	1996	300000	2
6	2021	303000	1
6	2038	306000	2
6	2039	309000	0
6	2040	312000	0
6	2049	315000	0
6	2050	318000	0
6	2064	321000	1
6	2113	324000	2
6	2141	327000	3
6	2147	330000	0
6	2159	333000	1
6	2168	336000	0
6	2182	339000	0
6	2218	342000	3
6	2235	345000	0
6	2244	348000	2
6	2245	351000	0
6	2262	354000	1
6	2263	357000	0
6	2280	360000	0
6	2297	363000	2
6	2298	366000	0
6	2315	369000	1
6	2316	372000	0
6	2317	375000	0
6	2326	378000	0
6	2375	381000	3
6	2437	384000	3
6	2473	387000	3
6	2522	390000	3
6	2536	393000	1
6	2564	396000	2
6	2565	399000	0
6	2566	402000	0
6	2620	405000	2
6	2624	408000	1
6	2649	411000	1
6	2658	414000	1
6	2704	417000	3
6	2729	420000	1
6	2733	423000	1
6	2758	426000	0
6	2783	429000	2
6	2792	432000	1
6	2822	435000	2
6	2850	438000	2
6	2851	441000	0
6	2852	444000	0
6	2861	447000	0
6	2870	450000	1
6	2876	453000	0
6	2885	456000	0
6	2889	459000	1
6	2906	462000	1
6	2907	465000	0
6	2908	468000	0
6	2909	471000	0
6	2910	474000	0
6	2927	477000	0
6	2944	480000	2
6	2945	483000	0
6	2946	486000	0
6	2960	489000	0
6	2980	492000	2
6	3002	495000	1
6	3022	498000	1
6	3023	501000	0
6	3056	504000	2
6	3065	507000	1
6	3074	510000	0
6	3083	513000	1
6	3084	516000	0
6	3085	519000	0
6	3094	522000	0
6	3103	525000	1
6	3104	528000	0
6	3113	531000	0
6	3159	534000	2
6	3176	537000	1
6	3188	540000	2
6	3197	543000	0
6	3214	546000	1
6	3231	549000	0
6	3264	552000	2
6	3281	555000	2
6	3306	558000	2
6	3315	561000	0
6	3369	564000	2
6	3381	567000	2
6	3406	570000	1
6	3439	573000	3
6	3440	576000	0
6	3478	579000	1
6	3490	582000	2
6	3507	585000	0
6	3540	588000	3
6	3541	591000	0
6	3574	594000	1
6	3591	597000	2
6	3592	600000	0
6	3617	603000	1
6	3639	606000	1
6	3651	609000	1
6	3673	612000	1
6	3693	615000	2
6	3702	618000	0
6	3727	621000	0
6	3776	624000	4
6	3817	627000	3
6	3834	630000	1
6	3843	633000	1
6	3852	636000	0
[...]
6	4298	726000	0
6	4315	729000	1
6	4351	732000	0
6	4413	735000	5
6	4438	738000	2
6	4495	741000	3
6	4536	744000	4
6	4537	747000	0
6	4546	750000	0
6	4555	753000	1
6	4556	756000	0
6	4557	759000	0
6	4558	762000	0
6	4575	765000	1
6	4584	768000	0
6	4601	771000	1
6	4610	774000	1
6	4611	777000	0
6	4612	780000	0
6	4618	783000	0
6	4622	786000	0
6	4628	789000	0
6	4632	792000	1
6	4633	795000	0
6	4647	798000	0
6	4651	801000	1
6	4668	804000	0
6	4685	807000	2
6	4686	810000	0
6	4727	813000	1
6	4768	816000	3
6	4785	819000	2
6	4802	822000	1
6	4819	825000	0
6	4836	828000	2
6	4853	831000	0
6	4870	834000	2
6	4887	837000	1
6	4888	840000	0
6	4889	843000	0
6	4890	846000	0
6	4915	849000	1
6	4932	852000	1
6	4938	855000	0
6	4942	858000	1
6	4959	861000	1
6	4992	864000	1
6	5009	867000	2
6	5010	870000	0
6	5027	873000	1
6	5044	876000	1
6	5053	879000	0
6	5091	882000	1
6	5119	885000	3
6	5152	888000	1
6	5161	891000	2
6	5170	894000	0
6	5179	897000	1
6	5180	900000	0
6	5197	903000	1
6	5203	906000	0
6	5215	909000	1
6	5232	912000	0
6	5249	915000	2
6	5250	918000	0
6	5251	921000	0
6	5273	924000	0
6	5325	927000	3
6	5382	930000	4
6	5428	933000	2
6	5448	936000	3
6	5481	939000	2
6	5482	942000	0
6	5499	945000	0
6	5532	948000	2
6	5549	951000	2
6	5550	954000	0
6	5564	957000	0
6	5568	960000	1
6	5569	963000	0
6	5570	966000	0
6	5571	969000	0
6	5593	972000	1
6	5621	975000	2
6	5622	978000	0
6	5674	981000	1
6	5733	984000	4
6	5777	987000	4
6	5786	990000	1
6	5803	993000	0
6	5828	996000	1
6	5853	999000	3
6	5854	1002000	0
6	5855	1005000	0
6	5888	1008000	1
6	5902	1011000	1
6	5922	1014000	2
6	5939	1017000	1
6	5940	1020000	0
6	5941	1023000	0
6	5942	1026000	0
6	5962	1029000	0
6	6005	1032000	2
6	6049	1035000	4
7	658	100391.785606944539	0
7	682	107703.421536899557	1
7	691	109491.903186654097	2
7	693	110256.34693509384	1
7	701	110705.901104588437	0
7	716	113644.944823780115	1
7	725	115625.110756694561	2
7	727	116084.485014017796	1
7	742	117677.095843631009	2
7	744	117699.499630967476	1
7	758	119058.218372488382	2
7	760	119270.22710566329	1
7	769	121469.423545487829	0
7	784	125481.877098755158	1
7	787	128310.357616115164	0
7	801	128704.783999674881	1
7	810	130487.913885169913	2
7	812	130524.997762199127	1
7	822	135062.028375968059	0
7	839	135401.893297371916	1
7	844	135824.979091522934	2
7	852	136880.200232039665	3
7	855	138734.625500919573	2
7	863	139361.369847980055	1
7	877	140948.159223619227	2
7	886	141753.882497436468	3
7	888	142194.853581062709	2
7	896	142977.853017237046	1
7	901	143133.049839538792	0
7	919	144918.518119799174	1
7	922	148110.323795219114	0
7	936	149005.892031563754	1
7	944	149193.073537566766	2
7	946	149348.526483045205	1
7	961	151162.841364458605	2
7	963	152481.279794536275	1
7	977	152899.99853291522	2
7	980	153109.17460302707	1
7	989	158942.452270191172	0
7	1004	159810.278165233912	1
7	1013	162791.491013898222	2
7	1015	164967.983243269363	1
7	1030	166073.549964182864	2
7	1032	167208.756434729936	1
7	1047	170352.433131025244	2
7	1049	170508.506050282308	1
7	1064	171704.78812698021	2
7	1066	172155.443585193785	1
7	1074	172667.294359102634	0
7	1083	173009.990250794363	1
7	1096	173900.923483037724	2
7	1105	174446.247005704434	3
7	1107	174976.191012832088	2
7	1115	176002.285829031013	1
7	1131	176471.405548434747	0
7	1135	176586.957227231059	1
7	1140	176613.629695661739	2
7	1144	176795.345833437365	1
7	1162	177321.526228471588	2
7	1164	177712.740385391972	1
7	1177	178763.494060424354	0
7	1181	179002.848518386965	1
7	1189	181994.871751217546	0
7	1204	183549.947353394535	1
7	1207	187015.203737264418	0
7	1225	190154.963332692118	1
7	1230	190284.518482914844	2
7	1232	190933.020194179334	1
7	1240	191678.19639249443	0
7	1258	192669.396278536874	1
7	1263	192712.51891968881	2
7	1265	192917.209575327073	1
7	1279	194901.016017262678	2
7	1288	195930.145802745316	3
7	1290	196053.427664682089	2
7	1305	199297.513925864697	3
7	1307	200171.132569840554	2
7	1315	200418.707001164752	1
7	1320	200879.337366396268	0
7	1338	203965.567477441182	1
7	1347	205900.981752203502	2
7	1349	206877.318593940608	1
7	1358	207148.374934802951	0
7	1372	207940.568042263243	1
7	1374	208359.815126509261	0
7	1389	212040.086701695455	1
7	1398	213330.430032527399	2
7	1400	213757.331865380241	1
7	1414	215037.841809819216	2
7	1417	217252.968730270903	1
7	1425	217522.94657160062	0
7	1443	219456.926088925829	1
7	1447	219900.693206310669	0
7	1451	219917.376752229805	1
7	1458	220915.466418926525	0
7	1472	221872.525494973646	1
7	1482	225825.758706871217	2
7	1484	226035.562137927832	1
7	1498	226779.590423407101	2
7	1500	226995.71418784729	1
7	1508	227334.346993647308	0
7	1523	229206.645427672909	1
7	1525	229504.42401635451	0
7	1539	230190.518261386518	1
7	1547	230542.390959752146	2
7	1550	231364.551228022243	1
7	1558	232197.759605018372	0
7	1573	234210.860017247562	1
7	1581	235689.514228524559	2
7	1584	237540.272654063854	1
7	1589	237582.641254737169	0
7	1601	238152.170251426041	1
7	1608	239874.099351019086	0
7	1623	242058.465907888296	1
7	1625	242938.9419749525	0
7	1640	245367.452248716855	1
7	1642	245571.453011660381	0
7	1657	246889.187461836918	1
7	1665	247605.210339618165	2
7	1667	247738.289554106185	1
7	1680	248428.782313686586	0
7	1684	248767.260172665738	1
7	1688	248790.536553235947	0
7	1706	249511.198378109012	1
7	1708	250450.532590487413	0
7	1723	252629.489964863591	1
7	1731	254582.349026965467	2
7	1734	256300.378052254888	1
7	1748	257169.216794058743	2
7	1750	257267.432860672395	1
7	1758	257482.369314201814	0
7	1773	260457.81701897144	1
7	1776	263545.086245422973	0
7	1791	264061.238520189413	1
7	1799	266735.001820662658	2
7	1802	267066.513326753053	1
7	1810	268136.693209046564	0
7	1824	269904.213677171539	1
7	1831	269954.801668078786	0
7	1836	270716.610815332551	1
7	1843	271077.076882916515	0
7	1858	275134.263648252179	1
7	1861	276143.38782219297	0
7	1876	280461.122604999338	1
7	1885	283935.544556642636	2
7	1887	284070.468464363718	1
7	1892	284213.054945898854	0
7	1911	288120.50667453709	1
7	1913	288568.716441679778	0
7	1931	291394.033496132101	1
7	1935	291394.722847287826	0
7	1939	291465.535764638611	1
7	1952	294827.353484236753	0
7	1956	295023.035289770626	1
7	1969	295199.474480664369	2
7	1972	297442.588123516152	1
7	1985	297846.927152283667	0
7	1989	298017.559165640566	1
7	2003	300701.10499060947	2
7	2010	301938.039214734114	1
7	2014	302004.002623904382	2
7	2022	303878.814203584286	1
7	2027	304570.767531435959	0
7	2047	314031.687726650579	1
7	2051	318816.361405083541	0
7	2066	321004.626113462046	1
7	2068	321040.320160863555	0
7	2082	321293.021904304664	1
7	2084	321349.260161377669	0
7	2098	322651.875579940951	1
7	2106	323475.92319885144	2
7	2108	323920.114038197973	1
7	2123	324568.284008477935	2
7	2125	325817.840378158665	1
7	2133	326110.070528705948	0
7	2149	330339.870253040036	1
7	2151	331539.779847117093	0
7	2166	334289.827706009147	1
7	2175	338763.522099223837	2
7	2184	339134.232300653769	3
7	2191	340198.69106801058	2
7	2194	340240.396065071347	1
7	2198	340307.879575767807	2
7	2210	340688.636543726411	1
7	2225	344358.199617905647	2
7	2227	344567.346167269579	1
7	2232	344895.782683896331	0
7	2252	352727.84865659764	1
7	2254	353204.650284672802	0
7	2273	358433.546378072594	1
7	2278	358729.95855581766	2
7	2281	360030.536156995876	1
7	2289	362669.003984236794	0
7	2305	367586.240654062714	1
7	2307	368305.604887138124	0
7	2324	377276.815959803835	1
7	2327	378091.806301928593	0
7	2341	379019.511216112912	1
7	2343	379075.730356634678	0
7	2357	379206.637717829551	1
7	2359	379336.186108489852	0
7	2373	380881.406364852126	1
7	2376	381187.488440704546	0
7	2390	381401.916028496985	1
7	2398	382707.955138758086	2
7	2405	383231.780982233623	1
7	2409	383307.808785676174	2
7	2416	383483.299891491171	1
7	2425	383662.761085555052	2
7	2432	383740.527022600665	1
7	2447	384578.511888249758	2
7	2449	384719.174476298196	1
7	2457	385225.571676630581	0
7	2471	386046.696399385306	1
7	2474	387159.764274787247	0
7	2491	388149.751355842856	1
7	2496	388158.907529324946	2
7	2498	388406.44514362826	1
7	2506	388977.154217165673	0
7	2520	389880.883549250957	1
7	2523	390013.579614764807	0
7	2541	393811.392069106789	1
7	2545	393823.326137148101	0
7	2549	393894.015115750852	1
7	2556	394915.107510739011	0
7	2573	402905.800056601967	1
7	2575	403324.50372019598	0
7	2589	403621.884551861412	1
7	2597	404074.987070789239	2
7	2599	404122.475048951786	1
7	2613	404662.658273720603	2
7	2615	404962.933746999742	1
7	2634	408949.901745780657	2
7	2639	409185.681169951774	3
7	2641	409529.881772358552	2
7	2650	411923.088666016849	1
7	2665	414528.870207038576	2
7	2673	414773.526689842584	3
7	2675	415543.05818251399	2
7	2683	415870.567166891766	1
7	2691	416385.796095377091	0
7	2709	418057.170919030792	1
7	2714	418281.228554541596	2
7	2716	418885.535365198767	1
7	2724	419198.819472328917	0
7	2746	424764.079944615339	1
7	2751	424808.240070707266	2
7	2756	425470.147165910219	3
7	2759	427158.036434574822	2
7	2767	427640.459371815617	1
7	2781	428381.040023190199	2
7	2784	430681.974149986955	1
7	2793	432158.080810379393	0
7	2807	433154.706358951672	1
7	2809	433793.567179904672	0
7	2824	435148.806231532459	1
7	2826	435329.673798127257	0
7	2840	436560.096121510447	1
7	2842	437831.970403910054	0
7	2859	445931.89919658103	1
7	2862	447130.748148891567	0
7	2878	453021.060403587697	1
7	2880	455598.25702862824	0
7	2896	459232.348790707906	1
7	2898	460527.026163613097	0
7	2917	475003.540777048972	1
7	2925	476981.085455064419	2
7	2928	477865.789264918884	1
7	2936	479066.100567118969	0
7	2956	488638.506310798037	1
7	2962	489238.326834094619	2
7	2964	489496.280422715325	1
7	2969	489694.088412459479	0
7	2987	492554.138809801832	1
7	2989	493252.308644842867	0
7	3004	495065.173242879376	1
7	3006	495550.055761875256	0
7	3020	496912.208344256712	1
7	3029	501925.722348722278	0
7	3033	502367.703948310673	1
7	3046	503483.117711817403	2
7	3048	503630.997201140168	1
7	3057	504678.963765767769	0
7	3072	509337.805080868184	1
7	3075	511814.025772509981	0
7	3092	521858.780013674825	1
7	3095	522877.497471245117	0
7	3111	530728.184083193696	1
7	3120	531251.791551989	2
7	3122	531593.435136283465	1
7	3136	532477.099495071408	2
7	3138	533105.921357847726	1
7	3151	533755.748265923056	0
7	3155	533989.441640928877	1
7	3169	534828.638561473344	2
7	3171	536966.992741194658	1
7	3180	539266.531524753616	0
7	3195	542241.082803820708	1
7	3203	545011.859491704143	0
7	3207	545244.680675694169	1
7	3221	547581.580175867814	2
7	3229	548243.334266450277	3
7	3238	549087.322272078815	4
7	3240	550126.781795144043	3
7	3253	551642.798183083585	2
7	3257	551701.708489576101	3
7	3265	552502.588206793309	2
7	3273	554902.78599329027	1
7	3282	555481.728465379787	0
7	3296	556851.752693218745	1
7	3298	557570.587328464849	0
7	3317	561077.811507934728	1
7	3322	561144.477512013262	2
7	3333	562142.157241206792	3
7	3340	562199.451376800229	2
7	3344	562201.146419463305	3
7	3349	562521.41107738655	4
7	3356	562665.312700672872	3
7	3364	563118.2611006982	2
7	3373	565955.9785157855	1
7	3388	567304.629810395076	2
7	3390	567738.242599604472	1
7	3404	568589.279447042695	2
7	3407	570598.056395172878	1
7	3415	571546.093825114038	0
7	3424	571979.866914914082	1
7	3428	572088.154183817928	0
7	3447	577214.731913934094	1
7	3455	577293.36688583384	2
7	3462	578046.233127209384	1
7	3466	578102.713905854066	2
7	3473	578712.742150990213	1
7	3482	581412.523414583571	0
7	3500	584041.880093270315	1
7	3505	584168.366166828089	2
7	3508	585265.624240195967	1
7	3513	585317.240054408851	0
7	3530	586941.21617316593	1
7	3532	587236.268247368813	0
7	3548	591376.628257540065	1
7	3555	592224.910414725148	0
7	3559	592809.314109647204	1
7	3572	593916.016771328626	2
7	3575	594296.211202238024	1
7	3583	596195.474745354376	0
7	3599	601826.074876878423	1
7	3601	602236.946602750137	0
7	3615	602973.465576717045	1
7	3618	603808.067120150542	0
7	3632	605678.104831826157	1
7	3634	605878.561310031488	0
7	3649	608779.923706885722	1
7	3652	609588.278574929163	0
7	3666	610711.243422976225	1
7	3668	611876.815524833224	0
7	3683	613073.822394562079	1
7	3685	613354.492783820458	0
7	3700	617506.079824777403	1
7	3709	619657.215563553237	2
7	3717	620342.754845638983	3
7	3729	621043.737859640606	4
7	3734	621171.553121325722	5
7	3736	621208.709491409631	4
7	3744	621360.894552412869	3
7	3752	622032.14310804096	2
7	3765	623536.472510173186	1
7	3769	623773.859483783065	2
7	3777	624017.965768026163	1
7	3782	624152.174248402343	0
7	3794	625372.153482268171	1
7	3798	625397.71024761498	0
7	3810	626500.177353402223	1
7	3818	627057.614226199134	0
7	3832	629724.872973576942	1
7	3835	630844.11303323994	0
7	3850	635716.040420180078	1
7	3853	636068.322419676926	0
7	3872	642639.677136142922	1
7	3876	642734.76958798765	0
7	3880	642961.604014293046	1
7	3896	643352.346930653132	2
7	3901	643415.340250296573	3
7	3903	643820.916170043272	2
7	3908	643901.052391323401	1
7	3926	646386.394173185683	2
7	3928	646891.489965234816	1
7	3937	649900.653878605096	0
7	3951	650622.68630802689	1
7	3955	654205.227895120888	0
7	3973	658559.05012701569	1
7	3978	659063.359315027371	2
7	3980	659311.48292193048	1
7	3989	661059.434150340756	0
7	4003	662802.66236877441	1
7	4015	663760.876421703953	2
7	4020	663911.680006547736	3
7	4022	665539.039553708486	2
7	4031	666394.708894023471	1
7	4039	667839.5081349195	0
7	4053	668516.871819488192	1
7	4056	670100.304453741703	0
7	4071	673080.390798790162	1
7	4073	673303.839975329582	0
7	4091	676442.503877152917	1
7	4095	676452.046903815601	0
7	4099	676581.970575025887	1
7	4103	676728.472595361791	0
7	4120	677641.513254622435	1
7	4123	678490.041284729612	0
7	4137	679952.477356122917	1
7	4145	681243.865295312584	0
7	4149	681533.881841246443	1
7	4161	683872.741356011393	0
7	4166	684395.932437723104	1
7	4174	689732.463347178254	0
7	4189	692842.281016395316	1
7	4192	694047.810602238978	0
7	4207	696273.968662946932	1
7	4210	701948.279788159954	0
7	4226	705869.460453045424	1
7	4235	708139.929450864451	2
7	4237	708498.702699951519	1
7	4246	712346.367222760998	0
7	4264	714885.691344185252	1
7	4269	715046.489303251781	2
7	4271	715226.319183507414	1
7	4279	716241.347196464092	0
7	4296	724125.421161877676	1
7	4299	726738.153683724136	0
7	4313	727535.592150272052	1
7	4322	729662.174227072432	2
7	4330	730839.256426470516	3
7	4338	731023.753350292386	4
7	4340	731528.678686191102	3
7	4348	731726.352464080399	2
7	4361	732709.002759214474	3
7	4368	733166.15220987038	2
7	4371	733272.006263943865	1
7	4375	733532.714169102381	2
7	4380	733743.091368808306	3
7	4384	733952.920417436371	2
7	4396	734540.477474385241	3
7	4420	736220.131235208619	4
7	4422	736656.68984981609	3
7	4430	736925.645533090708	2
7	4439	738367.558073509072	1
7	4452	739382.38934448406	0
7	4456	739573.475860843804	1
7	4469	739860.07193717422	2
7	4477	740579.973035606664	3
7	4479	740648.206081744938	2
7	4493	740844.475500774451	3
7	4496	741728.42938811045	2
7	4510	742486.117235514102	3
7	4512	742538.617460042465	2
7	4517	742850.878456908598	1
7	4525	743062.988148469632	0
7	4544	747769.801107131691	1
7	4547	752701.416034573485	0
7	4565	763072.331017552257	1
7	4567	763821.298735496791	0
7	4582	767304.897171757546	1
7	4585	769594.967015453323	0
7	4599	770225.280071660274	1
7	4602	773697.964304866132	0
7	4620	783013.95038331834	1
7	4623	788614.02905303239	0
7	4640	796816.606187552985	1
7	4642	797914.77258036634	0
7	4658	803145.572764216845	1
7	4666	803778.169726278017	2
7	4669	804299.320392120855	1
7	4677	804986.64476636137	0
7	4696	812113.151596668688	1
7	4700	812116.175920589541	0
7	4707	812351.928700614462	1
7	4712	812468.148003933851	2
7	4725	812628.213904852119	3
7	4734	813075.929617899851	4
7	4736	813347.43257418572	3
7	4741	813482.850068628066	2
7	4752	814913.046361956187	1
7	4766	815691.185285806085	2
7	4769	816380.537268703091	1
7	4777	818017.867008243888	0
7	4792	819071.185321518411	1
7	4794	820216.424237701831	0
7	4809	823710.842846656643	1
7	4817	824206.681564283385	2
7	4820	825361.565704710852	1
7	4828	825607.061624080782	0
7	4843	830120.705636611859	1
7	4851	830258.364631378548	2
7	4854	832002.229900936837	1
7	4862	832975.741474247218	0
7	4877	834985.77962863596	1
7	4879	835530.745326765965	0
7	4897	847011.837158213873	1
7	4899	848293.619537325904	0
7	4913	848485.802662356737	1
7	4922	850794.218364490477	2
7	4924	851162.896883037847	1
7	4933	854701.051447073357	0
7	4949	858591.220375921812	1
7	4951	858853.181619241876	0
7	4966	862446.662348084329	1
7	4968	862455.147935142375	0
7	4985	863305.44408830411	1
7	4990	863568.57274706095	2
7	4993	864416.199335612569	1
7	5001	865956.537830429741	0
7	5017	870131.236476743293	1
7	5019	870804.498103124093	0
7	5034	873438.326723038743	1
7	5036	873797.366479443481	0
7	5051	878668.501196940893	1
7	5060	879859.428861911419	2
7	5062	880204.670297411631	1
7	5076	881389.119930676144	2
7	5084	881474.140933651572	3
7	5086	881699.253436675163	2
7	5095	883203.737063334591	1
7	5109	883588.53773435556	2
7	5111	883847.044154308145	1
7	5126	885820.008024420425	2
7	5134	886187.058854849705	3
7	5136	887090.518400572426	2
7	5141	887220.803161853222	1
7	5144	887698.669431757563	0
7	5168	891891.099646090397	1
7	5171	896090.065877288345	0
7	5187	900497.06503619075	1
7	5189	901251.23669214938	0
7	5205	906103.12730224948	1
7	5207	906364.778966153696	0
7	5225	911717.945052480255	1
7	5230	911751.730139678226	2
7	5233	912057.782030051437	1
7	5241	912795.924687076718	0
7	5261	921562.902537397607	1
7	5266	922336.721108420424	2
7	5275	924227.92941563828	3
7	5277	924251.985136485698	2
7	5282	924334.81357872103	1
7	5305	925904.510064695409	2
7	5310	926315.142922976477	3
7	5314	926337.609831000447	2
7	5318	926438.508084609944	3
7	5326	927277.694702774765	2
7	5340	927471.526675469888	3
7	5348	928341.556305605442	4
7	5356	928734.53469316494	5
7	5358	928909.066866991132	4
7	5366	929159.680228571303	3
7	5374	929279.65138663008	2
7	5383	930141.182769894235	1
7	5397	930337.422613958758	2
7	5399	931286.19293598043	1
7	5413	931450.986821235842	2
7	5421	932801.552135975657	3
7	5423	932816.286614322487	2
7	5429	933027.198660624978	1
7	5432	933821.762978087606	0
7	5455	936167.401003805472	1
7	5463	936611.136868349572	2
7	5465	936767.987706670758	1
7	5473	937428.936626881189	0
7	5492	943693.720909844858	1
7	5497	944549.36231740447	2
7	5505	946667.391335059797	1
7	5512	946784.036849212969	2
7	5517	946860.986648874619	3
7	5524	946993.719737152712	2
7	5533	948013.388792240663	1
7	5541	949928.019412170583	0
7	5557	955683.201641921152	1
7	5559	956592.393248997637	0
7	5578	969775.438009714454	1
7	5580	971681.949317140304	0
7	5595	972003.305664620799	1
7	5603	972501.688040961187	2
7	5605	972675.157330498731	1
7	5613	973856.885019112467	0
7	5629	978618.386246887207	1
7	5637	978814.192557964474	2
7	5648	979322.396020941635	3
7	5652	979538.193573015424	2
7	5656	980061.978299323552	3
7	5660	980631.317683605204	2
7	5668	980828.183923449282	1
7	5683	981248.466338501379	0
7	5687	981377.668844932195	1
7	5692	981380.67081828105	2
7	5710	981718.47381437881	3
7	5712	981984.370119324395	2
7	5726	982874.213317435536	3
7	5728	983332.337251971678	2
7	5743	984658.651855637037	3
7	5745	984984.71684389096	2
7	5750	985037.979844320783	1
7	5753	985079.84447298014	0
7	5775	986479.450742900219	1
7	5778	989547.187148158848	0
7	5793	990927.412489235783	1
7	5801	992445.08711607286	2
7	5804	994108.083908859082	1
7	5818	995312.467939949383	2
7	5826	995681.855285124717	3
7	5829	996114.103050994757	2
7	5837	996648.598256821934	1
7	5845	996809.396053223749	0
7	5862	1005339.5948944172	1
7	5869	1006924.050722352913	0
7	5873	1007232.205281811804	1
7	5886	1007862.736171646334	2
7	5889	1008269.442244765032	1
7	5904	1011102.045583598922	2
7	5906	1011297.049294781936	1
7	5914	1012414.276750451428	0
7	5929	1014889.569551773805	1
7	5931	1015633.301301257498	0
7	5952	1028490.893933268522	1
7	5959	1028524.25033370521	0
7	5964	1029299.810472018467	1
7	5969	1029368.61456840106	2
7	5973	1029683.319536780873	1
7	5993	1031520.758232969859	2
7	5998	1031739.143913972579	3
7	6000	1031894.599606583745	2
7	6006	1032045.893954011015	1
7	6022	1034209.568917059235	0
7	6026	1034344.822257254174	1
7	6033	1034601.863512767477	0
7	6047	1034701.658803627979	1
7	6050	1035642.192930517306	0
