file 95519 1483664639                                           
version 2
run ParkingMeasurement-43-20170106-02:03:59-11193
attr configname ParkingMeasurement
attr datetime 20170106-02:03:59
attr experiment ParkingMeasurement
attr inifile parkingStudy.ini
attr iterationvars ""
attr iterationvars2 $repetition=43
attr measurement ""
attr network SimNetwork
attr processid 11193
attr repetition 43
attr replication #43
attr resultdir results
attr runnumber 43
attr seedset 43
param SimNetwork.a.parkingLot.parkingDelay exponential(30min)
param SimNetwork.a.runway.landingTime exponential(5min)
param SimNetwork.a.runway.takeoffTime exponential(5min)
param SimNetwork.a.runway.throughputCheckInterval 50min
param SimNetwork.wg.interArrivalTime exponential(50min)

vector 2  SimNetwork.a.landingQueue  queueLength:vector  ETV
attr source  queueLengthSignal
vector 1  SimNetwork.a.landingQueue  queueTime:vector  ETV
attr source  queueTimeSignal
vector 7  SimNetwork.a.parkingLot  parkingOccupancy:vector  ETV
attr source  parkingOccupancy
vector 5  SimNetwork.a.runway  landedThroughput:vector  ETV
attr source  landedThroughputSignal
vector 6  SimNetwork.a.runway  tookoffThroughput:vector  ETV
attr source  tookoffThroughputSignal
vector 4  SimNetwork.a.takeoffQueue  queueLength:vector  ETV
attr source  queueLengthSignal
vector 3  SimNetwork.a.takeoffQueue  queueTime:vector  ETV
attr source  queueTimeSignal
vector 0  SimNetwork.wg  responseTime:vector  ETV
attr source  responseTimeSignal
0	1428 12908 618 5736 106791.878757011934 1035536.519041422462 302 483.21799586602 20665.736319468 1754495.535335 14638043331.86
1	14336 9501 597 5716 101839.722221083917 1032664.21962053568 302 0 1235.3698125529 17798.343978306 10045928.77411
2	23837 17420 595 5716 101839.722221083917 1032664.21962053568 604 0 2 312 322
3	41257 9414 615 5733 106095.62386364266 1035191.417607085102 302 0 1245.1818199533 14559.26718855 8522206.4473682
4	50671 17449 613 5733 106095.62386364266 1035191.417607085102 604 0 3 314 330
5	68120 4980 602 5729 102000 1035000 312 0 4 302 574
6	73100 4980 602 5729 102000 1035000 312 0 4 301 605
7	78080 17439 600 5730 101924.169900353311 1035191.417607085102 604 0 4 656 1166
