version 2
run ParkingMeasurement-90-20170108-17:30:47-5508
attr configname ParkingMeasurement
attr datetime 20170108-17:30:47
attr experiment ParkingMeasurement
attr inifile parkingStudy.ini
attr iterationvars ""
attr iterationvars2 $repetition=90
attr measurement ""
attr network controltower.SimNetwork
attr processid 5508
attr repetition 90
attr replication #90
attr resultdir results
attr runnumber 90
attr seedset 90
param SimNetwork.a.parkingLot.parkingDelay exponential(30min)
param SimNetwork.a.runway.landingTime exponential(5min)
param SimNetwork.a.runway.takeoffTime exponential(5min)
param SimNetwork.a.runway.throughputCheckInterval 50min
param SimNetwork.wg.interArrivalTime exponential(50min)

statistic SimNetwork.wg 	responseTime:stats
field count 332
field mean 5385.3939906694
field stddev 3718.8963929679
field sum 1787950.8049022
field sqrsum 14206612536.652
field min 720.5301514696
field max 23785.520356153
attr source  responseTimeSignal
scalar SimNetwork.a.landingQueue 	queueLength:timeavg 	0.02778704642854
attr source  queueLengthSignal
statistic SimNetwork.a.landingQueue 	queueLength:stats
field count 668
field mean 0.52395209580838
field stddev 0.52324779557377
field sum 350
field sqrsum 366
field min 0
field max 2
attr source  queueLengthSignal
statistic SimNetwork.a.landingQueue 	queueTime:stats
field count 334
field mean 77.888053342221
field stddev 217.0938388352
field sum 26014.609816302
field sqrsum 17720429.025497
field min 0
field max 1635.7190181292
attr source  queueTimeSignal
scalar SimNetwork.a.takeoffQueue 	queueLength:timeavg 	0.028019570954758
attr source  queueLengthSignal
statistic SimNetwork.a.takeoffQueue 	queueLength:stats
field count 667
field mean 0.53073463268366
field stddev 0.5398808955931
field sum 354
field sqrsum 382
field min 0
field max 3
attr source  queueLengthSignal
statistic SimNetwork.a.takeoffQueue 	queueTime:stats
field count 333
field mean 78.051280557365
field stddev 196.10213444333
field sum 25991.076425603
field sqrsum 14796044.446315
field min 0
field max 1370.4337946616
attr source  queueTimeSignal
scalar SimNetwork.a.parkingLot 	parkingOccupancy:timeavg 	0.65601289571972
attr source  parkingOccupancy
statistic SimNetwork.a.parkingLot 	parkingOccupancy:stats
field count 668
field mean 1.1526946107784
field stddev 0.93765565400533
field sum 770
field sqrsum 1474
field min 0
field max 5
attr source  parkingOccupancy
