version 2
run ParkingMeasurement-37-20170106-02:03:58-11165
attr configname ParkingMeasurement
attr datetime 20170106-02:03:58
attr experiment ParkingMeasurement
attr inifile parkingStudy.ini
attr iterationvars ""
attr iterationvars2 $repetition=37
attr measurement ""
attr network SimNetwork
attr processid 11165
attr repetition 37
attr replication #37
attr resultdir results
attr runnumber 37
attr seedset 37
param SimNetwork.a.parkingLot.parkingDelay exponential(30min)
param SimNetwork.a.runway.landingTime exponential(5min)
param SimNetwork.a.runway.takeoffTime exponential(5min)
param SimNetwork.a.runway.throughputCheckInterval 50min
param SimNetwork.wg.interArrivalTime exponential(50min)

vector 7  SimNetwork.a.parkingLot  parkingOccupancy:vector  ETV
attr source  parkingOccupancy
vector 4  SimNetwork.a.takeoffQueue  queueLength:vector  ETV
attr source  queueLengthSignal
vector 3  SimNetwork.a.takeoffQueue  queueTime:vector  ETV
attr source  queueTimeSignal
vector 0  SimNetwork.wg  responseTime:vector  ETV
attr source  responseTimeSignal
vector 2  SimNetwork.a.landingQueue  queueLength:vector  ETV
attr source  queueLengthSignal
vector 1  SimNetwork.a.landingQueue  queueTime:vector  ETV
attr source  queueTimeSignal
vector 5  SimNetwork.a.runway  landedThroughput:vector  ETV
attr source  landedThroughputSignal
vector 6  SimNetwork.a.runway  tookoffThroughput:vector  ETV
attr source  tookoffThroughputSignal
0	576	101063.342978506003	5768.7973458691
0	601	103453.870202885163	3950.9874927141
0	611	110007.723314127533	8877.8618045749
0	636	113638.243445519251	10400.727519401
0	645	115356.018511683283	3679.2354939143
0	670	117568.027716826113	4297.43896676
0	678	118213.357188591762	2310.4570897636
0	706	121242.996201246751	4758.5341474766
0	711	121413.951325924191	1441.5819961715
0	736	123864.681618306598	3337.7409077998
0	744	123982.841758885126	2282.9948526153
0	769	128750.367985768649	814.02602779207
0	778	129253.699564471309	6037.3966190369
0	795	133108.761495484379	4829.8748632743
0	812	137836.578272636936	6279.6765686762
0	831	144460.426711168882	7315.5391403778
0	857	150199.993575193599	11740.460927245
0	873	151837.891406714447	5709.1238093831
0	890	153423.307608383362	1763.7202603184
0	898	154384.620095186161	4552.6972685245
0	915	158452.378555000638	5949.703471475
0	933	162499.233549796154	5629.4187507653
0	949	163789.368857503059	3935.8742252883
0	978	168681.728056714488	1699.7744154527
0	994	169464.97155464929	1967.3118248025
0	999	169653.175105357829	6434.0949154695
0	1015	170958.433920131924	3174.3115869062
0	1045	177572.369942445354	6493.1773875129
0	1050	177711.981504062574	7743.5197822542
0	1069	186183.623582772467	14044.17859255
0	1093	188021.869324866324	4743.0657947769
0	1102	189629.548500555522	3349.7363156795
0	1126	191888.588487465476	4125.1866031416
0	1135	192162.169246691188	1308.6312282252
0	1152	196917.113179581289	5851.3251650299
0	1170	202186.102630699639	6053.7664674272
0	1189	210169.16086685683	9053.0744126804
0	1206	214020.667039260866	5109.4297368768
0	1232	220035.871133853413	7652.2229690773
0	1256	221819.167238633473	1051.2023108156
0	1268	222606.13086142623	4791.5960200713
0	1276	222768.71966921856	4045.8384065474
0	1298	225126.609785840273	3754.4800080262
0	1306	225292.817581186498	2566.5248660815
0	1334	239945.524846040089	15421.860446924
0	1346	242387.18782999465	6043.2983653829
0	1371	243236.220049957374	993.02577655667
0	1384	244234.140680333816	4894.1626942975
0	1396	246960.026163551732	4543.2808476874
0	1409	247950.238606749984	4777.5193362331
0	1443	253360.534710634956	7316.8998557783
0	1451	254422.560222754197	1853.1036135675
0	1460	255276.117532463454	4310.7337069416
0	1476	256946.882812341599	4232.5711693669
0	1502	263766.468302378307	3802.8019474381
0	1522	265573.72304457615	2474.8598764661
0	1543	266978.996176802407	1617.8778463819
0	1555	267609.794581292089	11737.057391452
0	1560	267755.432004872529	3000.2775088221
0	1577	270241.927454049293	4036.3348873738
0	1614	276035.410444594095	4075.3699206004
0	1627	277282.585148151303	2778.5609096231
0	1643	278501.570348334361	8881.6496991873
0	1655	279850.067363434065	3902.0766915644
0	1676	280942.114923706131	1183.3776622046
0	1701	283229.638735225249	3190.3650647258
0	1709	283258.71828018931	1452.6627808242
0	1717	284886.595033143257	6942.1674841043
0	1726	285345.150607702629	10824.427789298
0	1742	287567.645813043499	5724.2411500656
0	1760	291933.664922766176	5683.1593403141
0	1777	294669.385657245991	5091.3773429502
0	1794	297051.475996070245	3552.5702195442
0	1814	302869.531173844082	6762.3489801699
0	1845	306487.346562077179	6252.4612306683
0	1870	309057.159741187629	6925.7229529626
0	1889	310977.325764108362	7457.2831764234
0	1894	311021.393056437185	2413.2114012555
0	1905	311646.438359282974	5648.6604030387
0	1911	312076.769962092037	3667.4184692724
0	1935	314024.482228184245	3755.8255866726
0	1968	316330.670986170614	2845.2174038702
0	1983	318250.371245632396	3910.7564975085
0	1996	319084.713452017737	3725.8383860148
0	2009	319560.752974233036	1379.8198931664
0	2017	320933.061567899393	5408.4906779301
0	2026	322324.783848197462	9114.5275017733
0	2045	332478.826844580265	13884.095018613
0	2087	336518.125003304391	7001.0193398906
0	2103	336939.366419287902	1482.7965103962
0	2120	338542.045032298718	3085.9480816334
0	2136	339501.643727520942	4722.2424932893
0	2163	340238.556631901394	5200.7064933517
0	2168	340478.371736640887	2279.2952444563
0	2176	341036.266697467158	1224.7503090616
0	2196	342320.420196771971	3964.9460714306
0	2204	342674.188563398636	2762.2183547017
0	2209	342915.453978011829	6331.6921147665
0	2237	345134.877665131595	345.81032771171
0	2242	345447.844964407713	3681.5972607317
0	2259	349186.27626428497	4372.1954688668
0	2278	358176.544053145288	11703.255647521
0	2300	366169.904820789048	8298.826234328
0	2321	368604.504926668701	4728.1347404305
0	2330	369483.896449467591	3764.073467197
0	2348	376092.069530011233	8720.2909447663
0	2365	379659.124098168586	7703.6744378887
0	2383	384664.438859568493	5270.9925161691
0	2420	400752.880565073984	4038.399777393
0	2428	400809.067828461341	18072.283105239
0	2436	400971.570124926712	1541.3344459936
0	2466	408162.332377963186	7895.0483123417
0	2471	408795.380936575737	3105.2608220981
0	2508	416102.448040260078	1245.4348686574
0	2513	416763.383653885993	9353.9099181564
0	2521	416785.678971789139	1532.7030439341
0	2539	420341.45503422475	4952.6483985927
0	2556	424449.707556209765	6771.721265105
0	2574	430042.163212261874	6943.9808076829
0	2594	441604.17985907459	12384.855144606
0	2619	444976.360626122013	5974.0807799982
0	2627	446560.888128424782	4713.5352578661
0	2644	449840.316826380475	7078.7267599864
0	2669	451661.572763772291	4806.3716090825
0	2678	454669.579001021801	4142.1071979394
0	2694	455633.306721507399	4295.3188310862
0	2713	462395.46390725085	7308.4407623741
0	2730	467288.723978202348	7832.784827038
0	2752	476729.860801014044	10969.460778424
0	2766	477634.173704036219	3309.4911138951
0	2792	485445.227919532456	3747.1181658765
0	2801	486059.321033450435	9632.4037669907
0	2826	491597.146184860219	2089.2547634793
0	2835	492511.227403246571	7608.7141484825
0	2855	497631.155365081345	7271.2079058929
0	2877	499643.437569085445	2315.5264728455
0	2911	502339.140993836975	6972.3548358055
0	2921	502459.265932665932	3663.0070728583
0	2926	502560.139724426446	2616.0513129987
0	2946	504507.98430506142	4288.5733544585
0	2954	504957.61415855172	3478.1997008035
0	2967	505377.022905797477	2779.7169419452
0	2993	512601.63657559726	4675.8587414797
0	3002	514055.269067422976	9380.3031720612
0	3035	517823.256903204728	5632.0562263206
0	3060	519023.312033770971	2653.5730304373
0	3071	519976.941484025279	3886.6976326758
0	3076	520462.809630750156	3528.9236231669
0	3084	521611.764807662524	3711.0342133011
0	3103	529000.536327259333	10899.919023071
0	3121	535270.300432462577	6759.2626384182
0	3138	537870.999794606174	7660.0730592649
0	3155	542610.484022657882	5739.2229052863
0	3174	549835.290392830621	7578.1093216981
0	3192	555982.613612611815	10964.395672283
0	3211	564553.043490521934	11843.233205195
0	3229	572858.382252224321	11075.720733963
0	3247	577421.220126472307	6241.0094113344
0	3288	581987.874397666451	3196.029665851
0	3313	583098.274569176478	2944.9713052101
0	3324	584127.923654678482	8062.0043353872
0	3332	584324.937751099933	5112.3640847527
0	3337	584639.436317672176	6525.1842103615
0	3346	586672.090092233482	4613.2428994761
0	3382	589081.631370426608	6581.6515284403
0	3395	589788.239211070769	1829.3389387023
0	3403	590432.734223687257	1975.653977346
0	3412	592539.074948396098	4796.0516012494
0	3429	596156.752503058643	7147.9076802556
0	3446	597140.631908855576	2300.4595897965
0	3472	603845.371557910941	7365.6689121545
0	3496	604734.650054531234	6875.9890900175
0	3505	606161.82137428795	2119.3775669833
0	3513	607051.268355992116	4792.6805415506
0	3530	609993.54019433426	5634.3113409679
0	3547	614464.118585972975	5326.4821669407
0	3583	617798.693990424048	4442.740750096
0	3589	618288.650612342616	3534.9486854455
0	3609	621968.822769097048	5064.6712901979
0	3623	624860.828709530449	5642.4729892356
0	3631	626594.754055436553	11457.916814577
0	3649	630960.122912605063	9468.3341669737
0	3674	634628.706967822986	3462.4909620069
0	3691	637071.130339955626	6617.9171015544
0	3699	638515.162194240544	6887.1961807557
0	3733	644146.988171921139	7754.9371872541
0	3742	645033.393937583201	5188.1990879725
0	3750	646837.46354057904	4277.8581089183
0	3767	648469.495579079726	5022.1225261208
0	3784	652985.5016836337	5968.984085629
0	3802	659738.00011783198	7586.5084734709
0	3827	662842.152086154578	6598.097593322
0	3836	664780.657958761195	4905.8066084666
0	3874	672757.866483431525	1953.7187675623
0	3879	673383.035284188723	2930.8930642069
0	3888	676252.879227581883	14434.730872958
0	3907	685031.096915799064	13017.194236111
0	3935	697778.034795943118	13490.34084723
0	3950	701406.034777010241	4811.2955022249
0	3977	702744.696077947407	5055.0817021133
0	3985	703187.258630634484	2523.18147341
0	3993	704632.259938151464	4253.5868382233
0	4033	708789.185798237843	3273.8103556357
0	4046	710110.797222342769	3914.7979946055
0	4068	711058.968987350297	2670.7972428467
0	4082	711830.186973859371	10167.839444889
0	4095	712464.498876296524	3120.4779403874
0	4100	712856.257378963313	2683.7622442329
0	4108	713555.089538488826	5017.6975604378
0	4125	716240.349689287115	4489.8468107234
0	4151	721598.87574562523	6538.0769585645
0	4159	721725.187264551902	2734.7760918918
0	4187	732053.270050533643	2857.8840054413
0	4219	734569.529063588131	1242.6825824147
0	4227	734828.78519060741	3464.1370794806
0	4244	736017.125985790582	2123.6056609981
0	4252	736926.52205059479	16934.355379491
0	4261	740281.538443429015	6996.7403835189
0	4298	745239.964798994931	2030.0719200454
0	4303	745310.266189069687	10199.273149721
0	4312	747909.275584312658	6136.4242110794
0	4328	749601.544495067047	6060.455363207
0	4346	753625.905685122458	4910.7213774589
0	4362	754551.739188602291	1520.4293291929
0	4388	761431.706706809102	7427.3106699506
0	4405	762414.685783297824	2394.8769308478
0	4428	765557.832420369258	5458.2218837135
0	4446	767077.022853228316	5533.7045262873
0	4466	768581.014243088193	3156.1344703382
0	4474	768977.221085261659	3290.6478254158
0	4479	768986.069988110505	4607.5218771564
0	4505	776679.04361532121	2613.4318209083
0	4522	778921.402560578708	11588.17287342
0	4530	779331.101343570716	4989.4568792476
0	4550	789134.73711394872	12228.820464947
0	4567	793710.245298763657	9234.6673574306
0	4592	795901.409649458833	4333.1547514443
0	4600	797274.660542386156	2684.6065344938
0	4628	799830.301711607865	4659.7628716375
0	4633	800592.978949628984	1798.5830421438
0	4651	806575.010507341304	7342.1800500881
0	4676	809804.790970127066	6370.4536863468
0	4685	811146.974005429233	2187.6909800314
0	4718	815787.128503220196	1234.4712167
0	4727	816541.047476445034	7514.7026789544
0	4735	818182.713958339912	4204.6650296559
0	4752	821757.067799579077	6657.1889042699
0	4777	824454.853442581456	5540.3578322253
0	4798	830160.207954612279	5859.1141340934
0	4803	830484.780376482927	8465.1544708991
0	4820	831180.946536059	2265.912373652
0	4853	835398.510105203113	1051.4771456718
0	4864	836003.588037741565	2268.1033288686
0	4886	837679.008928998433	3157.9766429675
0	4903	840040.970416864565	4257.2727623483
0	4911	840303.209994945915	9568.4597063108
0	4919	840784.294980332527	3410.4204111147
0	4961	847857.986390975707	4162.3240909684
0	4979	849284.518016955551	11482.950664683
0	4997	850026.324791930598	2804.6520098729
0	5005	850313.170148202729	3219.1549204147
0	5010	850552.39610289125	3200.1037267873
0	5022	852009.596325013918	2744.0354108432
0	5043	853168.016020616453	1591.9887082012
0	5051	854194.317552142283	4813.366661844
0	5077	858023.060149526623	5699.1370120254
0	5093	860471.53239156344	4261.917969082
0	5102	862561.672084869241	6549.6589459708
0	5127	866901.250371688324	7334.6383012504
0	5136	868111.249320701375	4922.4390883419
0	5153	870899.910978638924	4462.2175613707
0	5173	873987.326837063738	3509.2657479088
0	5195	876520.445794007705	3670.4659288078
0	5220	880785.336871295898	4247.5992946333
0	5228	880957.714937628967	7542.9250871598
0	5240	882194.265835928253	6745.0188788975
0	5264	883395.814684810746	3165.2596756149
0	5269	883682.576718879352	1713.9749537075
0	5297	887178.452083849139	1787.0918816407
0	5311	888081.50961842715	5453.8923353912
0	5319	888808.115004520037	2247.9260994664
0	5345	895399.249658498939	8397.7664197879
0	5353	896524.52947183183	2090.9496773838
0	5379	902032.822765287108	7079.0967463912
0	5387	902792.101195566293	4509.6252793362
0	5415	905524.092536582092	2481.5851002767
0	5420	905982.792233119715	7342.5622222011
0	5446	909478.320456162087	5598.1468215385
0	5454	911919.29507570194	4615.5370290653
0	5473	920454.43774830986	13020.160645887
0	5493	922431.772472338198	6632.6283493592
0	5506	923730.500219433169	1611.7154176097
0	5523	925742.382403168762	3419.9901652485
0	5540	928188.11755963285	3713.2983724715
0	5565	932827.577301893785	6455.1319776091
0	5582	935621.635975402044	4473.7221619279
0	5599	938447.669404938356	5045.3448920251
0	5610	938918.313453092137	8468.0092507287
0	5638	950650.411874305958	11813.211458887
0	5643	950877.32915509399	13345.092631679
0	5661	956256.504704768913	10615.071973959
0	5678	957593.354561302838	2895.2675767548
0	5695	960899.91695010962	4506.740158361
0	5721	967207.518119372888	7990.6109110272
0	5729	967644.029081142738	3133.5159986817
0	5746	970228.034940793839	4609.1517853996
0	5763	972255.746855105618	4039.9073274825
0	5779	973959.226003627674	2746.9403736946
0	5805	979281.400736752892	6391.5953202806
0	5813	979640.035113193321	5283.3663850651
0	5831	985647.65719044996	7236.6757525512
0	5855	1000499.457520487126	15420.51836656
0	5869	1002403.529233244207	6245.6887065582
0	5895	1008436.663765988213	8020.8539717768
0	5903	1009847.169745261387	3368.5399986904
0	5928	1013604.543355835384	5920.3238965799
0	5938	1017182.09232366851	5028.4574642032
0	5962	1018661.992619557131	5840.4056414226
0	5970	1019276.698380182632	2087.4958390046
0	5995	1021904.263908415161	4065.6725669675
0	6003	1022467.292057572835	1447.1404004266
0	6020	1024483.074245166238	3241.1190108714
1	581	101129.861509552619	0
1	590	103237.515926117999	0
1	617	111676.783017769013	0
1	625	113270.588750066102	0
1	650	115902.900098828113	0
1	658	116484.462053770103	0
1	683	119972.369329752735	0
1	692	120526.94071050675	0
1	716	121699.846906269863	0
1	725	123216.302945434407	0
1	750	127936.341957976581	0
1	758	128278.886632210079	0
1	783	131556.901703960747	0
1	801	137144.887570791075	0
1	818	138459.532647948705	0
1	836	146128.767597331333	0
1	845	149831.922826661694	0
1	862	151659.587348064968	0
1	878	152502.675083525602	0
1	904	156869.814799030814	0
1	921	159853.49463221471	0
1	938	163219.080189888323	0
1	955	166981.953641261744	0
1	963	167497.659729846745	0
1	980	168681.728056714488	897.6057234888
1	1004	169968.461721808392	0
1	1021	171079.192554932484	0
1	1029	172139.44499022289	0
1	1057	183278.803530089408	0
1	1074	186279.812184876012	0
1	1082	187763.401884323847	0
1	1107	190853.538018466006	0
1	1115	191065.788014551404	0
1	1141	196132.336163272426	0
1	1159	201116.08645417641	0
1	1177	208911.237302384098	0
1	1194	212383.648164776099	0
1	1212	217814.534841354889	0
1	1220	218722.881262671127	0
1	1237	220767.96492781787	0
1	1245	221372.129777814029	0
1	1278	222768.71966921856	42.426954113544
1	1286	224523.664399116292	0
1	1314	236343.889464611772	0
1	1323	239339.977986036302	0
1	1348	242387.18782999465	143.99355659394
1	1356	242587.857935610439	171.11261974607
1	1373	243236.220049957374	63.500779440522
1	1398	246960.026163551732	916.39130869505
1	1415	250965.383825521829	0
1	1424	252569.456609186721	0
1	1432	252923.328132354489	209.01648937974
1	1465	255872.737189840482	0
1	1482	259963.666354940207	0
1	1491	263098.863168110063	0
1	1508	264755.154496050442	0
1	1524	265573.72304457615	212.60471415565
1	1532	266205.592566675517	0
1	1565	269619.92064914702	0
1	1582	271960.040523993709	0
1	1591	274504.024238528185	0
1	1599	274782.494939868803	261.77212146447
1	1616	276035.410444594095	87.419772724381
1	1632	277944.427549038989	0
1	1657	279850.067363434065	91.330101932568
1	1665	280400.447256196756	361.17358569728
1	1681	281806.055499365101	0
1	1690	282605.175151515514	761.77048853762
1	1731	286250.50558245205	0
1	1748	289578.008314295762	0
1	1765	293498.905776526057	0
1	1782	296107.182193674202	0
1	1800	300234.885331408862	0
1	1816	302869.531173844082	738.09438561906
1	1825	303520.042587685009	0
1	1833	305997.77795624427	0
1	1850	308409.351492819686	0
1	1858	308608.181655181695	0
1	1875	310268.656641511602	0
1	1916	313210.256346424168	0
1	1924	313485.453582300455	0
1	1940	314339.614748123871	0
1	1949	315358.875066002914	0
1	1960	316263.670916794379	739.10002682512
1	1985	318250.371245632396	69.438164565712
1	1998	319084.713452017737	489.98162605065
1	2033	329517.10566341381	0
1	2051	334779.401234231648	0
1	2059	335037.850138549674	0
1	2067	335456.096950665333	0
1	2079	336086.811980184189	630.24207129246
1	2092	336583.761863245313	0
1	2122	338542.045032298718	342.9685401141
1	2127	338586.680691706374	231.20656636503
1	2141	339811.516388405606	0
1	2152	340112.968907823413	200.99869912651
1	2181	341766.247703676062	0
1	2214	344789.067337419881	0
1	2222	344912.076159322818	97.995363904688
1	2247	346473.288405624258	0
1	2267	357871.078586461094	0
1	2285	363876.370186238166	0
1	2302	366169.904820789048	450.0818385185
1	2310	367371.778585244968	0
1	2335	371955.449660279838	0
1	2354	379393.446343399348	0
1	2371	382736.784723222525	0
1	2392	396714.480787681011	0
1	2401	399430.235678933104	0
1	2409	400267.284065621471	0
1	2443	405690.120114477629	0
1	2451	407409.473735729638	0
1	2478	414857.013171602694	0
1	2486	415252.975927855047	0
1	2494	415663.277643265319	274.47100763325
1	2527	417677.986291104757	0
1	2545	423098.182404578969	0
1	2563	429219.324714468879	0
1	2582	439002.279846123771	0
1	2599	441847.352870558685	0
1	2607	442761.590066394058	0
1	2632	446855.201154689836	0
1	2650	450527.471803082384	0
1	2658	451337.987890421156	0
1	2683	455087.023144876721	0
1	2701	459455.939151164377	0
1	2719	465760.400022589693	0
1	2738	474324.682590141143	0
1	2754	476729.860801014044	302.94353455434
1	2772	481698.109753655989	0
1	2781	484902.513254764108	0
1	2807	489507.891421380922	0
1	2815	490623.088849634121	263.14139044572
1	2841	495366.786158031485	0
1	2857	497631.155365081345	303.24426884139
1	2866	498796.258859807669	0
1	2882	499944.08841142777	0
1	2890	500219.410950602908	0
1	2913	502339.140993836975	859.72653608873
1	2931	502597.305963852269	0
1	2956	504957.61415855172	282.64826318998
1	2973	507925.777834117518	0
1	2982	512191.200676884139	0
1	3008	516090.243851349436	0
1	3019	517052.023760105095	682.28475677145
1	3024	517114.680942377108	180.79493479389
1	3040	517900.730594361378	0
1	3048	518287.876140977762	187.25883678978
1	3092	528511.037794044398	0
1	3108	530210.926735341239	0
1	3126	536871.261117371561	0
1	3144	542257.181071132503	0
1	3161	545018.217940328974	0
1	3180	552709.81028532699	0
1	3199	561782.661518261208	0
1	3218	571180.210715137888	0
1	3236	576065.919319291278	0
1	3252	578114.25210731064	0
1	3260	578791.844731815441	0
1	3269	579212.573666347243	0
1	3277	580153.303263966344	0
1	3294	582058.847192757419	0
1	3302	582499.979841986265	0
1	3351	587743.023347146709	0
1	3359	587958.900272368419	0
1	3371	588615.419750084628	158.33950374336
1	3384	589081.631370426608	72.786547623602
1	3418	594840.172319059096	0
1	3434	596479.702645756392	0
1	3451	597858.66096451373	0
1	3460	602258.587814441503	0
1	3477	604042.443807304644	0
1	3485	604359.228853366353	0
1	3519	609137.636419032273	0
1	3536	613355.953240328017	0
1	3552	614753.70192689712	0
1	3561	615136.837240859296	0
1	3569	616904.151478899113	0
1	3594	619218.355720294842	0
1	3611	621968.822769097048	477.03402346569
1	3638	630453.213238401252	0
1	3654	631166.21600581612	0
1	3662	631689.047373051361	61.081359566484
1	3680	636392.050984667055	0
1	3705	639845.194849610697	0
1	3714	642559.605431660735	0
1	3722	643447.373052958906	0
1	3755	647016.517598004746	0
1	3773	652151.49164436104	0
1	3790	656244.054492832556	0
1	3807	659874.851350294619	0
1	3816	661818.148354623575	0
1	3843	670452.142219981855	0
1	3851	670804.147715869268	0
1	3860	672013.902679687863	0
1	3896	684287.693948713101	0
1	3916	696594.739274785375	0
1	3924	697689.614375834103	0
1	3952	701406.034777010241	1027.3616770821
1	3957	701636.709575560849	972.63241833634
1	3965	701922.181120767439	259.83359179708
1	3999	705515.375442602095	0
1	4007	706722.112955867388	526.11372813016
1	4016	708388.171744503562	0
1	4035	708789.185798237843	251.79382018685
1	4048	710110.797222342769	766.77628643366
1	4056	710571.753882929859	399.25874819949
1	4084	711830.186973859371	79.684095295675
1	4114	715060.798787060698	0
1	4131	718990.411172660123	0
1	4139	719992.166671104014	0
1	4167	729195.386045092374	0
1	4175	731364.648111126762	0
1	4192	733284.798059910159	0
1	4200	733545.737733406695	218.8912522333
1	4208	733893.520324792465	0
1	4233	735110.99303934905	0
1	4267	741772.851373233226	0
1	4275	743209.892878949565	0
1	4283	743853.945719330465	312.85658747044
1	4317	748715.184307663593	0
1	4335	753031.309859409376	0
1	4351	754004.396036858526	0
1	4369	760019.80885245	0
1	4377	760334.940157563302	235.32962090753
1	4393	761543.318326941031	0
1	4410	764378.54811095411	0
1	4430	765557.832420369258	132.9526476193
1	4438	765796.538056526833	109.96479668098
1	4451	767333.229687158721	0
1	4486	774065.611794412871	0
1	4494	775057.98599237523	716.34152805213
1	4510	776905.916649001743	0
1	4537	784475.577941333037	0
1	4555	791568.254898014491	0
1	4572	794590.054007892347	0
1	4581	795359.251368319601	188.71252834922
1	4606	798794.395907485171	0
1	4614	799232.830457253211	0
1	4639	803434.337283780246	0
1	4657	808959.283025397806	0
1	4665	809369.250362683958	342.90556519337
1	4691	813978.048928683968	0
1	4699	814552.657286520201	0
1	4707	815260.845917257204	160.96702194801
1	4740	818914.49561035614	0
1	4758	822019.625905583792	0
1	4766	824301.093820518881	0
1	4784	828915.034162406963	0
1	4808	830734.75028863511	0
1	4825	833735.484708872978	0
1	4834	834347.032959531289	0
1	4842	834531.44586395637	10.413577925398
1	4866	836003.588037741565	219.89038322528
1	4875	837373.874569217831	0
1	4891	837801.567352272716	0
1	4925	843695.66230000735	0
1	4934	847094.015227787983	0
1	4942	847221.672782057667	0
1	4953	847613.805776268804	261.51340016488
1	4981	849284.518016955551	18.957102784844
1	4989	849532.532854559931	151.58196426169
1	5024	852009.596325013918	433.56901259863
1	5032	852571.210429939852	247.28729243867
1	5057	856012.013138898416	0
1	5065	856857.600021437993	647.98559895654
1	5082	859566.612070437941	0
1	5107	863188.810232359487	0
1	5116	866437.693417268258	0
1	5142	870478.061089154971	0
1	5158	872849.97986519992	0
1	5175	873987.326837063738	572.5369865946
1	5183	875449.246957030764	0
1	5200	876537.737576662583	0
1	5209	880230.555009195828	0
1	5242	882194.265835928253	225.6640707564
1	5250	882825.828547985107	198.2112649492
1	5275	885391.36020220843	0
1	5283	886560.188905053597	0
1	5299	887178.452083849139	176.96884513813
1	5326	894433.579794448036	0
1	5334	894953.726018895939	0
1	5359	898282.475916230094	0
1	5367	898640.230010918592	0
1	5393	903042.507436305436	0
1	5401	903880.173634623635	0
1	5426	907303.758046636678	0
1	5434	907434.277102422594	0
1	5461	915799.144122979014	0
1	5479	922118.784801823518	0
1	5495	922431.772472338198	109.38023441793
1	5512	924474.819187161333	0
1	5528	926372.445324284723	0
1	5546	930450.304202363395	0
1	5554	931147.913813474095	0
1	5571	933402.32451291322	0
1	5588	937532.236523414687	0
1	5612	938918.313453092137	81.113037673055
1	5623	945641.43273080965	0
1	5650	954698.086984547992	0
1	5666	956393.176791748604	0
1	5683	959216.907208345691	0
1	5701	964510.513082461087	0
1	5710	966032.718635573524	413.83548017933
1	5734	968215.839527623089	0
1	5751	971212.285629933064	0
1	5768	972889.805416472288	0
1	5784	974356.668728128199	0
1	5794	978410.981437898738	0
1	5820	985078.939153927272	0
1	5840	996157.840526685962	0
1	5857	1000499.457520487126	83.647726275744
1	5875	1006478.629746570954	0
1	5883	1007684.21945925546	0
1	5909	1012153.634859465347	0
1	5917	1012821.586978134515	0
1	5943	1017189.202541177997	0
1	5951	1018072.488865370666	233.89752392301
1	5976	1021020.151657146194	0
1	5984	1021459.622631412331	217.66739711749
1	6009	1023979.123501713096	0
1	6028	1034192.383819774154	0
1	6037	1036057.081846414725	0
2	579	101129.861509552619	1
2	581	101129.861509552619	0
2	588	103237.515926117999	1
2	590	103237.515926117999	0
2	615	111676.783017769013	1
2	617	111676.783017769013	0
2	623	113270.588750066102	1
2	625	113270.588750066102	0
2	648	115902.900098828113	1
2	650	115902.900098828113	0
2	656	116484.462053770103	1
2	658	116484.462053770103	0
2	681	119972.369329752735	1
2	683	119972.369329752735	0
2	690	120526.94071050675	1
2	692	120526.94071050675	0
2	714	121699.846906269863	1
2	716	121699.846906269863	0
2	723	123216.302945434407	1
2	725	123216.302945434407	0
2	748	127936.341957976581	1
2	750	127936.341957976581	0
2	756	128278.886632210079	1
2	758	128278.886632210079	0
2	781	131556.901703960747	1
2	783	131556.901703960747	0
2	799	137144.887570791075	1
2	801	137144.887570791075	0
2	816	138459.532647948705	1
2	818	138459.532647948705	0
2	834	146128.767597331333	1
2	836	146128.767597331333	0
2	843	149831.922826661694	1
2	845	149831.922826661694	0
2	860	151659.587348064968	1
2	862	151659.587348064968	0
2	876	152502.675083525602	1
2	878	152502.675083525602	0
2	902	156869.814799030814	1
2	904	156869.814799030814	0
2	919	159853.49463221471	1
2	921	159853.49463221471	0
2	936	163219.080189888323	1
2	938	163219.080189888323	0
2	953	166981.953641261744	1
2	955	166981.953641261744	0
2	961	167497.659729846745	1
2	963	167497.659729846745	0
2	974	167784.122333225688	1
2	980	168681.728056714488	0
2	1002	169968.461721808392	1
2	1004	169968.461721808392	0
2	1019	171079.192554932484	1
2	1021	171079.192554932484	0
2	1027	172139.44499022289	1
2	1029	172139.44499022289	0
2	1055	183278.803530089408	1
2	1057	183278.803530089408	0
2	1072	186279.812184876012	1
2	1074	186279.812184876012	0
2	1080	187763.401884323847	1
2	1082	187763.401884323847	0
2	1105	190853.538018466006	1
2	1107	190853.538018466006	0
2	1113	191065.788014551404	1
2	1115	191065.788014551404	0
2	1139	196132.336163272426	1
2	1141	196132.336163272426	0
2	1157	201116.08645417641	1
2	1159	201116.08645417641	0
2	1175	208911.237302384098	1
2	1177	208911.237302384098	0
2	1192	212383.648164776099	1
2	1194	212383.648164776099	0
2	1210	217814.534841354889	1
2	1212	217814.534841354889	0
2	1218	218722.881262671127	1
2	1220	218722.881262671127	0
2	1235	220767.96492781787	1
2	1237	220767.96492781787	0
2	1243	221372.129777814029	1
2	1245	221372.129777814029	0
2	1273	222726.292715105016	1
2	1278	222768.71966921856	0
2	1284	224523.664399116292	1
2	1286	224523.664399116292	0
2	1312	236343.889464611772	1
2	1314	236343.889464611772	0
2	1321	239339.977986036302	1
2	1323	239339.977986036302	0
2	1343	242243.194273400707	1
2	1348	242387.18782999465	0
2	1351	242416.745315864373	1
2	1356	242587.857935610439	0
2	1368	243172.719270516852	1
2	1373	243236.220049957374	0
2	1393	246043.634854856681	1
2	1398	246960.026163551732	0
2	1413	250965.383825521829	1
2	1415	250965.383825521829	0
2	1422	252569.456609186721	1
2	1424	252569.456609186721	0
2	1427	252714.311642974747	1
2	1432	252923.328132354489	0
2	1463	255872.737189840482	1
2	1465	255872.737189840482	0
2	1480	259963.666354940207	1
2	1482	259963.666354940207	0
2	1489	263098.863168110063	1
2	1491	263098.863168110063	0
2	1506	264755.154496050442	1
2	1508	264755.154496050442	0
2	1519	265361.118330420496	1
2	1524	265573.72304457615	0
2	1530	266205.592566675517	1
2	1532	266205.592566675517	0
2	1563	269619.92064914702	1
2	1565	269619.92064914702	0
2	1580	271960.040523993709	1
2	1582	271960.040523993709	0
2	1589	274504.024238528185	1
2	1591	274504.024238528185	0
2	1594	274520.722818404329	1
2	1599	274782.494939868803	0
2	1610	275947.990671869714	1
2	1616	276035.410444594095	0
2	1630	277944.427549038989	1
2	1632	277944.427549038989	0
2	1652	279758.737261501497	1
2	1657	279850.067363434065	0
2	1660	280039.273670499479	1
2	1665	280400.447256196756	0
2	1679	281806.055499365101	1
2	1681	281806.055499365101	0
2	1684	281843.404662977892	1
2	1690	282605.175151515514	0
2	1729	286250.50558245205	1
2	1731	286250.50558245205	0
2	1746	289578.008314295762	1
2	1748	289578.008314295762	0
2	1763	293498.905776526057	1
2	1765	293498.905776526057	0
2	1780	296107.182193674202	1
2	1782	296107.182193674202	0
2	1798	300234.885331408862	1
2	1800	300234.885331408862	0
2	1811	302131.436788225019	1
2	1816	302869.531173844082	0
2	1823	303520.042587685009	1
2	1825	303520.042587685009	0
2	1831	305997.77795624427	1
2	1833	305997.77795624427	0
2	1848	308409.351492819686	1
2	1850	308409.351492819686	0
2	1856	308608.181655181695	1
2	1858	308608.181655181695	0
2	1873	310268.656641511602	1
2	1875	310268.656641511602	0
2	1914	313210.256346424168	1
2	1916	313210.256346424168	0
2	1922	313485.453582300455	1
2	1924	313485.453582300455	0
2	1938	314339.614748123871	1
2	1940	314339.614748123871	0
2	1947	315358.875066002914	1
2	1949	315358.875066002914	0
2	1952	315524.570889969262	1
2	1960	316263.670916794379	0
2	1980	318180.933081066684	1
2	1985	318250.371245632396	0
2	1993	318594.731825967082	1
2	1998	319084.713452017737	0
2	2031	329517.10566341381	1
2	2033	329517.10566341381	0
2	2049	334779.401234231648	1
2	2051	334779.401234231648	0
2	2057	335037.850138549674	1
2	2059	335037.850138549674	0
2	2065	335456.096950665333	1
2	2067	335456.096950665333	0
2	2070	335456.569908891731	1
2	2079	336086.811980184189	0
2	2090	336583.761863245313	1
2	2092	336583.761863245313	0
2	2114	338199.076492184622	1
2	2117	338355.474125341344	2
2	2122	338542.045032298718	1
2	2127	338586.680691706374	0
2	2139	339811.516388405606	1
2	2141	339811.516388405606	0
2	2144	339911.970208696902	1
2	2152	340112.968907823413	0
2	2179	341766.247703676062	1
2	2181	341766.247703676062	0
2	2212	344789.067337419881	1
2	2214	344789.067337419881	0
2	2217	344814.08079541813	1
2	2222	344912.076159322818	0
2	2245	346473.288405624258	1
2	2247	346473.288405624258	0
2	2265	357871.078586461094	1
2	2267	357871.078586461094	0
2	2283	363876.370186238166	1
2	2285	363876.370186238166	0
2	2296	365719.822982270545	1
2	2302	366169.904820789048	0
2	2308	367371.778585244968	1
2	2310	367371.778585244968	0
2	2333	371955.449660279838	1
2	2335	371955.449660279838	0
2	2352	379393.446343399348	1
2	2354	379393.446343399348	0
2	2369	382736.784723222525	1
2	2371	382736.784723222525	0
2	2390	396714.480787681011	1
2	2392	396714.480787681011	0
2	2399	399430.235678933104	1
2	2401	399430.235678933104	0
2	2407	400267.284065621471	1
2	2409	400267.284065621471	0
2	2441	405690.120114477629	1
2	2443	405690.120114477629	0
2	2449	407409.473735729638	1
2	2451	407409.473735729638	0
2	2476	414857.013171602694	1
2	2478	414857.013171602694	0
2	2484	415252.975927855047	1
2	2486	415252.975927855047	0
2	2489	415388.806635632069	1
2	2494	415663.277643265319	0
2	2525	417677.986291104757	1
2	2527	417677.986291104757	0
2	2543	423098.182404578969	1
2	2545	423098.182404578969	0
2	2561	429219.324714468879	1
2	2563	429219.324714468879	0
2	2580	439002.279846123771	1
2	2582	439002.279846123771	0
2	2597	441847.352870558685	1
2	2599	441847.352870558685	0
2	2605	442761.590066394058	1
2	2607	442761.590066394058	0
2	2630	446855.201154689836	1
2	2632	446855.201154689836	0
2	2648	450527.471803082384	1
2	2650	450527.471803082384	0
2	2656	451337.987890421156	1
2	2658	451337.987890421156	0
2	2681	455087.023144876721	1
2	2683	455087.023144876721	0
2	2699	459455.939151164377	1
2	2701	459455.939151164377	0
2	2717	465760.400022589693	1
2	2719	465760.400022589693	0
2	2736	474324.682590141143	1
2	2738	474324.682590141143	0
2	2749	476426.917266459699	1
2	2754	476729.860801014044	0
2	2770	481698.109753655989	1
2	2772	481698.109753655989	0
2	2779	484902.513254764108	1
2	2781	484902.513254764108	0
2	2805	489507.891421380922	1
2	2807	489507.891421380922	0
2	2810	490359.947459188397	1
2	2815	490623.088849634121	0
2	2839	495366.786158031485	1
2	2841	495366.786158031485	0
2	2852	497327.911096239954	1
2	2857	497631.155365081345	0
2	2864	498796.258859807669	1
2	2866	498796.258859807669	0
2	2880	499944.08841142777	1
2	2882	499944.08841142777	0
2	2888	500219.410950602908	1
2	2890	500219.410950602908	0
2	2908	501479.414457748243	1
2	2913	502339.140993836975	0
2	2929	502597.305963852269	1
2	2931	502597.305963852269	0
2	2951	504674.965895361736	1
2	2956	504957.61415855172	0
2	2971	507925.777834117518	1
2	2973	507925.777834117518	0
2	2980	512191.200676884139	1
2	2982	512191.200676884139	0
2	3006	516090.243851349436	1
2	3008	516090.243851349436	0
2	3011	516369.739003333647	1
2	3014	516933.886007583214	2
2	3019	517052.023760105095	1
2	3024	517114.680942377108	0
2	3038	517900.730594361378	1
2	3040	517900.730594361378	0
2	3043	518100.61730418798	1
2	3048	518287.876140977762	0
2	3090	528511.037794044398	1
2	3092	528511.037794044398	0
2	3106	530210.926735341239	1
2	3108	530210.926735341239	0
2	3124	536871.261117371561	1
2	3126	536871.261117371561	0
2	3142	542257.181071132503	1
2	3144	542257.181071132503	0
2	3159	545018.217940328974	1
2	3161	545018.217940328974	0
2	3178	552709.81028532699	1
2	3180	552709.81028532699	0
2	3197	561782.661518261208	1
2	3199	561782.661518261208	0
2	3216	571180.210715137888	1
2	3218	571180.210715137888	0
2	3234	576065.919319291278	1
2	3236	576065.919319291278	0
2	3250	578114.25210731064	1
2	3252	578114.25210731064	0
2	3258	578791.844731815441	1
2	3260	578791.844731815441	0
2	3267	579212.573666347243	1
2	3269	579212.573666347243	0
2	3275	580153.303263966344	1
2	3277	580153.303263966344	0
2	3292	582058.847192757419	1
2	3294	582058.847192757419	0
2	3300	582499.979841986265	1
2	3302	582499.979841986265	0
2	3349	587743.023347146709	1
2	3351	587743.023347146709	0
2	3357	587958.900272368419	1
2	3359	587958.900272368419	0
2	3366	588457.080246341264	1
2	3371	588615.419750084628	0
2	3379	589008.844822803006	1
2	3384	589081.631370426608	0
2	3416	594840.172319059096	1
2	3418	594840.172319059096	0
2	3432	596479.702645756392	1
2	3434	596479.702645756392	0
2	3449	597858.66096451373	1
2	3451	597858.66096451373	0
2	3458	602258.587814441503	1
2	3460	602258.587814441503	0
2	3475	604042.443807304644	1
2	3477	604042.443807304644	0
2	3483	604359.228853366353	1
2	3485	604359.228853366353	0
2	3517	609137.636419032273	1
2	3519	609137.636419032273	0
2	3534	613355.953240328017	1
2	3536	613355.953240328017	0
2	3550	614753.70192689712	1
2	3552	614753.70192689712	0
2	3559	615136.837240859296	1
2	3561	615136.837240859296	0
2	3567	616904.151478899113	1
2	3569	616904.151478899113	0
2	3592	619218.355720294842	1
2	3594	619218.355720294842	0
2	3606	621491.788745631356	1
2	3611	621968.822769097048	0
2	3636	630453.213238401252	1
2	3638	630453.213238401252	0
2	3652	631166.21600581612	1
2	3654	631166.21600581612	0
2	3657	631627.966013484877	1
2	3662	631689.047373051361	0
2	3678	636392.050984667055	1
2	3680	636392.050984667055	0
2	3703	639845.194849610697	1
2	3705	639845.194849610697	0
2	3712	642559.605431660735	1
2	3714	642559.605431660735	0
2	3720	643447.373052958906	1
2	3722	643447.373052958906	0
2	3753	647016.517598004746	1
2	3755	647016.517598004746	0
2	3771	652151.49164436104	1
2	3773	652151.49164436104	0
2	3788	656244.054492832556	1
2	3790	656244.054492832556	0
2	3805	659874.851350294619	1
2	3807	659874.851350294619	0
2	3814	661818.148354623575	1
2	3816	661818.148354623575	0
2	3841	670452.142219981855	1
2	3843	670452.142219981855	0
2	3849	670804.147715869268	1
2	3851	670804.147715869268	0
2	3858	672013.902679687863	1
2	3860	672013.902679687863	0
2	3894	684287.693948713101	1
2	3896	684287.693948713101	0
2	3914	696594.739274785375	1
2	3916	696594.739274785375	0
2	3922	697689.614375834103	1
2	3924	697689.614375834103	0
2	3944	700378.673099928147	1
2	3947	700664.077157224511	2
2	3952	701406.034777010241	1
2	3957	701636.709575560849	0
2	3960	701662.347528970357	1
2	3965	701922.181120767439	0
2	3997	705515.375442602095	1
2	3999	705515.375442602095	0
2	4002	706195.999227737228	1
2	4007	706722.112955867388	0
2	4014	708388.171744503562	1
2	4016	708388.171744503562	0
2	4027	708537.391978050992	1
2	4035	708789.185798237843	0
2	4043	709344.020935909113	1
2	4048	710110.797222342769	0
2	4051	710172.495134730373	1
2	4056	710571.753882929859	0
2	4079	711750.502878563696	1
2	4084	711830.186973859371	0
2	4112	715060.798787060698	1
2	4114	715060.798787060698	0
2	4129	718990.411172660123	1
2	4131	718990.411172660123	0
2	4137	719992.166671104014	1
2	4139	719992.166671104014	0
2	4165	729195.386045092374	1
2	4167	729195.386045092374	0
2	4173	731364.648111126762	1
2	4175	731364.648111126762	0
2	4190	733284.798059910159	1
2	4192	733284.798059910159	0
2	4195	733326.846481173398	1
2	4200	733545.737733406695	0
2	4206	733893.520324792465	1
2	4208	733893.520324792465	0
2	4231	735110.99303934905	1
2	4233	735110.99303934905	0
2	4265	741772.851373233226	1
2	4267	741772.851373233226	0
2	4273	743209.892878949565	1
2	4275	743209.892878949565	0
2	4278	743541.089131860025	1
2	4283	743853.945719330465	0
2	4315	748715.184307663593	1
2	4317	748715.184307663593	0
2	4333	753031.309859409376	1
2	4335	753031.309859409376	0
2	4349	754004.396036858526	1
2	4351	754004.396036858526	0
2	4367	760019.80885245	1
2	4369	760019.80885245	0
2	4372	760099.610536655775	1
2	4377	760334.940157563302	0
2	4391	761543.318326941031	1
2	4393	761543.318326941031	0
2	4408	764378.54811095411	1
2	4410	764378.54811095411	0
2	4422	765424.879772749957	1
2	4430	765557.832420369258	0
2	4433	765686.573259845854	1
2	4438	765796.538056526833	0
2	4449	767333.229687158721	1
2	4451	767333.229687158721	0
2	4484	774065.611794412871	1
2	4486	774065.611794412871	0
2	4489	774341.644464323097	1
2	4494	775057.98599237523	0
2	4508	776905.916649001743	1
2	4510	776905.916649001743	0
2	4535	784475.577941333037	1
2	4537	784475.577941333037	0
2	4553	791568.254898014491	1
2	4555	791568.254898014491	0
2	4570	794590.054007892347	1
2	4572	794590.054007892347	0
2	4576	795170.538839970382	1
2	4581	795359.251368319601	0
2	4604	798794.395907485171	1
2	4606	798794.395907485171	0
2	4612	799232.830457253211	1
2	4614	799232.830457253211	0
2	4637	803434.337283780246	1
2	4639	803434.337283780246	0
2	4655	808959.283025397806	1
2	4657	808959.283025397806	0
2	4660	809026.344797490592	1
2	4665	809369.250362683958	0
2	4689	813978.048928683968	1
2	4691	813978.048928683968	0
2	4697	814552.657286520201	1
2	4699	814552.657286520201	0
2	4702	815099.878895309194	1
2	4707	815260.845917257204	0
2	4738	818914.49561035614	1
2	4740	818914.49561035614	0
2	4756	822019.625905583792	1
2	4758	822019.625905583792	0
2	4764	824301.093820518881	1
2	4766	824301.093820518881	0
2	4782	828915.034162406963	1
2	4784	828915.034162406963	0
2	4806	830734.75028863511	1
2	4808	830734.75028863511	0
2	4823	833735.484708872978	1
2	4825	833735.484708872978	0
2	4832	834347.032959531289	1
2	4834	834347.032959531289	0
2	4837	834521.032286030972	1
2	4842	834531.44586395637	0
2	4861	835783.697654516283	1
2	4866	836003.588037741565	0
2	4873	837373.874569217831	1
2	4875	837373.874569217831	0
2	4889	837801.567352272716	1
2	4891	837801.567352272716	0
2	4923	843695.66230000735	1
2	4925	843695.66230000735	0
2	4932	847094.015227787983	1
2	4934	847094.015227787983	0
2	4940	847221.672782057667	1
2	4942	847221.672782057667	0
2	4945	847352.292376103922	1
2	4953	847613.805776268804	0
2	4973	849265.560914170707	1
2	4981	849284.518016955551	0
2	4984	849380.95089029824	1
2	4989	849532.532854559931	0
2	5018	851576.027312415289	1
2	5024	852009.596325013918	0
2	5027	852323.92313750118	1
2	5032	852571.210429939852	0
2	5055	856012.013138898416	1
2	5057	856012.013138898416	0
2	5060	856209.614422481454	1
2	5065	856857.600021437993	0
2	5080	859566.612070437941	1
2	5082	859566.612070437941	0
2	5105	863188.810232359487	1
2	5107	863188.810232359487	0
2	5114	866437.693417268258	1
2	5116	866437.693417268258	0
2	5140	870478.061089154971	1
2	5142	870478.061089154971	0
2	5156	872849.97986519992	1
2	5158	872849.97986519992	0
2	5170	873414.789850469135	1
2	5175	873987.326837063738	0
2	5181	875449.246957030764	1
2	5183	875449.246957030764	0
2	5198	876537.737576662583	1
2	5200	876537.737576662583	0
2	5207	880230.555009195828	1
2	5209	880230.555009195828	0
2	5236	881968.601765171858	1
2	5242	882194.265835928253	0
2	5245	882627.617283035906	1
2	5250	882825.828547985107	0
2	5273	885391.36020220843	1
2	5275	885391.36020220843	0
2	5281	886560.188905053597	1
2	5283	886560.188905053597	0
2	5294	887001.483238711006	1
2	5299	887178.452083849139	0
2	5324	894433.579794448036	1
2	5326	894433.579794448036	0
2	5332	894953.726018895939	1
2	5334	894953.726018895939	0
2	5357	898282.475916230094	1
2	5359	898282.475916230094	0
2	5365	898640.230010918592	1
2	5367	898640.230010918592	0
2	5391	903042.507436305436	1
2	5393	903042.507436305436	0
2	5399	903880.173634623635	1
2	5401	903880.173634623635	0
2	5424	907303.758046636678	1
2	5426	907303.758046636678	0
2	5432	907434.277102422594	1
2	5434	907434.277102422594	0
2	5459	915799.144122979014	1
2	5461	915799.144122979014	0
2	5477	922118.784801823518	1
2	5479	922118.784801823518	0
2	5490	922322.392237920265	1
2	5495	922431.772472338198	0
2	5510	924474.819187161333	1
2	5512	924474.819187161333	0
2	5526	926372.445324284723	1
2	5528	926372.445324284723	0
2	5544	930450.304202363395	1
2	5546	930450.304202363395	0
2	5552	931147.913813474095	1
2	5554	931147.913813474095	0
2	5569	933402.32451291322	1
2	5571	933402.32451291322	0
2	5586	937532.236523414687	1
2	5588	937532.236523414687	0
2	5607	938837.200415419082	1
2	5612	938918.313453092137	0
2	5621	945641.43273080965	1
2	5623	945641.43273080965	0
2	5648	954698.086984547992	1
2	5650	954698.086984547992	0
2	5664	956393.176791748604	1
2	5666	956393.176791748604	0
2	5681	959216.907208345691	1
2	5683	959216.907208345691	0
2	5699	964510.513082461087	1
2	5701	964510.513082461087	0
2	5704	965618.883155394196	1
2	5710	966032.718635573524	0
2	5732	968215.839527623089	1
2	5734	968215.839527623089	0
2	5749	971212.285629933064	1
2	5751	971212.285629933064	0
2	5766	972889.805416472288	1
2	5768	972889.805416472288	0
2	5782	974356.668728128199	1
2	5784	974356.668728128199	0
2	5792	978410.981437898738	1
2	5794	978410.981437898738	0
2	5818	985078.939153927272	1
2	5820	985078.939153927272	0
2	5838	996157.840526685962	1
2	5840	996157.840526685962	0
2	5852	1000415.809794211382	1
2	5857	1000499.457520487126	0
2	5873	1006478.629746570954	1
2	5875	1006478.629746570954	0
2	5881	1007684.21945925546	1
2	5883	1007684.21945925546	0
2	5907	1012153.634859465347	1
2	5909	1012153.634859465347	0
2	5915	1012821.586978134515	1
2	5917	1012821.586978134515	0
2	5941	1017189.202541177997	1
2	5943	1017189.202541177997	0
2	5946	1017838.591341447652	1
2	5951	1018072.488865370666	0
2	5974	1021020.151657146194	1
2	5976	1021020.151657146194	0
2	5979	1021241.95523429484	1
2	5984	1021459.622631412331	0
2	6007	1023979.123501713096	1
2	6009	1023979.123501713096	0
2	6026	1034192.383819774154	1
2	6028	1034192.383819774154	0
2	6035	1036057.081846414725	1
2	6037	1036057.081846414725	0
3	573	101051.210617186106	0
3	598	103397.130997620245	102.54133796624
3	608	109457.407724625859	0
3	633	113454.124689774017	0
3	642	114305.057493246359	0
3	667	117323.810698331918	0
3	675	117757.328371843839	0
3	700	120725.254045599024	0
3	708	121242.996201246751	339.52814928498
3	733	123817.116136738908	0
3	741	123949.342751619235	0
3	766	128712.720619470408	0
3	775	129214.728560016818	0
3	792	133000.752302642683	0
3	809	137548.89588803388	0
3	828	144303.636774350137	0
3	854	150004.157128559596	146.57954092912
3	870	151701.973596698898	0
3	887	153167.937486114477	0
3	895	153882.196754622482	0
3	912	157906.351800916543	0
3	930	162442.272726850338	0
3	946	163576.924544118646	0
3	971	167658.720133252994	0
3	988	168977.96359570933	0
3	996	169464.97155464929	133.4554207079
3	1012	170459.578473008492	0
3	1039	177042.431792932896	0
3	1047	177572.369942445354	479.31911193336
3	1065	185775.233164831528	0
3	1090	188016.154382607274	0
3	1099	189118.274253381186	0
3	1123	191667.696176077543	296.0453249975
3	1132	192151.879835858273	0
3	1149	196861.331132348402	0
3	1167	201342.535806673228	0
3	1185	209941.911815791434	0
3	1203	213073.181940256534	0
3	1229	219450.904250635538	0
3	1253	221785.258030855863	0
3	1262	222174.211256241633	0
3	1270	222606.13086142623	213.99216646954
3	1294	224864.933500560155	286.58433076519
3	1303	225173.286976702827	0
3	1331	239675.9179210945	0
3	1340	242000.029321493852	0
3	1365	243127.079930727948	0
3	1381	243291.40243132381	0
3	1389	245757.201324756296	0
3	1406	247565.686068318593	0
3	1440	253202.645934619904	86.77128496791
3	1448	254412.605930392957	0
3	1457	255155.940776025728	0
3	1473	256814.924513562187	0
3	1499	263737.817196290152	0
3	1516	265262.847297797302	0
3	1540	266845.914005132385	0
3	1549	267380.333802313975	0
3	1557	267609.794581292089	177.53510659227
3	1574	270086.339942560635	0
3	1607	275850.843275265547	38.606390757622
3	1624	276385.904382521555	0
3	1640	278458.305754371397	206.65675521145
3	1649	279491.56435360136	0
3	1673	280934.872048725003	0
3	1698	282806.489867017782	0
3	1706	283247.406935876302	0
3	1714	284497.366352695658	0
3	1723	285198.179660793117	0
3	1739	287197.117891519375	0
3	1757	291457.279225032769	0
3	1774	294585.827217221903	0
3	1790	296863.647092877649	0
3	1808	301960.502353254386	0
3	1842	306348.765525105238	0
3	1867	309048.853715885763	379.91852619295
3	1883	310859.732943525428	0
3	1891	310977.325764108362	69.142751192456
3	1899	311215.577759581246	0
3	1907	311646.438359282974	205.8928184505
3	1932	313939.207444853832	110.83653620717
3	1965	316320.247611523961	550.3081268448
3	1973	317500.827049635086	0
3	1990	318386.816504444409	767.71468390681
3	2006	319538.825808987648	0
3	2014	320615.143853111835	0
3	2023	322175.820327889326	0
3	2042	332442.861978412687	0
3	2084	336087.68431346826	99.209698474958
3	2100	336828.897886435319	0
3	2108	337913.88046376363	0
3	2133	339429.870322373712	1310.1218893185
3	2160	340213.839653187566	156.44897997633
3	2165	340238.556631901394	77.920011746728
3	2173	340899.922397271397	0
3	2189	341828.188397335491	42.466600687351
3	2198	342320.420196771971	68.936493962263
3	2206	342674.188563398636	150.80481056409
3	2231	345086.651128460976	0
3	2239	345134.877665131595	1.928974678376
3	2256	349124.045732770343	0
3	2275	358090.749766803103	0
3	2293	365401.109629378439	0
3	2318	368427.144520230446	0
3	2327	369393.002184906083	0
3	2345	375938.091155703938	0
3	2362	379573.033810516026	0
3	2380	384339.207287669769	0
3	2417	400733.584301719008	0
3	2425	400787.447050723146	0
3	2433	400956.580549061008	0
3	2459	407712.646892745224	78.354276837083
3	2468	408162.332377963186	399.74016508406
3	2502	415981.2414164377	0
3	2510	416102.448040260078	54.435979983773
3	2518	416782.556281654441	0
3	2536	420055.980342895963	0
3	2553	424422.451932623418	0
3	2571	429688.033733414759	0
3	2590	440938.821696299264	0
3	2616	444147.993720702884	0
3	2624	446474.188474073669	0
3	2641	449118.419230278763	0
3	2666	451582.990169424614	0
3	2675	454579.908606599514	0
3	2691	455500.334014442063	0
3	2710	462128.725500897384	0
3	2727	467203.708736966642	0
3	2746	476128.593255906134	0
3	2763	477442.312549710834	0
3	2789	485397.693499716411	0
3	2797	485820.287724561825	0
3	2823	491587.657516544069	0
3	2832	492497.179394858559	0
3	2849	497057.260776287613	0
3	2874	499223.884014093827	0
3	2898	500810.638079965158	0
3	2918	502402.473207478701	1533.0835061056
3	2923	502459.265932665932	1420.1780065258
3	2939	503953.213923586175	0
3	2948	504507.98430506142	371.17946582084
3	2964	505202.650949831179	0
3	2990	512503.773735086242	0
3	2999	513870.157687240358	0
3	3032	517665.867182761438	0
3	3056	518693.819690070639	0
3	3065	519110.51108266379	0
3	3073	519976.941484025279	735.93286577093
3	3081	521540.193133869012	0
3	3100	528993.064605815827	0
3	3118	535214.552311502421	0
3	3135	537641.012196680591	0
3	3152	542531.07559240471	0
3	3171	549835.205287609418	0
3	3189	555796.501211096234	0
3	3208	564433.781634114725	0
3	3226	572122.396438725941	0
3	3244	577353.440026988414	0
3	3285	580644.905090474345	313.6838435805
3	3310	582989.276829817107	0
3	3318	583690.647101251989	0
3	3326	584127.923654678482	314.8300677798
3	3334	584324.937751099933	166.45655460594
3	3343	586460.91228799951	0
3	3376	588799.976573245031	838.15052210529
3	3392	589494.176743891583	123.32412633143
3	3400	590255.225625286062	0
3	3409	592008.139186050999	0
3	3426	595285.224868797803	0
3	3442	596921.137125975488	0
3	3469	603315.9862172884	253.94533247198
3	3493	604694.169357846967	126.49113565316
3	3501	605300.502037575219	0
3	3510	606933.648495704671	0
3	3527	609926.578668819382	0
3	3544	614335.767027734927	0
3	3577	617394.30570521366	0
3	3585	617798.693990424048	376.02443857572
3	3603	621223.356944574909	0
3	3620	624796.967356483991	0
3	3628	626276.929309590292	0
3	3646	630794.985790122346	0
3	3671	633950.340085315718	0
3	3688	636806.911264715093	0
3	3696	638181.547502635333	0
3	3730	643749.791225446294	210.9022936143
3	3738	644878.940261425943	0
3	3747	645260.926193753373	0
3	3764	648359.016778218658	0
3	3781	652914.150272056192	0
3	3799	659641.584324039686	0
3	3824	662503.132974167622	82.107848423555
3	3833	663349.270330944268	0
3	3868	672602.729929364512	0
3	3876	672757.866483431525	17.074718879692
3	3885	676185.993440147363	0
3	3904	684714.686239595847	0
3	3932	697754.901678344324	0
3	3941	700284.958860135251	0
3	3974	702653.967938721099	0
3	3982	702972.188679013939	0
3	3990	704580.321714845081	0
3	4024	708453.514576867311	35.588655117475
3	4040	709109.32127456506	409.54714901131
3	4064	710762.993212302677	0
3	4073	711636.67848356288	0
3	4089	712140.361793647249	474.04907826078
3	4097	712464.498876296524	108.12629533335
3	4105	712870.841514509372	0
3	4122	716206.697029798594	0
3	4148	720943.693766377648	0
3	4156	721612.110983862209	0
3	4183	731769.237625581405	0
3	4216	734562.985631405074	0
3	4224	734644.857080184169	0
3	4241	735696.360045834066	0
3	4249	736904.426249077529	0
3	4258	739794.783404622497	0
3	4292	745020.729233906071	0
3	4300	745239.964798994931	27.479235505182
3	4308	746314.865864696879	0
3	4325	749312.314855836931	0
3	4343	753495.69728892345	0
3	4359	754355.958352142549	0
3	4385	761198.58393212806	0
3	4402	762264.347608340587	0
3	4419	765340.805749931832	0
3	4443	766350.834042700349	803.68640119536
3	4460	768083.017571621376	0
3	4468	768581.014243088193	156.36962084554
3	4476	768977.221085261659	339.71905320451
3	4502	776352.291165668979	0
3	4519	778135.704598079246	0
3	4527	779224.634775614507	0
3	4546	788777.504677272555	0
3	4564	793364.13098742087	0
3	4589	795888.441541667286	0
3	4597	796956.226429819281	0
3	4622	799463.838654177336	0
3	4630	799830.301711607865	24.558805686838
3	4648	805895.751724861159	0
3	4673	809567.542210552656	14.818879019999
3	4682	810912.785621557413	0
3	4715	815779.1740761415	0
3	4724	816454.557816224017	0
3	4732	818083.768322020259	0
3	4749	820787.657925040948	0
3	4774	824424.042511249466	0
3	4792	830043.074932239468	0
3	4800	830160.207954612279	115.7636924188
3	4816	830938.524757089987	0
3	4850	835293.327815368782	0
3	4858	835495.560964577765	0
3	4883	837658.935552348082	0
3	4899	839596.131200294894	0
3	4908	840206.566329510102	0
3	4916	840444.542146319305	0
3	4958	847763.194480610941	297.17707000553
3	4966	848771.541218851127	0
3	4994	849540.521393450568	297.35487235761
3	4999	850026.324791930598	758.2069629074
3	5007	850313.170148202729	94.529892207331
3	5015	851413.710480086667	0
3	5040	852944.588322218746	0
3	5048	854126.323090191843	0
3	5073	857769.778255287895	0
3	5090	860301.919972434749	0
3	5099	862006.54006182113	0
3	5124	866899.733889332142	0
3	5133	868075.516336841723	0
3	5150	870881.595646389816	0
3	5167	873350.519114917682	0
3	5191	875673.861976213108	0
3	5217	880667.616296465094	0
3	5225	880881.263225659234	0
3	5233	881150.968028727876	0
3	5258	882998.824707486341	51.897080349715
3	5266	883395.814684810746	83.79434066633
3	5291	886898.210585258213	0
3	5308	888051.438552846722	0
3	5316	888735.013294128806	0
3	5342	895391.868816795737	343.53968805808
3	5350	895779.570319786087	0
3	5376	901902.708242528297	0
3	5384	902754.15865110528	0
3	5409	905255.571291871593	0
3	5417	905524.092536582092	251.95096294901
3	5443	909298.967726057202	0
3	5451	911726.779366924981	0
3	5470	920344.442122408355	0
3	5487	922317.324176055651	0
3	5503	923187.556814871818	0
3	5520	925681.526892299829	0
3	5537	928125.963512065964	0
3	5562	932472.297170805592	0
3	5579	935369.626183412524	0
3	5596	938401.049594295025	0
3	5604	938719.992502054038	0
3	5632	950056.215151493178	0
3	5640	950650.411874305958	564.91013847429
3	5658	956188.693572193204	0
3	5675	957579.886573585893	0
3	5692	960839.733011295534	0
3	5718	967054.613517462205	399.39644068989
3	5726	967634.490009146005	0
3	5743	970039.842346765101	0
3	5760	972023.428598923673	0
3	5776	973735.85988286598	0
3	5802	979133.247415415842	0
3	5810	979595.519754695141	0
3	5828	985256.996104572645	0
3	5849	999821.435108208079	0
3	5866	1002381.020742454906	0
3	5892	1008312.302359726656	100.72762882058
3	5900	1009491.62922244458	0
3	5925	1013098.108647492853	0
3	5935	1017051.808753428305	0
3	5959	1018491.622643883525	0
3	5967	1019137.975511746805	0
3	5992	1021833.070412563315	0
3	6000	1022129.315717963164	0
3	6017	1024424.933953971799	0
4	571	101051.210617186106	1
4	573	101051.210617186106	0
4	593	103294.589659654004	1
4	598	103397.130997620245	0
4	606	109457.407724625859	1
4	608	109457.407724625859	0
4	631	113454.124689774017	1
4	633	113454.124689774017	0
4	640	114305.057493246359	1
4	642	114305.057493246359	0
4	665	117323.810698331918	1
4	667	117323.810698331918	0
4	673	117757.328371843839	1
4	675	117757.328371843839	0
4	698	120725.254045599024	1
4	700	120725.254045599024	0
4	703	120903.468051961772	1
4	708	121242.996201246751	0
4	731	123817.116136738908	1
4	733	123817.116136738908	0
4	739	123949.342751619235	1
4	741	123949.342751619235	0
4	764	128712.720619470408	1
4	766	128712.720619470408	0
4	773	129214.728560016818	1
4	775	129214.728560016818	0
4	790	133000.752302642683	1
4	792	133000.752302642683	0
4	807	137548.89588803388	1
4	809	137548.89588803388	0
4	826	144303.636774350137	1
4	828	144303.636774350137	0
4	848	149857.577587630477	1
4	854	150004.157128559596	0
4	868	151701.973596698898	1
4	870	151701.973596698898	0
4	885	153167.937486114477	1
4	887	153167.937486114477	0
4	893	153882.196754622482	1
4	895	153882.196754622482	0
4	910	157906.351800916543	1
4	912	157906.351800916543	0
4	928	162442.272726850338	1
4	930	162442.272726850338	0
4	944	163576.924544118646	1
4	946	163576.924544118646	0
4	969	167658.720133252994	1
4	971	167658.720133252994	0
4	986	168977.96359570933	1
4	988	168977.96359570933	0
4	991	169331.516133941386	1
4	996	169464.97155464929	0
4	1010	170459.578473008492	1
4	1012	170459.578473008492	0
4	1037	177042.431792932896	1
4	1039	177042.431792932896	0
4	1042	177093.05083051199	1
4	1047	177572.369942445354	0
4	1063	185775.233164831528	1
4	1065	185775.233164831528	0
4	1088	188016.154382607274	1
4	1090	188016.154382607274	0
4	1097	189118.274253381186	1
4	1099	189118.274253381186	0
4	1118	191371.650851080039	1
4	1123	191667.696176077543	0
4	1130	192151.879835858273	1
4	1132	192151.879835858273	0
4	1147	196861.331132348402	1
4	1149	196861.331132348402	0
4	1165	201342.535806673228	1
4	1167	201342.535806673228	0
4	1183	209941.911815791434	1
4	1185	209941.911815791434	0
4	1201	213073.181940256534	1
4	1203	213073.181940256534	0
4	1227	219450.904250635538	1
4	1229	219450.904250635538	0
4	1251	221785.258030855863	1
4	1253	221785.258030855863	0
4	1260	222174.211256241633	1
4	1262	222174.211256241633	0
4	1265	222392.138694956693	1
4	1270	222606.13086142623	0
4	1289	224578.349169794969	1
4	1294	224864.933500560155	0
4	1301	225173.286976702827	1
4	1303	225173.286976702827	0
4	1329	239675.9179210945	1
4	1331	239675.9179210945	0
4	1338	242000.029321493852	1
4	1340	242000.029321493852	0
4	1363	243127.079930727948	1
4	1365	243127.079930727948	0
4	1379	243291.40243132381	1
4	1381	243291.40243132381	0
4	1387	245757.201324756296	1
4	1389	245757.201324756296	0
4	1404	247565.686068318593	1
4	1406	247565.686068318593	0
4	1435	253115.874649651994	1
4	1440	253202.645934619904	0
4	1446	254412.605930392957	1
4	1448	254412.605930392957	0
4	1455	255155.940776025728	1
4	1457	255155.940776025728	0
4	1471	256814.924513562187	1
4	1473	256814.924513562187	0
4	1497	263737.817196290152	1
4	1499	263737.817196290152	0
4	1514	265262.847297797302	1
4	1516	265262.847297797302	0
4	1538	266845.914005132385	1
4	1540	266845.914005132385	0
4	1547	267380.333802313975	1
4	1549	267380.333802313975	0
4	1552	267432.259474699816	1
4	1557	267609.794581292089	0
4	1572	270086.339942560635	1
4	1574	270086.339942560635	0
4	1602	275812.236884507925	1
4	1607	275850.843275265547	0
4	1622	276385.904382521555	1
4	1624	276385.904382521555	0
4	1635	278251.648999159943	1
4	1640	278458.305754371397	0
4	1647	279491.56435360136	1
4	1649	279491.56435360136	0
4	1671	280934.872048725003	1
4	1673	280934.872048725003	0
4	1696	282806.489867017782	1
4	1698	282806.489867017782	0
4	1704	283247.406935876302	1
4	1706	283247.406935876302	0
4	1712	284497.366352695658	1
4	1714	284497.366352695658	0
4	1721	285198.179660793117	1
4	1723	285198.179660793117	0
4	1737	287197.117891519375	1
4	1739	287197.117891519375	0
4	1755	291457.279225032769	1
4	1757	291457.279225032769	0
4	1772	294585.827217221903	1
4	1774	294585.827217221903	0
4	1788	296863.647092877649	1
4	1790	296863.647092877649	0
4	1806	301960.502353254386	1
4	1808	301960.502353254386	0
4	1840	306348.765525105238	1
4	1842	306348.765525105238	0
4	1861	308668.935189692814	1
4	1867	309048.853715885763	0
4	1881	310859.732943525428	1
4	1883	310859.732943525428	0
4	1886	310908.183012915906	1
4	1891	310977.325764108362	0
4	1897	311215.577759581246	1
4	1899	311215.577759581246	0
4	1902	311440.545540832472	1
4	1907	311646.438359282974	0
4	1927	313828.370908646662	1
4	1932	313939.207444853832	0
4	1955	315769.939484679158	1
4	1965	316320.247611523961	0
4	1971	317500.827049635086	1
4	1973	317500.827049635086	0
4	1976	317619.101820537602	1
4	1990	318386.816504444409	0
4	2004	319538.825808987648	1
4	2006	319538.825808987648	0
4	2012	320615.143853111835	1
4	2014	320615.143853111835	0
4	2021	322175.820327889326	1
4	2023	322175.820327889326	0
4	2040	332442.861978412687	1
4	2042	332442.861978412687	0
4	2073	335988.474614993302	1
4	2084	336087.68431346826	0
4	2098	336828.897886435319	1
4	2100	336828.897886435319	0
4	2106	337913.88046376363	1
4	2108	337913.88046376363	0
4	2111	338119.748433055173	1
4	2133	339429.870322373712	0
4	2147	340057.390673211236	1
4	2155	340160.636620154666	2
4	2160	340213.839653187566	1
4	2165	340238.556631901394	0
4	2171	340899.922397271397	1
4	2173	340899.922397271397	0
4	2184	341785.72179664814	1
4	2189	341828.188397335491	0
4	2193	342251.483702809708	1
4	2198	342320.420196771971	0
4	2201	342523.383752834544	1
4	2206	342674.188563398636	0
4	2229	345086.651128460976	1
4	2231	345086.651128460976	0
4	2234	345132.948690453219	1
4	2239	345134.877665131595	0
4	2254	349124.045732770343	1
4	2256	349124.045732770343	0
4	2273	358090.749766803103	1
4	2275	358090.749766803103	0
4	2291	365401.109629378439	1
4	2293	365401.109629378439	0
4	2316	368427.144520230446	1
4	2318	368427.144520230446	0
4	2325	369393.002184906083	1
4	2327	369393.002184906083	0
4	2343	375938.091155703938	1
4	2345	375938.091155703938	0
4	2360	379573.033810516026	1
4	2362	379573.033810516026	0
4	2378	384339.207287669769	1
4	2380	384339.207287669769	0
4	2415	400733.584301719008	1
4	2417	400733.584301719008	0
4	2423	400787.447050723146	1
4	2425	400787.447050723146	0
4	2431	400956.580549061008	1
4	2433	400956.580549061008	0
4	2454	407634.292615908141	1
4	2459	407712.646892745224	0
4	2462	407762.592212879126	1
4	2468	408162.332377963186	0
4	2500	415981.2414164377	1
4	2502	415981.2414164377	0
4	2505	416048.012060276305	1
4	2510	416102.448040260078	0
4	2516	416782.556281654441	1
4	2518	416782.556281654441	0
4	2534	420055.980342895963	1
4	2536	420055.980342895963	0
4	2551	424422.451932623418	1
4	2553	424422.451932623418	0
4	2569	429688.033733414759	1
4	2571	429688.033733414759	0
4	2588	440938.821696299264	1
4	2590	440938.821696299264	0
4	2614	444147.993720702884	1
4	2616	444147.993720702884	0
4	2622	446474.188474073669	1
4	2624	446474.188474073669	0
4	2639	449118.419230278763	1
4	2641	449118.419230278763	0
4	2664	451582.990169424614	1
4	2666	451582.990169424614	0
4	2673	454579.908606599514	1
4	2675	454579.908606599514	0
4	2689	455500.334014442063	1
4	2691	455500.334014442063	0
4	2708	462128.725500897384	1
4	2710	462128.725500897384	0
4	2725	467203.708736966642	1
4	2727	467203.708736966642	0
4	2744	476128.593255906134	1
4	2746	476128.593255906134	0
4	2761	477442.312549710834	1
4	2763	477442.312549710834	0
4	2787	485397.693499716411	1
4	2789	485397.693499716411	0
4	2795	485820.287724561825	1
4	2797	485820.287724561825	0
4	2821	491587.657516544069	1
4	2823	491587.657516544069	0
4	2830	492497.179394858559	1
4	2832	492497.179394858559	0
4	2847	497057.260776287613	1
4	2849	497057.260776287613	0
4	2872	499223.884014093827	1
4	2874	499223.884014093827	0
4	2896	500810.638079965158	1
4	2898	500810.638079965158	0
4	2901	500869.389701373141	1
4	2905	501039.087926140117	2
4	2918	502402.473207478701	1
4	2923	502459.265932665932	0
4	2937	503953.213923586175	1
4	2939	503953.213923586175	0
4	2943	504136.804839240583	1
4	2948	504507.98430506142	0
4	2962	505202.650949831179	1
4	2964	505202.650949831179	0
4	2988	512503.773735086242	1
4	2990	512503.773735086242	0
4	2997	513870.157687240358	1
4	2999	513870.157687240358	0
4	3030	517665.867182761438	1
4	3032	517665.867182761438	0
4	3054	518693.819690070639	1
4	3056	518693.819690070639	0
4	3063	519110.51108266379	1
4	3065	519110.51108266379	0
4	3068	519241.008618254351	1
4	3073	519976.941484025279	0
4	3079	521540.193133869012	1
4	3081	521540.193133869012	0
4	3098	528993.064605815827	1
4	3100	528993.064605815827	0
4	3116	535214.552311502421	1
4	3118	535214.552311502421	0
4	3133	537641.012196680591	1
4	3135	537641.012196680591	0
4	3150	542531.07559240471	1
4	3152	542531.07559240471	0
4	3169	549835.205287609418	1
4	3171	549835.205287609418	0
4	3187	555796.501211096234	1
4	3189	555796.501211096234	0
4	3206	564433.781634114725	1
4	3208	564433.781634114725	0
4	3224	572122.396438725941	1
4	3226	572122.396438725941	0
4	3242	577353.440026988414	1
4	3244	577353.440026988414	0
4	3280	580331.221246893845	1
4	3285	580644.905090474345	0
4	3308	582989.276829817107	1
4	3310	582989.276829817107	0
4	3316	583690.647101251989	1
4	3318	583690.647101251989	0
4	3321	583813.09358689868	1
4	3326	584127.923654678482	0
4	3329	584158.481196493994	1
4	3334	584324.937751099933	0
4	3341	586460.91228799951	1
4	3343	586460.91228799951	0
4	3362	587961.826051139739	1
4	3376	588799.976573245031	0
4	3387	589370.852617560149	1
4	3392	589494.176743891583	0
4	3398	590255.225625286062	1
4	3400	590255.225625286062	0
4	3407	592008.139186050999	1
4	3409	592008.139186050999	0
4	3424	595285.224868797803	1
4	3426	595285.224868797803	0
4	3440	596921.137125975488	1
4	3442	596921.137125975488	0
4	3464	603062.040884816424	1
4	3469	603315.9862172884	0
4	3488	604567.678222193807	1
4	3493	604694.169357846967	0
4	3499	605300.502037575219	1
4	3501	605300.502037575219	0
4	3508	606933.648495704671	1
4	3510	606933.648495704671	0
4	3525	609926.578668819382	1
4	3527	609926.578668819382	0
4	3542	614335.767027734927	1
4	3544	614335.767027734927	0
4	3575	617394.30570521366	1
4	3577	617394.30570521366	0
4	3580	617422.669551848326	1
4	3585	617798.693990424048	0
4	3601	621223.356944574909	1
4	3603	621223.356944574909	0
4	3618	624796.967356483991	1
4	3620	624796.967356483991	0
4	3626	626276.929309590292	1
4	3628	626276.929309590292	0
4	3644	630794.985790122346	1
4	3646	630794.985790122346	0
4	3669	633950.340085315718	1
4	3671	633950.340085315718	0
4	3686	636806.911264715093	1
4	3688	636806.911264715093	0
4	3694	638181.547502635333	1
4	3696	638181.547502635333	0
4	3725	643538.888931831992	1
4	3730	643749.791225446294	0
4	3736	644878.940261425943	1
4	3738	644878.940261425943	0
4	3745	645260.926193753373	1
4	3747	645260.926193753373	0
4	3762	648359.016778218658	1
4	3764	648359.016778218658	0
4	3779	652914.150272056192	1
4	3781	652914.150272056192	0
4	3797	659641.584324039686	1
4	3799	659641.584324039686	0
4	3819	662421.025125744067	1
4	3824	662503.132974167622	0
4	3831	663349.270330944268	1
4	3833	663349.270330944268	0
4	3866	672602.729929364512	1
4	3868	672602.729929364512	0
4	3871	672740.791764551833	1
4	3876	672757.866483431525	0
4	3883	676185.993440147363	1
4	3885	676185.993440147363	0
4	3902	684714.686239595847	1
4	3904	684714.686239595847	0
4	3930	697754.901678344324	1
4	3932	697754.901678344324	0
4	3939	700284.958860135251	1
4	3941	700284.958860135251	0
4	3972	702653.967938721099	1
4	3974	702653.967938721099	0
4	3980	702972.188679013939	1
4	3982	702972.188679013939	0
4	3988	704580.321714845081	1
4	3990	704580.321714845081	0
4	4019	708417.925921749836	1
4	4024	708453.514576867311	0
4	4030	708699.77412555375	1
4	4040	709109.32127456506	0
4	4062	710762.993212302677	1
4	4064	710762.993212302677	0
4	4071	711636.67848356288	1
4	4073	711636.67848356288	0
4	4076	711666.312715386466	1
4	4089	712140.361793647249	0
4	4092	712356.372580963175	1
4	4097	712464.498876296524	0
4	4103	712870.841514509372	1
4	4105	712870.841514509372	0
4	4120	716206.697029798594	1
4	4122	716206.697029798594	0
4	4146	720943.693766377648	1
4	4148	720943.693766377648	0
4	4154	721612.110983862209	1
4	4156	721612.110983862209	0
4	4181	731769.237625581405	1
4	4183	731769.237625581405	0
4	4214	734562.985631405074	1
4	4216	734562.985631405074	0
4	4222	734644.857080184169	1
4	4224	734644.857080184169	0
4	4239	735696.360045834066	1
4	4241	735696.360045834066	0
4	4247	736904.426249077529	1
4	4249	736904.426249077529	0
4	4256	739794.783404622497	1
4	4258	739794.783404622497	0
4	4290	745020.729233906071	1
4	4292	745020.729233906071	0
4	4295	745212.485563489749	1
4	4300	745239.964798994931	0
4	4306	746314.865864696879	1
4	4308	746314.865864696879	0
4	4323	749312.314855836931	1
4	4325	749312.314855836931	0
4	4341	753495.69728892345	1
4	4343	753495.69728892345	0
4	4357	754355.958352142549	1
4	4359	754355.958352142549	0
4	4383	761198.58393212806	1
4	4385	761198.58393212806	0
4	4400	762264.347608340587	1
4	4402	762264.347608340587	0
4	4417	765340.805749931832	1
4	4419	765340.805749931832	0
4	4425	765547.147641504984	1
4	4443	766350.834042700349	0
4	4458	768083.017571621376	1
4	4460	768083.017571621376	0
4	4463	768424.644622242652	1
4	4468	768581.014243088193	0
4	4471	768637.502032057151	1
4	4476	768977.221085261659	0
4	4500	776352.291165668979	1
4	4502	776352.291165668979	0
4	4517	778135.704598079246	1
4	4519	778135.704598079246	0
4	4525	779224.634775614507	1
4	4527	779224.634775614507	0
4	4544	788777.504677272555	1
4	4546	788777.504677272555	0
4	4562	793364.13098742087	1
4	4564	793364.13098742087	0
4	4587	795888.441541667286	1
4	4589	795888.441541667286	0
4	4595	796956.226429819281	1
4	4597	796956.226429819281	0
4	4620	799463.838654177336	1
4	4622	799463.838654177336	0
4	4625	799805.742905921027	1
4	4630	799830.301711607865	0
4	4646	805895.751724861159	1
4	4648	805895.751724861159	0
4	4668	809552.723331532657	1
4	4673	809567.542210552656	0
4	4680	810912.785621557413	1
4	4682	810912.785621557413	0
4	4713	815779.1740761415	1
4	4715	815779.1740761415	0
4	4722	816454.557816224017	1
4	4724	816454.557816224017	0
4	4730	818083.768322020259	1
4	4732	818083.768322020259	0
4	4747	820787.657925040948	1
4	4749	820787.657925040948	0
4	4772	824424.042511249466	1
4	4774	824424.042511249466	0
4	4790	830043.074932239468	1
4	4792	830043.074932239468	0
4	4795	830044.444262193474	1
4	4800	830160.207954612279	0
4	4814	830938.524757089987	1
4	4816	830938.524757089987	0
4	4848	835293.327815368782	1
4	4850	835293.327815368782	0
4	4856	835495.560964577765	1
4	4858	835495.560964577765	0
4	4881	837658.935552348082	1
4	4883	837658.935552348082	0
4	4897	839596.131200294894	1
4	4899	839596.131200294894	0
4	4906	840206.566329510102	1
4	4908	840206.566329510102	0
4	4914	840444.542146319305	1
4	4916	840444.542146319305	0
4	4948	847466.017410605415	1
4	4958	847763.194480610941	0
4	4964	848771.541218851127	1
4	4966	848771.541218851127	0
4	4970	849243.16652109296	1
4	4976	849268.117829023201	2
4	4994	849540.521393450568	1
4	4999	850026.324791930598	0
4	5002	850218.640255995398	1
4	5007	850313.170148202729	0
4	5013	851413.710480086667	1
4	5015	851413.710480086667	0
4	5038	852944.588322218746	1
4	5040	852944.588322218746	0
4	5046	854126.323090191843	1
4	5048	854126.323090191843	0
4	5071	857769.778255287895	1
4	5073	857769.778255287895	0
4	5088	860301.919972434749	1
4	5090	860301.919972434749	0
4	5097	862006.54006182113	1
4	5099	862006.54006182113	0
4	5122	866899.733889332142	1
4	5124	866899.733889332142	0
4	5131	868075.516336841723	1
4	5133	868075.516336841723	0
4	5148	870881.595646389816	1
4	5150	870881.595646389816	0
4	5165	873350.519114917682	1
4	5167	873350.519114917682	0
4	5189	875673.861976213108	1
4	5191	875673.861976213108	0
4	5215	880667.616296465094	1
4	5217	880667.616296465094	0
4	5223	880881.263225659234	1
4	5225	880881.263225659234	0
4	5231	881150.968028727876	1
4	5233	881150.968028727876	0
4	5253	882946.927627136626	1
4	5258	882998.824707486341	0
4	5261	883312.020344144416	1
4	5266	883395.814684810746	0
4	5289	886898.210585258213	1
4	5291	886898.210585258213	0
4	5306	888051.438552846722	1
4	5308	888051.438552846722	0
4	5314	888735.013294128806	1
4	5316	888735.013294128806	0
4	5337	895048.329128737658	1
4	5342	895391.868816795737	0
4	5348	895779.570319786087	1
4	5350	895779.570319786087	0
4	5374	901902.708242528297	1
4	5376	901902.708242528297	0
4	5382	902754.15865110528	1
4	5384	902754.15865110528	0
4	5407	905255.571291871593	1
4	5409	905255.571291871593	0
4	5412	905272.141573633078	1
4	5417	905524.092536582092	0
4	5441	909298.967726057202	1
4	5443	909298.967726057202	0
4	5449	911726.779366924981	1
4	5451	911726.779366924981	0
4	5468	920344.442122408355	1
4	5470	920344.442122408355	0
4	5485	922317.324176055651	1
4	5487	922317.324176055651	0
4	5501	923187.556814871818	1
4	5503	923187.556814871818	0
4	5518	925681.526892299829	1
4	5520	925681.526892299829	0
4	5535	928125.963512065964	1
4	5537	928125.963512065964	0
4	5560	932472.297170805592	1
4	5562	932472.297170805592	0
4	5577	935369.626183412524	1
4	5579	935369.626183412524	0
4	5594	938401.049594295025	1
4	5596	938401.049594295025	0
4	5602	938719.992502054038	1
4	5604	938719.992502054038	0
4	5630	950056.215151493178	1
4	5632	950056.215151493178	0
4	5635	950085.501735831669	1
4	5640	950650.411874305958	0
4	5656	956188.693572193204	1
4	5658	956188.693572193204	0
4	5673	957579.886573585893	1
4	5675	957579.886573585893	0
4	5690	960839.733011295534	1
4	5692	960839.733011295534	0
4	5713	966655.217076772317	1
4	5718	967054.613517462205	0
4	5724	967634.490009146005	1
4	5726	967634.490009146005	0
4	5741	970039.842346765101	1
4	5743	970039.842346765101	0
4	5758	972023.428598923673	1
4	5760	972023.428598923673	0
4	5774	973735.85988286598	1
4	5776	973735.85988286598	0
4	5800	979133.247415415842	1
4	5802	979133.247415415842	0
4	5808	979595.519754695141	1
4	5810	979595.519754695141	0
4	5826	985256.996104572645	1
4	5828	985256.996104572645	0
4	5847	999821.435108208079	1
4	5849	999821.435108208079	0
4	5864	1002381.020742454906	1
4	5866	1002381.020742454906	0
4	5887	1008211.574730906072	1
4	5892	1008312.302359726656	0
4	5898	1009491.62922244458	1
4	5900	1009491.62922244458	0
4	5923	1013098.108647492853	1
4	5925	1013098.108647492853	0
4	5933	1017051.808753428305	1
4	5935	1017051.808753428305	0
4	5957	1018491.622643883525	1
4	5959	1018491.622643883525	0
4	5965	1019137.975511746805	1
4	5967	1019137.975511746805	0
4	5990	1021833.070412563315	1
4	5992	1021833.070412563315	0
4	5998	1022129.315717963164	1
4	6000	1022129.315717963164	0
4	6015	1024424.933953971799	1
4	6017	1024424.933953971799	0
5	586	102000	2
5	603	105000	1
5	604	108000	0
5	613	111000	0
5	638	114000	2
5	663	117000	2
5	685	120000	0
5	721	123000	3
5	746	126000	1
5	771	129000	2
5	788	132000	1
5	797	135000	0
5	814	138000	1
5	823	141000	1
5	824	144000	0
5	841	147000	1
5	850	150000	0
5	883	153000	3
5	900	156000	0
5	917	159000	1
5	926	162000	1
5	951	165000	1
5	976	168000	2
5	1017	171000	2
5	1034	174000	2
5	1035	177000	0
5	1052	180000	0
5	1053	183000	0
5	1067	186000	1
5	1095	189000	2
5	1128	192000	2
5	1137	195000	0
5	1154	198000	1
5	1155	201000	0
5	1172	204000	1
5	1173	207000	0
5	1187	210000	1
5	1199	213000	1
5	1208	216000	0
5	1222	219000	1
5	1258	222000	3
5	1296	225000	2
5	1308	228000	0
5	1309	231000	0
5	1310	234000	0
5	1319	237000	1
5	1336	240000	1
5	1361	243000	2
5	1391	246000	1
5	1411	249000	1
5	1420	252000	1
5	1453	255000	2
5	1478	258000	1
5	1487	261000	1
5	1504	264000	1
5	1545	267000	3
5	1570	270000	1
5	1587	273000	1
5	1612	276000	2
5	1645	279000	2
5	1686	282000	2
5	1719	285000	2
5	1744	288000	1
5	1753	291000	1
5	1770	294000	1
5	1792	297000	1
5	1796	300000	0
5	1818	303000	1
5	1835	306000	2
5	1863	309000	2
5	1909	312000	2
5	1945	315000	3
5	1978	318000	2
5	2019	321000	2
5	2028	324000	0
5	2029	327000	0
5	2035	330000	0
5	2047	333000	1
5	2075	336000	2
5	2129	339000	4
5	2191	342000	4
5	2227	345000	2
5	2252	348000	1
5	2261	351000	0
5	2262	354000	0
5	2263	357000	0
5	2280	360000	1
5	2281	363000	0
5	2298	366000	1
5	2323	369000	2
5	2337	372000	0
5	2341	375000	1
5	2350	378000	0
5	2367	381000	1
5	2376	384000	1
5	2385	387000	0
5	2386	390000	0
5	2387	393000	0
5	2388	396000	0
5	2397	399000	1
5	2438	402000	2
5	2439	405000	0
5	2464	408000	2
5	2473	411000	0
5	2474	414000	0
5	2523	417000	3
5	2532	420000	1
5	2541	423000	0
5	2558	426000	1
5	2559	429000	0
5	2576	432000	1
5	2577	435000	0
5	2578	438000	0
5	2592	441000	1
5	2612	444000	2
5	2637	447000	1
5	2646	450000	0
5	2671	453000	2
5	2696	456000	1
5	2697	459000	0
5	2706	462000	1
5	2715	465000	0
5	2732	468000	1
5	2733	471000	0
5	2734	474000	0
5	2759	477000	2
5	2768	480000	0
5	2774	483000	0
5	2799	486000	2
5	2803	489000	0
5	2828	492000	2
5	2837	495000	0
5	2862	498000	2
5	2903	501000	3
5	2941	504000	2
5	2969	507000	1
5	2978	510000	1
5	2995	513000	1
5	3004	516000	0
5	3058	519000	5
5	3086	522000	0
5	3087	525000	0
5	3088	528000	0
5	3113	531000	2
5	3114	534000	0
5	3131	537000	1
5	3140	540000	0
5	3157	543000	1
5	3166	546000	1
5	3167	549000	0
5	3176	552000	0
5	3185	555000	1
5	3194	558000	0
5	3195	561000	0
5	3204	564000	1
5	3213	567000	0
5	3214	570000	0
5	3231	573000	1
5	3232	576000	0
5	3262	579000	2
5	3290	582000	3
5	3339	585000	2
5	3364	588000	1
5	3405	591000	3
5	3414	594000	0
5	3444	597000	2
5	3456	600000	1
5	3462	603000	0
5	3503	606000	3
5	3515	609000	0
5	3532	612000	1
5	3557	615000	2
5	3587	618000	2
5	3599	621000	1
5	3616	624000	1
5	3633	627000	0
5	3634	630000	0
5	3667	633000	3
5	3676	636000	0
5	3701	639000	1
5	3710	642000	1
5	3740	645000	2
5	3760	648000	1
5	3769	651000	0
5	3786	654000	1
5	3795	657000	1
5	3809	660000	0
5	3829	663000	2
5	3838	666000	0
5	3839	669000	0
5	3856	672000	2
5	3881	675000	1
5	3890	678000	0
5	3891	681000	0
5	3892	684000	0
5	3909	687000	1
5	3910	690000	0
5	3911	693000	0
5	3912	696000	0
5	3937	699000	2
5	3970	702000	3
5	3995	705000	0
5	4012	708000	2
5	4066	711000	4
5	4110	714000	1
5	4127	717000	1
5	4141	720000	1
5	4161	723000	1
5	4162	726000	0
5	4163	729000	0
5	4185	732000	2
5	4229	735000	3
5	4254	738000	1
5	4263	741000	0
5	4288	744000	3
5	4310	747000	0
5	4330	750000	1
5	4331	753000	0
5	4364	756000	2
5	4365	759000	0
5	4398	762000	3
5	4415	765000	1
5	4456	768000	3
5	4481	771000	0
5	4482	774000	0
5	4512	777000	2
5	4532	780000	1
5	4533	783000	0
5	4542	786000	1
5	4548	789000	0
5	4557	792000	0
5	4574	795000	1
5	4602	798000	2
5	4635	801000	2
5	4644	804000	1
5	4653	807000	0
5	4678	810000	2
5	4687	813000	0
5	4720	816000	3
5	4742	819000	0
5	4754	822000	1
5	4779	825000	2
5	4780	828000	0
5	4818	831000	2
5	4827	834000	0
5	4871	837000	4
5	4901	840000	2
5	4921	843000	0
5	4930	846000	1
5	4968	849000	3
5	5020	852000	2
5	5053	855000	2
5	5075	858000	2
5	5095	861000	1
5	5112	864000	1
5	5129	867000	1
5	5138	870000	0
5	5160	873000	1
5	5193	876000	3
5	5205	879000	1
5	5238	882000	1
5	5271	885000	2
5	5304	888000	3
5	5321	891000	0
5	5322	894000	0
5	5355	897000	2
5	5372	900000	2
5	5389	903000	0
5	5422	906000	2
5	5439	909000	2
5	5456	912000	0
5	5457	915000	0
5	5466	918000	1
5	5475	921000	0
5	5508	924000	2
5	5530	927000	1
5	5542	930000	1
5	5567	933000	2
5	5584	936000	1
5	5617	939000	2
5	5618	942000	0
5	5619	945000	0
5	5628	948000	1
5	5645	951000	0
5	5646	954000	0
5	5671	957000	2
5	5688	960000	1
5	5697	963000	0
5	5706	966000	0
5	5739	969000	3
5	5756	972000	1
5	5786	975000	1
5	5790	978000	1
5	5815	981000	1
5	5816	984000	0
5	5833	987000	1
5	5834	990000	0
5	5835	993000	0
5	5836	996000	0
5	5845	999000	1
5	5862	1002000	1
5	5871	1005000	0
5	5885	1008000	1
5	5905	1011000	1
5	5930	1014000	2
5	5931	1017000	0
5	5972	1020000	2
5	6005	1023000	2
5	6022	1026000	1
5	6023	1029000	0
5	6024	1032000	0
5	6030	1035000	0
6	586	102000	3
6	603	105000	1
6	604	108000	0
6	613	111000	1
6	638	114000	1
6	663	117000	1
6	685	120000	2
6	721	123000	2
6	746	126000	2
6	771	129000	1
6	788	132000	1
6	797	135000	1
6	814	138000	1
6	823	141000	0
6	824	144000	0
6	841	147000	1
6	850	150000	0
6	883	153000	2
6	900	156000	2
6	917	159000	1
6	926	162000	0
6	951	165000	2
6	976	168000	0
6	1017	171000	4
6	1034	174000	0
6	1035	177000	0
6	1052	180000	2
6	1053	183000	0
6	1067	186000	0
6	1095	189000	2
6	1128	192000	2
6	1137	195000	1
6	1154	198000	1
6	1155	201000	0
6	1172	204000	1
6	1173	207000	0
6	1187	210000	0
6	1199	213000	1
6	1208	216000	1
6	1222	219000	0
6	1258	222000	2
6	1296	225000	2
6	1308	228000	2
6	1309	231000	0
6	1310	234000	0
6	1319	237000	0
6	1336	240000	1
6	1361	243000	1
6	1391	246000	2
6	1411	249000	2
6	1420	252000	0
6	1453	255000	2
6	1478	258000	2
6	1487	261000	0
6	1504	264000	1
6	1545	267000	2
6	1570	270000	2
6	1587	273000	1
6	1612	276000	0
6	1645	279000	3
6	1686	282000	2
6	1719	285000	3
6	1744	288000	2
6	1753	291000	0
6	1770	294000	1
6	1792	297000	1
6	1796	300000	1
6	1818	303000	1
6	1835	306000	0
6	1863	309000	1
6	1909	312000	4
6	1945	315000	2
6	1978	318000	1
6	2019	321000	4
6	2028	324000	1
6	2029	327000	0
6	2035	330000	0
6	2047	333000	1
6	2075	336000	0
6	2129	339000	3
6	2191	342000	4
6	2227	345000	3
6	2252	348000	2
6	2261	351000	1
6	2262	354000	0
6	2263	357000	0
6	2280	360000	1
6	2281	363000	0
6	2298	366000	0
6	2323	369000	2
6	2337	372000	1
6	2341	375000	0
6	2350	378000	1
6	2367	381000	1
6	2376	384000	0
6	2385	387000	1
6	2386	390000	0
6	2387	393000	0
6	2388	396000	0
6	2397	399000	0
6	2438	402000	3
6	2439	405000	0
6	2464	408000	0
6	2473	411000	2
6	2474	414000	0
6	2523	417000	3
6	2532	420000	0
6	2541	423000	1
6	2558	426000	1
6	2559	429000	0
6	2576	432000	1
6	2577	435000	0
6	2578	438000	0
6	2592	441000	0
6	2612	444000	1
6	2637	447000	2
6	2646	450000	1
6	2671	453000	1
6	2696	456000	2
6	2697	459000	0
6	2706	462000	0
6	2715	465000	1
6	2732	468000	1
6	2733	471000	0
6	2734	474000	0
6	2759	477000	1
6	2768	480000	1
6	2774	483000	0
6	2799	486000	1
6	2803	489000	1
6	2828	492000	1
6	2837	495000	1
[...]
6	4512	777000	1
6	4532	780000	2
6	4533	783000	0
6	4542	786000	0
6	4548	789000	0
6	4557	792000	1
6	4574	795000	1
6	4602	798000	2
6	4635	801000	2
6	4644	804000	0
6	4653	807000	1
6	4678	810000	1
6	4687	813000	1
6	4720	816000	1
6	4742	819000	2
6	4754	822000	1
6	4779	825000	1
6	4780	828000	0
6	4818	831000	2
6	4827	834000	1
6	4871	837000	2
6	4901	840000	1
6	4921	843000	3
6	4930	846000	0
6	4968	849000	1
6	5020	852000	4
6	5053	855000	3
6	5075	858000	0
6	5095	861000	2
6	5112	864000	1
6	5129	867000	1
6	5138	870000	1
6	5160	873000	1
6	5193	876000	1
6	5205	879000	1
6	5238	882000	2
6	5271	885000	3
6	5304	888000	1
6	5321	891000	2
6	5322	894000	0
6	5355	897000	2
6	5372	900000	0
6	5389	903000	2
6	5422	906000	2
6	5439	909000	0
6	5456	912000	2
6	5457	915000	0
6	5466	918000	0
6	5475	921000	1
6	5508	924000	2
6	5530	927000	1
6	5542	930000	1
6	5567	933000	1
6	5584	936000	1
6	5617	939000	2
6	5618	942000	0
6	5619	945000	0
6	5628	948000	0
6	5645	951000	2
6	5646	954000	0
6	5671	957000	1
6	5688	960000	1
6	5697	963000	1
6	5706	966000	0
6	5739	969000	2
6	5756	972000	1
6	5786	975000	2
6	5790	978000	0
6	5815	981000	2
6	5816	984000	0
6	5833	987000	1
6	5834	990000	0
6	5835	993000	0
6	5836	996000	0
6	5845	999000	0
6	5862	1002000	1
6	5871	1005000	1
6	5885	1008000	0
6	5905	1011000	2
6	5930	1014000	1
6	5931	1017000	0
6	5972	1020000	3
6	6005	1023000	2
6	6022	1026000	1
6	6023	1029000	0
6	6024	1032000	0
6	6030	1035000	0
7	570	101051.210617186106	0
7	584	101402.894982886798	1
7	592	103294.589659654004	0
7	596	103397.130997620245	1
7	605	109457.407724625859	0
7	620	112456.046126430164	1
7	628	113360.666312391043	2
7	630	113454.124689774017	1
7	639	114305.057493246359	0
7	653	115925.113641337476	1
7	661	116611.13961155522	2
7	664	117323.810698331918	1
7	672	117757.328371843839	0
7	687	120171.605998846207	1
7	695	120637.317465187242	2
7	697	120725.254045599024	1
7	702	120903.468051961772	0
7	719	122782.568893166921	1
7	728	123237.904616391471	2
7	730	123817.116136738908	1
7	738	123949.342751619235	0
7	753	128010.898212217735	1
7	761	128326.332902996601	2
7	763	128712.720619470408	1
7	772	129214.728560016818	0
7	786	131794.844296831786	1
7	789	133000.752302642683	0
7	804	137284.122049407783	1
7	806	137548.89588803388	0
7	821	138699.675273370147	1
7	825	144303.636774350137	0
7	839	146261.462051491201	1
7	847	149857.577587630477	0
7	852	150004.157128559596	1
7	865	151677.593332424653	2
7	867	151701.973596698898	1
7	881	152623.942419351885	2
7	884	153167.937486114477	1
7	892	153882.196754622482	0
7	907	157221.113348896549	1
7	909	157906.351800916543	0
7	924	160190.308654642769	1
7	927	162442.272726850338	0
7	941	163411.074939935386	1
7	943	163576.924544118646	0
7	958	167326.054238560542	1
7	966	167651.306015613522	2
7	968	167658.720133252994	1
7	983	168830.908107378436	2
7	985	168977.96359570933	1
7	990	169331.516133941386	0
7	1007	169976.000443673159	1
7	1009	170459.578473008492	0
7	1024	171132.508193724004	1
7	1032	172405.089219478284	2
7	1036	177042.431792932896	1
7	1041	177093.05083051199	0
7	1060	183536.748168390958	1
7	1062	185775.233164831528	0
7	1077	186630.210674649684	1
7	1085	187936.725045826664	2
7	1087	188016.154382607274	1
7	1096	189118.274253381186	0
7	1110	190887.907751810899	1
7	1117	191371.650851080039	0
7	1121	191667.696176077543	1
7	1129	192151.879835858273	0
7	1144	196145.873380359509	1
7	1146	196861.331132348402	0
7	1162	201197.416558009009	1
7	1164	201342.535806673228	0
7	1180	209209.796592954565	1
7	1182	209941.911815791434	0
7	1197	212794.084131658995	1
7	1200	213073.181940256534	0
7	1215	217869.09692305634	1
7	1224	219070.352354940099	2
7	1226	219450.904250635538	1
7	1240	221186.199050436358	2
7	1248	221690.164115666726	3
7	1250	221785.258030855863	2
7	1259	222174.211256241633	1
7	1264	222392.138694956693	0
7	1281	223094.357913817395	1
7	1288	224578.349169794969	0
7	1292	224864.933500560155	1
7	1300	225173.286976702827	0
7	1317	236728.427034420947	1
7	1326	239342.820165133322	2
7	1328	239675.9179210945	1
7	1337	242000.029321493852	0
7	1354	242587.857935610439	1
7	1359	242613.37477901778	2
7	1362	243127.079930727948	1
7	1376	243236.319682066237	2
7	1378	243291.40243132381	1
7	1386	245757.201324756296	0
7	1401	247179.98663908551	1
7	1403	247565.686068318593	0
7	1418	251373.795408494631	1
7	1430	252923.328132354489	2
7	1434	253115.874649651994	1
7	1438	253202.645934619904	2
7	1445	254412.605930392957	1
7	1454	255155.940776025728	0
7	1468	256176.412416872703	1
7	1470	256814.924513562187	0
7	1485	260107.127742812921	1
7	1494	263478.929071704946	2
7	1496	263737.817196290152	1
7	1511	264905.001932671007	2
7	1513	265262.847297797302	1
7	1527	265926.970892303647	2
7	1535	266357.606784849442	3
7	1537	266845.914005132385	2
7	1546	267380.333802313975	1
7	1551	267432.259474699816	0
7	1568	269720.11263415814	1
7	1571	270086.339942560635	0
7	1585	272322.515525731485	1
7	1597	274782.494939868803	2
7	1601	275812.236884507925	1
7	1605	275850.843275265547	2
7	1619	276043.364011177215	3
7	1621	276385.904382521555	2
7	1634	278251.648999159943	1
7	1638	278458.305754371397	2
7	1646	279491.56435360136	1
7	1663	280400.447256196756	2
7	1668	280731.41724596669	3
7	1670	280934.872048725003	2
7	1688	282605.175151515514	3
7	1693	282637.553391997294	4
7	1695	282806.489867017782	3
7	1703	283247.406935876302	2
7	1711	284497.366352695658	1
7	1720	285198.179660793117	0
7	1734	286360.94154079447	1
7	1736	287197.117891519375	0
7	1751	289763.702888361597	1
7	1754	291457.279225032769	0
7	1768	293819.215107700664	1
7	1771	294585.827217221903	0
7	1785	296662.351864891304	1
7	1787	296863.647092877649	0
7	1803	300276.814814618558	1
7	1805	301960.502353254386	0
7	1820	303041.263341168231	1
7	1828	303674.99049604375	2
7	1837	306216.36043059995	3
7	1839	306348.765525105238	2
7	1853	308551.018339632552	3
7	1860	308668.935189692814	2
7	1865	309048.853715885763	3
7	1878	310352.908872243449	4
7	1880	310859.732943525428	3
7	1885	310908.183012915906	2
7	1896	311215.577759581246	1
7	1901	311440.545540832472	0
7	1919	313256.859853606496	1
7	1926	313828.370908646662	0
7	1930	313939.207444853832	1
7	1943	314654.911610436143	2
7	1954	315769.939484679158	1
7	1958	316263.670916794379	2
7	1963	316320.247611523961	3
7	1970	317500.827049635086	2
7	1975	317619.101820537602	1
7	1988	318386.816504444409	2
7	2001	319149.199361933752	3
7	2003	319538.825808987648	2
7	2011	320615.143853111835	1
7	2020	322175.820327889326	0
7	2037	331666.355202240025	1
7	2039	332442.861978412687	0
7	2054	334832.909015319008	1
7	2062	335297.689646855922	2
7	2072	335988.474614993302	1
7	2077	336086.811980184189	2
7	2082	336087.68431346826	3
7	2095	336657.310860114293	4
7	2097	336828.897886435319	3
7	2105	337913.88046376363	2
7	2110	338119.748433055173	1
7	2125	338586.680691706374	2
7	2131	339429.870322373712	3
7	2146	340057.390673211236	2
7	2150	340112.968907823413	3
7	2154	340160.636620154666	2
7	2158	340213.839653187566	3
7	2170	340899.922397271397	2
7	2183	341785.72179664814	1
7	2187	341828.188397335491	2
7	2192	342251.483702809708	1
7	2200	342523.383752834544	0
7	2220	344912.076159322818	1
7	2225	344980.607052595762	2
7	2228	345086.651128460976	1
7	2233	345132.948690453219	0
7	2250	347047.159810730374	1
7	2253	349124.045732770343	0
7	2270	357964.33355070931	1
7	2272	358090.749766803103	0
7	2288	364194.325587196862	1
7	2290	365401.109629378439	0
7	2305	366396.106463828639	1
7	2313	367387.607583183994	2
7	2315	368427.144520230446	1
7	2324	369393.002184906083	0
7	2339	372110.952881106449	1
7	2342	375938.091155703938	0
7	2357	379424.628712509831	1
7	2359	379573.033810516026	0
7	2374	383138.76427115924	1
7	2377	384339.207287669769	0
7	2395	396838.982719911307	1
7	2404	399437.813514020788	2
7	2412	400341.626118160275	3
7	2414	400733.584301719008	2
7	2422	400787.447050723146	1
7	2430	400956.580549061008	0
7	2446	405721.691932829613	1
7	2453	407634.292615908141	0
7	2457	407712.646892745224	1
7	2461	407762.592212879126	0
7	2481	414995.872701274896	1
7	2492	415663.277643265319	2
7	2497	415733.565838476085	3
7	2499	415981.2414164377	2
7	2504	416048.012060276305	1
7	2515	416782.556281654441	0
7	2530	417848.945345990254	1
7	2533	420055.980342895963	0
7	2548	423828.917060714649	1
7	2550	424422.451932623418	0
7	2566	429499.480099170019	1
7	2568	429688.033733414759	0
7	2585	439838.536325046364	1
7	2587	440938.821696299264	0
7	2602	442222.169757548222	1
7	2610	443426.78916030478	2
7	2613	444147.993720702884	1
7	2621	446474.188474073669	0
7	2635	446945.931613339706	1
7	2638	449118.419230278763	0
7	2653	450610.242205981896	1
7	2661	451396.992699942702	2
7	2663	451582.990169424614	1
7	2672	454579.908606599514	0
7	2686	455442.344170515579	1
7	2688	455500.334014442063	0
7	2704	459501.103932437123	1
7	2707	462128.725500897384	0
7	2722	465998.767788198581	1
7	2724	467203.708736966642	0
7	2741	474543.124837482459	1
7	2743	476128.593255906134	0
7	2757	476892.762397734382	1
7	2760	477442.312549710834	0
7	2776	483105.294727650284	1
7	2784	485038.601247166591	2
7	2786	485397.693499716411	1
7	2794	485820.287724561825	0
7	2813	490623.088849634121	1
7	2818	490904.273411284451	2
7	2820	491587.657516544069	1
7	2829	492497.179394858559	0
7	2844	495651.707434033223	1
7	2846	497057.260776287613	0
7	2860	497689.175690030035	1
7	2869	499073.005667170817	2
7	2871	499223.884014093827	1
7	2885	499987.178984318344	2
7	2893	500238.653858381558	3
7	2895	500810.638079965158	2
7	2900	500869.389701373141	1
7	2904	501039.087926140117	0
7	2916	502402.473207478701	1
7	2934	502623.937430756154	2
7	2936	503953.213923586175	1
7	2942	504136.804839240583	0
7	2959	505047.636340292551	1
7	2961	505202.650949831179	0
7	2976	508164.592395659464	1
7	2985	512473.62772738069	2
7	2987	512503.773735086242	1
7	2996	513870.157687240358	0
7	3017	517052.023760105095	1
7	3022	517114.680942377108	2
7	3027	517456.044458170142	3
7	3029	517665.867182761438	2
7	3046	518287.876140977762	3
7	3051	518351.849203494389	4
7	3053	518693.819690070639	3
7	3062	519110.51108266379	2
7	3067	519241.008618254351	1
7	3078	521540.193133869012	0
7	3095	528562.835563179592	1
7	3097	528993.064605815827	0
7	3111	530543.673239658503	1
7	3115	535214.552311502421	0
7	3129	536921.958243485161	1
7	3132	537641.012196680591	0
7	3147	542260.669849987445	1
7	3149	542531.07559240471	0
7	3164	545321.986236879274	1
7	3168	549835.205287609418	0
7	3183	552830.337195770954	1
7	3186	555796.501211096234	0
7	3202	561924.968089718294	1
7	3205	564433.781634114725	0
7	3221	571268.010817750206	1
7	3223	572122.396438725941	0
7	3239	576128.578503455874	1
7	3241	577353.440026988414	0
7	3255	578214.097938590821	1
7	3264	579208.215320257128	2
7	3272	579955.815052005058	3
7	3279	580331.221246893845	2
7	3283	580644.905090474345	3
7	3297	582069.001917564902	4
7	3305	582731.410986812871	5
7	3307	582989.276829817107	4
7	3315	583690.647101251989	3
7	3320	583813.09358689868	2
7	3328	584158.481196493994	1
7	3340	586460.91228799951	0
7	3354	587797.350267885108	1
7	3361	587961.826051139739	0
7	3369	588615.419750084628	1
7	3374	588799.976573245031	2
7	3386	589370.852617560149	1
7	3390	589494.176743891583	2
7	3397	590255.225625286062	1
7	3406	592008.139186050999	0
7	3421	594887.297097785499	1
7	3423	595285.224868797803	0
7	3437	596749.106988588722	1
7	3439	596921.137125975488	0
7	3454	598119.797817879106	1
7	3463	603062.040884816424	0
7	3467	603315.9862172884	1
7	3480	604046.23710420752	2
7	3487	604567.678222193807	1
7	3491	604694.169357846967	2
7	3498	605300.502037575219	1
7	3507	606933.648495704671	0
7	3522	609230.906945211227	1
7	3524	609926.578668819382	0
7	3539	613600.37911965045	1
7	3541	614335.767027734927	0
7	3555	614918.529487705645	1
7	3564	615372.03004305222	2
7	3572	617002.867209069874	3
7	3574	617394.30570521366	2
7	3579	617422.669551848326	1
7	3597	619490.833154203961	2
7	3600	621223.356944574909	1
7	3614	622096.401898910716	2
7	3617	624796.967356483991	1
7	3625	626276.929309590292	0
7	3641	630507.261543591025	1
7	3643	630794.985790122346	0
7	3660	631689.047373051361	1
7	3665	631846.180192382519	2
7	3668	633950.340085315718	1
7	3683	636409.984013476294	2
7	3685	636806.911264715093	1
7	3693	638181.547502635333	0
7	3708	639881.237084961796	1
7	3717	642630.929690365318	2
7	3724	643538.888931831992	1
7	3728	643749.791225446294	2
7	3735	644878.940261425943	1
7	3744	645260.926193753373	0
7	3758	647943.369425696769	1
7	3761	648359.016778218658	0
7	3776	652441.144633846019	1
7	3778	652914.150272056192	0
7	3793	656360.747123323445	1
7	3796	659641.584324039686	0
7	3811	660275.307565593193	1
7	3818	662421.025125744067	0
7	3822	662503.132974167622	1
7	3830	663349.270330944268	0
7	3846	670473.251703634255	1
7	3854	670952.389109169072	2
7	3863	672412.344011000521	3
7	3865	672602.729929364512	2
7	3870	672740.791764551833	1
7	3882	676185.993440147363	0
7	3899	684319.643083366245	1
7	3901	684714.686239595847	0
7	3919	697003.072351323944	1
7	3927	697721.631525886202	2
7	3929	697754.901678344324	1
7	3938	700284.958860135251	0
7	3955	701636.709575560849	1
7	3963	701922.181120767439	2
7	3968	701927.028962089455	3
7	3971	702653.967938721099	2
7	3979	702972.188679013939	1
7	3987	704580.321714845081	0
7	4005	706722.112955867388	1
7	4010	706769.547520251901	2
7	4018	708417.925921749836	1
7	4022	708453.514576867311	2
7	4029	708699.77412555375	1
7	4038	709109.32127456506	2
7	4054	710571.753882929859	3
7	4059	710703.969331876296	4
7	4061	710762.993212302677	3
7	4070	711636.67848356288	2
7	4075	711666.312715386466	1
7	4087	712140.361793647249	2
7	4091	712356.372580963175	1
7	4102	712870.841514509372	0
7	4117	716148.163309634847	1
7	4119	716206.697029798594	0
7	4134	719974.086745767846	1
7	4143	720062.599295156072	2
7	4145	720943.693766377648	1
7	4153	721612.110983862209	0
7	4170	729574.830304311111	1
7	4178	731425.545168836374	2
7	4180	731769.237625581405	1
7	4198	733545.737733406695	2
7	4203	733772.494679935959	3
7	4211	734046.223847767876	4
7	4213	734562.985631405074	3
7	4221	734644.857080184169	2
7	4236	735266.683032570597	3
7	4238	735696.360045834066	2
7	4246	736904.426249077529	1
7	4255	739794.783404622497	0
7	4270	742330.348556808995	1
7	4281	743853.945719330465	2
7	4286	743899.875680616132	3
7	4289	745020.729233906071	2
7	4294	745212.485563489749	1
7	4305	746314.865864696879	0
7	4320	748886.558224901943	1
7	4322	749312.314855836931	0
7	4338	753102.13145838607	1
7	4340	753495.69728892345	0
7	4354	754153.771764680468	1
7	4356	754355.958352142549	0
7	4375	760334.940157563302	1
7	4380	760530.856741541464	2
7	4382	761198.58393212806	1
7	4396	761883.019172164241	2
7	4399	762264.347608340587	1
7	4413	764874.410576004897	2
7	4416	765340.805749931832	1
7	4424	765547.147641504984	0
7	4436	765796.538056526833	1
7	4441	766350.834042700349	2
7	4454	767771.27307512142	3
7	4457	768083.017571621376	2
7	4462	768424.644622242652	1
7	4470	768637.502032057151	0
7	4492	775057.98599237523	1
7	4497	776318.688731567484	2
7	4499	776352.291165668979	1
7	4514	777702.21518898396	2
7	4516	778135.704598079246	1
7	4524	779224.634775614507	0
7	4540	784966.536031693832	1
7	4543	788777.504677272555	0
7	4559	792004.099033725606	1
7	4561	793364.13098742087	0
7	4579	795359.251368319601	1
7	4584	795788.101939584054	2
7	4586	795888.441541667286	1
7	4594	796956.226429819281	0
7	4609	798990.221506330125	1
7	4617	799248.097120749549	2
7	4619	799463.838654177336	1
7	4624	799805.742905921027	0
7	4642	803568.207245946561	1
7	4645	805895.751724861159	0
7	4663	809369.250362683958	1
7	4667	809552.723331532657	0
7	4671	809567.542210552656	1
7	4679	810912.785621557413	0
7	4694	814349.622009321378	1
7	4705	815260.845917257204	2
7	4710	815277.581603259851	3
7	4712	815779.1740761415	2
7	4721	816454.557816224017	1
7	4729	818083.768322020259	0
7	4744	819065.703453955232	1
7	4746	820787.657925040948	0
7	4761	822661.048217153463	1
7	4769	824413.413497197392	2
7	4771	824424.042511249466	1
7	4787	829514.50557607782	2
7	4789	830043.074932239468	1
7	4794	830044.444262193474	0
7	4811	830900.338407234288	1
7	4813	830938.524757089987	0
7	4829	834048.717934736794	1
7	4840	834531.44586395637	2
7	4845	834917.4617948457	3
7	4847	835293.327815368782	2
7	4855	835495.560964577765	1
7	4869	836374.291703225314	2
7	4878	837433.049516157034	3
7	4880	837658.935552348082	2
7	4894	838702.853187279707	3
7	4896	839596.131200294894	2
7	4905	840206.566329510102	1
7	4913	840444.542146319305	0
7	4928	844131.200151578801	1
7	4937	847132.628514381344	2
7	4947	847466.017410605415	1
7	4951	847613.805776268804	2
7	4956	847763.194480610941	3
7	4963	848771.541218851127	2
7	4969	849243.16652109296	1
7	4975	849268.117829023201	0
7	4987	849532.532854559931	1
7	4992	849540.521393450568	2
7	5001	850218.640255995398	1
7	5012	851413.710480086667	0
7	5030	852571.210429939852	1
7	5035	852654.971492247334	2
7	5037	852944.588322218746	1
7	5045	854126.323090191843	0
7	5063	856857.600021437993	1
7	5068	857021.596651822738	2
7	5070	857769.778255287895	1
7	5085	859648.928846114711	2
7	5087	860301.919972434749	1
7	5096	862006.54006182113	0
7	5110	863237.372125585068	1
7	5119	866689.327516758031	2
7	5121	866899.733889332142	1
7	5130	868075.516336841723	0
7	5145	870530.551811120074	1
7	5147	870881.595646389816	0
7	5162	873016.126825418866	1
7	5164	873350.519114917682	0
7	5178	874234.643922902313	1
7	5186	875561.809636070788	2
7	5188	875673.861976213108	1
7	5203	876730.529241959232	2
7	5212	880371.430102964006	3
7	5214	880667.616296465094	2
7	5222	880881.263225659234	1
7	5230	881150.968028727876	0
7	5248	882825.828547985107	1
7	5252	882946.927627136626	0
7	5256	882998.824707486341	1
7	5260	883312.020344144416	0
7	5278	885452.119985508832	1
7	5286	886748.520995212962	2
7	5288	886898.210585258213	1
7	5302	887235.716487889847	2
7	5305	888051.438552846722	1
7	5313	888735.013294128806	0
7	5329	894435.056205264287	1
7	5336	895048.329128737658	0
7	5340	895391.868816795737	1
7	5347	895779.570319786087	0
7	5362	898346.129782122862	1
7	5370	898734.491119208502	2
7	5373	901902.708242528297	1
7	5381	902754.15865110528	0
7	5396	903288.15930439763	1
7	5404	904156.674467820521	2
7	5406	905255.571291871593	1
7	5411	905272.141573633078	0
7	5429	907355.129908599908	1
7	5437	907703.736945984782	2
7	5440	909298.967726057202	1
7	5448	911726.779366924981	0
7	5464	916800.569884315393	1
7	5467	920344.442122408355	0
7	5482	922298.405244674637	1
7	5484	922317.324176055651	0
7	5498	922453.858763405069	1
7	5500	923187.556814871818	0
7	5515	924615.787337757931	1
7	5517	925681.526892299829	0
7	5532	927198.19419750484	1
7	5534	928125.963512065964	0
7	5549	930581.964725270219	1
7	5557	931606.132753057584	2
7	5559	932472.297170805592	1
7	5574	933941.158171616225	2
7	5576	935369.626183412524	1
7	5591	937809.175939884622	2
7	5593	938401.049594295025	1
7	5601	938719.992502054038	0
7	5615	938967.137188026123	1
7	5626	945644.821982192074	2
7	5629	950056.215151493178	1
7	5634	950085.501735831669	0
7	5653	954795.546092384588	1
7	5655	956188.693572193204	0
7	5669	956771.060272463089	1
7	5672	957579.886573585893	0
7	5686	959393.141183151039	1
7	5689	960839.733011295534	0
7	5708	966032.718635573524	1
7	5712	966655.217076772317	0
7	5716	967054.613517462205	1
7	5723	967634.490009146005	0
7	5737	968218.099657210934	1
7	5740	970039.842346765101	0
7	5754	971371.01126146356	1
7	5757	972023.428598923673	0
7	5771	973295.025966369422	1
7	5773	973735.85988286598	0
7	5788	975203.415015833905	1
7	5797	979074.629793289844	2
7	5799	979133.247415415842	1
7	5807	979595.519754695141	0
7	5823	985159.715974189273	1
7	5825	985256.996104572645	0
7	5843	996338.056517430132	1
7	5846	999821.435108208079	0
7	5860	1001292.145912593352	1
7	5863	1002381.020742454906	0
7	5878	1007038.325588142565	1
7	5886	1008211.574730906072	0
7	5890	1008312.302359726656	1
7	5897	1009491.62922244458	0
7	5912	1012266.055953383943	1
7	5920	1013097.549006001734	2
7	5922	1013098.108647492853	1
7	5932	1017051.808753428305	0
7	5949	1018072.488865370666	1
7	5954	1018213.8215874454	2
7	5956	1018491.622643883525	1
7	5964	1019137.975511746805	0
7	5982	1021459.622631412331	1
7	5987	1021499.452358292755	2
7	5989	1021833.070412563315	1
7	5997	1022129.315717963164	0
7	6012	1024276.345911352205	1
7	6014	1024424.933953971799	0
7	6032	1035042.759940963596	1
