version 2
run ParkingMeasurement-143-20170108-17:31:02-5614
attr configname ParkingMeasurement
attr datetime 20170108-17:31:02
attr experiment ParkingMeasurement
attr inifile parkingStudy.ini
attr iterationvars ""
attr iterationvars2 $repetition=143
attr measurement ""
attr network controltower.SimNetwork
attr processid 5614
attr repetition 143
attr replication #143
attr resultdir results
attr runnumber 143
attr seedset 143
param SimNetwork.a.parkingLot.parkingDelay exponential(30min)
param SimNetwork.a.runway.landingTime exponential(5min)
param SimNetwork.a.runway.takeoffTime exponential(5min)
param SimNetwork.a.runway.throughputCheckInterval 50min
param SimNetwork.wg.interArrivalTime exponential(50min)

vector 5  SimNetwork.a.runway  landedThroughput:vector  ETV
attr source  landedThroughputSignal
vector 6  SimNetwork.a.runway  tookoffThroughput:vector  ETV
attr source  tookoffThroughputSignal
vector 2  SimNetwork.a.landingQueue  queueLength:vector  ETV
attr source  queueLengthSignal
vector 1  SimNetwork.a.landingQueue  queueTime:vector  ETV
attr source  queueTimeSignal
vector 7  SimNetwork.a.parkingLot  parkingOccupancy:vector  ETV
attr source  parkingOccupancy
vector 4  SimNetwork.a.takeoffQueue  queueLength:vector  ETV
attr source  queueLengthSignal
vector 3  SimNetwork.a.takeoffQueue  queueTime:vector  ETV
attr source  queueTimeSignal
vector 0  SimNetwork.wg  responseTime:vector  ETV
attr source  responseTimeSignal
0	523	108647.902166280939	8693.0446858651
0	531	109880.637182554656	5069.360020848
0	550	119801.746761521312	12305.32396178
0	578	120717.092866036524	853.92835179955
0	586	120984.871271956948	2801.4790464544
0	599	122971.501488754989	2970.9068684751
0	616	125654.967449948135	4686.6944796421
0	633	127212.793459454925	3007.6340120904
0	651	132984.48626758349	6772.2434390304
0	676	135996.135661514012	4541.5111318373
0	684	137321.2133649875	4271.3152554873
0	701	138339.015874770098	2946.6868379333
0	726	143567.700423357036	2534.1516423108
0	735	145313.454600432068	7741.5617566757
0	752	147195.230507736931	5807.2859862442
0	768	149679.077930967585	3966.6462151888
0	787	156979.721505762109	8513.6863194851
0	807	160163.110898053993	3910.0344894145
0	821	162885.287165077295	3679.9240397362
0	838	165460.910868512177	5529.6974078885
0	857	175315.408937682617	11302.259445192
0	903	183101.087841575385	10039.647280792
0	908	183161.512297876689	2887.3901511376
0	919	183866.050397014985	2113.9547629866
0	948	185739.510314742571	3231.0969986725
0	957	186542.945180575832	2375.9518152589
0	965	187359.458203044055	5823.1974477633
0	981	188014.967046319443	4253.2701577416
0	989	188316.794226113544	3899.8280924195
0	1006	191449.933500961879	3749.1545093533
0	1024	196925.190550355417	7219.0878243926
0	1072	203213.289119191871	5631.1280414624
0	1077	203297.245754119885	5130.7059615471
0	1082	203343.382540676964	10905.81942647
0	1114	208568.257676451251	9690.8230864696
0	1124	208588.430977270275	1881.4340140623
0	1132	208733.106659521309	1682.4047243144
0	1144	210396.510925224718	10106.000408444
0	1157	211545.033142466318	3404.1443692257
0	1186	216015.075219934801	2507.6325495518
0	1191	216246.823869606008	5960.6076220995
0	1215	218775.222345929333	4897.5197177522
0	1227	220478.536809961832	3838.3715907901
0	1249	223041.766286438533	5002.3250305464
0	1266	225359.267356486149	5226.5827642164
0	1274	227644.154822756919	5436.53378071
0	1295	231063.960135693752	6618.9424344853
0	1308	231868.837252743082	1191.9158969621
0	1352	236009.411026706449	3967.8813149817
0	1366	236801.041700088591	3306.0541853235
0	1385	237587.278087129824	6539.5298010461
0	1390	237683.113613926052	3045.7403443642
0	1401	238343.608749248617	2293.7547105172
0	1406	238432.450280933553	5785.6704539055
0	1443	245273.534426380686	2034.1983166714
0	1452	246183.133938524478	2421.752501247
0	1457	246437.10289268517	10240.650131283
0	1473	248526.133139971851	4567.0993650804
0	1517	258767.366101601882	2924.7920431646
0	1525	258861.060791408354	10727.525766451
0	1533	259465.186968476667	2321.3039201215
0	1549	260969.835861497066	2791.5158403601
0	1558	263492.563710433633	5069.3356273951
0	1576	267050.392476691453	7367.350798516
0	1597	273635.641540436619	9470.6750628114
0	1611	276460.965930263707	4536.3873353881
0	1652	281655.516050821128	2440.3195301577
0	1660	281945.758984984805	2448.7848482607
0	1677	282953.074762720154	9601.8845460167
0	1685	283753.980939032781	3376.8532343025
0	1694	285000.976983800821	4857.5421888996
0	1725	306899.847157749631	6227.8193300924
0	1733	308979.190586591766	26754.663295474
0	1764	309941.368721440016	925.81993844791
0	1777	310602.883152191423	7035.1499532858
0	1785	310670.369402064358	1623.6977770262
0	1808	315713.235389306296	5068.695877162
0	1816	316906.894690725721	7544.8737512591
0	1833	320964.67381617906	8332.0328841913
0	1870	326657.410154705186	6759.9135519085
0	1876	327039.330094912368	4952.9382433298
0	1895	328619.155038337665	5163.9208265309
0	1900	329158.775170838387	3242.5977745259
0	1919	336890.841742119927	9584.6557092853
0	1936	341417.234180804998	5980.0913512458
0	1957	347620.265304307751	7968.8334648285
0	1972	352209.606573203455	5311.0907585767
0	1997	355307.089146645435	8154.8013313147
0	2014	357708.050655388462	4236.5999684685
0	2022	359961.015430125796	5052.8800742702
0	2055	362643.952369717647	2319.723587832
0	2064	363497.147671238758	2412.6719555962
0	2072	363957.783104146678	6418.9536701928
0	2090	371378.437133106065	9991.2054303135
0	2126	382933.688510635563	13447.0825657
0	2134	383515.998859120402	6150.5251336947
0	2143	384445.033551055723	3374.9414692955
0	2176	388745.615996699001	2753.5727661654
0	2184	389232.359519291606	1962.9396139005
0	2201	390409.696173854166	8414.685138378
0	2220	391928.604216166387	1759.1940032906
0	2225	392809.273604676575	5505.7213308885
0	2242	393870.393814268873	2830.0264284661
0	2260	399069.968521842222	6077.1551391203
0	2286	406073.399875522089	9355.920184873
0	2303	408348.194433733429	4289.1573082797
0	2319	409534.327094654497	6566.4331155539
0	2335	410177.008065352052	2700.3600616599
0	2361	414285.029272633266	5510.1812892646
0	2369	414555.335150783288	1555.2865262308
0	2377	414976.992422513073	5185.9369204667
0	2403	421629.706346170013	7738.675539496
0	2412	424143.882757860235	4824.4485571742
0	2429	426519.463233328745	5740.0325941561
0	2447	433544.854113100155	8369.0211378237
0	2464	435877.495714353161	7859.9396255084
0	2493	441035.397530576034	7225.0973363978
0	2498	441147.062834599092	2550.1854733459
0	2525	456799.659485132752	16771.577722626
0	2559	458218.100369100552	2034.9473282159
0	2568	460217.412928730667	6760.7877145927
0	2579	461201.566513331401	3526.9918462019
0	2592	461806.300445714854	5498.6613515431
0	2601	462326.658732301606	4237.9625921001
0	2617	464331.975256820137	3404.3448665048
0	2635	468121.270202176869	5259.3525010613
0	2670	477359.657525064573	9631.9979201979
0	2678	479200.4622696716	3764.4743151986
0	2687	481382.954791398144	7045.5000977897
0	2704	483228.546263835952	6909.3146778163
0	2720	484475.629008138272	1694.7634239145
0	2736	485565.314954092528	2053.0280088452
0	2778	495918.17901569283	11164.297559491
0	2786	496325.618298364246	1936.5463959073
0	2796	496712.942634826668	3119.6624139997
0	2805	498292.314604284487	3812.0478164928
0	2832	507215.461158197327	7289.4373178582
0	2840	507501.049778504427	11220.662609574
0	2857	511852.312165940971	8056.1116795725
0	2884	520235.263638889371	11316.115357626
0	2900	521038.877658202649	2222.3355232925
0	2909	522025.291384668304	6526.8649322442
0	2933	523537.277211790398	2914.927388863
0	2942	525488.153240808413	2771.8482132533
0	2958	527192.443561357582	4112.9747182829
0	2998	531283.613643455145	5506.0011262389
0	3008	531599.758789481769	2358.1057859399
0	3016	532675.231851646481	2079.2727534249
0	3024	533551.615606561391	4099.8568891348
0	3041	536231.272530720408	5174.6621394014
0	3058	539821.792024260662	5869.2152238111
0	3113	542625.551041798499	2245.2275452207
0	3118	542791.078777392783	2241.9389292929
0	3123	542851.88048186967	5085.3873923428
0	3132	543255.848417472363	2334.7142201036
0	3140	543741.275461752183	2663.5432296666
0	3158	551016.42567314135	9143.0613038514
0	3184	557984.980022188026	7757.4738222683
0	3206	564720.564710607618	8668.2961765112
0	3211	564754.160867721483	7491.6039641016
0	3227	566357.389175929217	2836.9144784008
0	3245	572513.208638962934	7178.4049864967
0	3263	577634.188461101978	6363.8104630934
0	3281	582326.943783913929	6160.1662323752
0	3297	584303.222390337243	3889.6133597292
0	3323	589253.246637719375	5362.7088089349
0	3339	590150.041339772153	5592.1449998403
0	3356	591516.316403413176	7176.6218550501
0	3364	592335.510613616217	2559.6317299087
0	3390	597722.739960951517	7445.572083344
0	3398	598680.79144613268	5150.0460538842
0	3423	601461.580205947036	982.93899164805
0	3440	603716.063822077369	3024.9517448314
0	3456	604321.661747804347	1649.9914582745
0	3464	604850.772527273743	8814.2278460594
0	3490	610014.604474202106	5991.2888201873
0	3499	614886.080715590752	7402.8603210368
0	3524	616648.157974644477	8749.5520248448
0	3532	617675.772209708252	2283.0211138954
0	3553	630050.269111385051	14155.45833028
0	3581	635435.66742476562	6947.3563374587
0	3586	635678.547324002619	2006.6219949701
0	3606	647008.603283177075	12592.664919388
0	3623	649946.991154471878	4297.3650548726
0	3640	653459.293937835138	4750.0874617032
0	3659	661582.271726892988	9460.7001337218
0	3686	670619.887335347324	10360.32532513
0	3696	675010.057758098639	10390.132656097
0	3715	685496.650996975025	18935.438920835
0	3762	696965.027635240313	5749.8419985052
0	3767	697131.251904743135	15182.042619578
0	3775	698134.424485354211	5803.6906930751
0	3792	699248.012660733868	3410.8105925893
0	3800	700181.647991948251	3949.4298064859
0	3817	704567.725546352186	5787.455061437
0	3837	714300.104598170949	10183.157304982
0	3855	720754.17218819006	6811.617073401
0	3871	722684.847512886181	4563.2564424982
0	3901	740031.981592346337	18512.554999601
0	3909	740863.415273914921	1904.9991020716
0	3959	750224.956172969409	2758.3425276537
0	3980	750898.53064300945	11732.93522171
0	3991	751149.407230689971	2099.1991028817
0	3996	751203.953328648813	3985.1693315135
0	4001	751341.467105696179	1298.3766846779
0	4026	755199.787629691202	7089.1179107638
0	4034	755427.55992207333	5341.3622836178
0	4049	756166.727655689885	4096.0815523436
0	4067	756779.23939258461	3599.0848949703
0	4076	759838.22049750142	3925.5262236015
0	4096	773504.431296014964	17564.302229276
0	4114	778016.277978118587	6534.5753433866
0	4139	780892.061655447054	2264.9094213237
0	4147	782501.715386487308	5065.1554624843
0	4172	784504.51053578816	5824.4575152893
0	4180	785147.649639873291	1668.4456297113
0	4197	788176.659050978446	4413.5538277375
0	4217	790839.339520635415	3092.5682982296
0	4231	792051.118869194609	3393.7469187759
0	4256	796376.42512875091	966.13024836867
0	4264	796928.544821068376	6535.0764973769
0	4290	803538.529613369059	8083.5676066654
0	4299	805742.564395972989	3409.1406206317
0	4324	809867.912906997259	2499.1921590518
0	4334	814316.940400934897	11104.19080724
0	4352	819813.630474578991	11965.064423895
0	4369	824305.708102105623	5901.5457952989
0	4396	832837.563808934526	10225.440953141
0	4404	833758.338119716846	1755.7993709402
0	4429	836721.158863789928	4492.2423954323
0	4438	837025.766077907455	1597.796572684
0	4454	838579.550526763407	2482.9712139848
0	4471	842881.255411070745	5325.2050083619
0	4493	859190.910821394216	17387.245926998
0	4509	859750.631851243258	1376.9262932067
0	4534	863081.736013593332	3702.827133728
0	4543	865149.018484237574	4674.9657568606
0	4563	877369.302372415106	16484.999233187
0	4592	882767.25447017664	7083.624309442
0	4605	884801.221003099347	3603.7212471711
0	4622	885608.940769897497	3378.8944018503
0	4630	885852.981853934191	3384.778034959
0	4651	892523.993529201594	7709.7517123551
0	4664	893107.971791621825	2108.3256727532
0	4682	899450.713244602822	7421.927198681
0	4699	901580.984216575369	4552.5052677759
0	4716	903797.489241443369	3788.7198953278
0	4752	908836.374506648308	2702.8614809964
0	4758	909107.300289727026	7288.2435509572
0	4774	910843.6914525806	7028.8002831607
0	4783	912036.404678218446	5545.1012371815
0	4799	912274.128862464429	2429.00021197
0	4816	916827.482752349836	4712.7409202147
0	4838	933809.515724973501	19544.836784218
0	4855	937601.214610860418	5964.0882367494
0	4892	944801.021282306109	1475.2599154353
0	4898	945103.200723764511	8610.0569100963
0	4906	946196.927939593791	2961.963912608
0	4933	954255.394130476348	10662.548579257
0	4941	954361.966242214064	1060.059595502
0	4959	960500.153632557338	7070.5114480749
0	4975	962953.987113635968	4331.4016624791
0	4993	966966.403826655182	4903.6567092869
0	5019	972086.444853204536	6409.7395481518
0	5027	973320.574409387432	2313.5774864334
0	5055	986141.451035839961	3427.0763230068
0	5063	986665.117644299099	15263.865821412
0	5082	993453.727281315334	8967.4484309611
0	5099	997543.710034374259	4470.3352826086
0	5136	1013868.64115857349	1660.5293575225
0	5145	1014759.624315075923	4523.2698994625
0	5161	1016070.182529331752	19170.016289464
0	5186	1018174.991994351344	5957.2263448538
0	5194	1018548.792243363696	2950.9057842424
0	5206	1020656.957447251997	3105.6944801071
0	5220	1024576.104037033413	6889.6675377323
0	5238	1031092.0071250392	10481.686198712
0	5264	1036578.979062927699	10119.450856509
1	502	104811.277161706682	0
1	511	107496.422799741279	0
1	539	118183.392225502499	0
1	555	119863.164514236971	0
1	564	120026.513375642759	25.918755362844
1	588	120984.871271956948	16.598301650892
1	605	124205.159447364483	0
1	622	126212.242828553118	0
1	639	131454.624529676756	0
1	656	133049.898109500188	0
1	665	135392.329036836749	0
1	689	137571.892843756391	0
1	707	141033.548781046192	0
1	715	141387.944521492778	0
1	740	145712.431715778821	0
1	757	148466.035186277001	0
1	776	156253.076408639455	0
1	793	159205.363125341098	0
1	809	160163.110898053993	231.89743743027
1	826	164013.149492490647	0
1	845	173061.440560783165	0
1	864	180274.122146739057	0
1	872	181536.260755280734	0
1	880	181976.471849118342	224.37621508993
1	894	182745.12445270822	236.71113663817
1	921	183866.050397014985	104.35350843715
1	929	184166.993365316979	0
1	937	184490.901027541434	73.934893847434
1	970	187700.778991608585	0
1	995	189706.102725962767	0
1	1012	192437.56311420653	0
1	1029	197582.161077729458	0
1	1038	198166.539792572744	0
1	1046	198877.434589981665	0
1	1054	200350.250989388829	59.740472608487
1	1088	206706.996963207982	0
1	1097	207050.701935206881	0
1	1116	208568.257676451251	427.36890321059
1	1146	210396.510925224718	110.29467771823
1	1163	213507.442670383002	0
1	1171	213877.702628177105	0
1	1196	216640.16521917175	0
1	1204	218039.441255892151	0
1	1229	220478.536809961832	345.85221769206
1	1238	222207.62104204696	0
1	1254	224445.01770120846	0
1	1280	230676.921355780978	0
1	1297	231063.960135693752	16.211849610008
1	1313	232041.529711724711	0
1	1321	233029.502771803711	382.72294477562
1	1329	233494.987514765048	0
1	1338	234637.373269561817	0
1	1368	236801.041700088591	751.18766135722
1	1374	237011.296310375198	814.84354897258
1	1413	243239.33610970926	0
1	1421	243761.381437277462	0
1	1429	243959.03377489147	0
1	1462	248133.535024957281	0
1	1481	255842.574058437321	0
1	1489	257143.88304835515	0
1	1498	258178.320021136945	0
1	1506	258423.228083038545	0
1	1538	259683.041678175425	0
1	1564	264164.966477625244	0
1	1582	271924.578594875586	0
1	1599	273635.641540436619	284.45132373313
1	1617	279215.19652066338	0
1	1625	279500.163507880068	3.189371155966
1	1633	280143.434794901215	0
1	1644	281480.688618008635	1103.5609132784
1	1666	282224.527291118102	0
1	1704	300672.027827657278	0
1	1713	303567.733198905628	0
1	1739	309015.548782992104	0
1	1747	309098.4413381765	51.769713138295
1	1766	309941.368721440016	579.34778197336
1	1787	310670.369402064358	25.829889920059
1	1796	312632.640931987723	0
1	1822	319897.496602796641	0
1	1839	322086.391851582608	0
1	1847	323455.234211806776	0
1	1856	325916.177396312499	0
1	1881	327306.186032834593	0
1	1907	335437.142829559163	0
1	1925	339651.431839479281	0
1	1943	346898.515814626705	0
1	1959	347620.265304307751	467.97748897701
1	1977	353471.450686920002	0
1	1986	354908.135355855555	0
1	2003	357538.829433953833	0
1	2028	360324.228781885677	0
1	2036	361084.475715642524	0
1	2044	361387.231702792553	0
1	2079	369486.605944935281	0
1	2097	377365.473725425679	0
1	2107	381070.092081760217	0
1	2115	381995.011035476157	0
1	2148	385992.043230533599	0
1	2157	387269.419905391136	0
1	2165	388280.610646190932	977.05837240287
1	2190	390169.410212875789	0
1	2206	391040.367385802814	0
1	2230	392992.813382721953	0
1	2248	396717.479690649059	0
1	2266	402967.893979100605	0
1	2274	404059.037125453723	0
1	2291	407476.64800369214	0
1	2308	408774.847983368656	0
1	2324	409791.055502046349	0
1	2341	413000.048624552511	0
1	2349	413891.030806674044	0
1	2383	419319.434200686002	0
1	2392	420779.43063917261	0
1	2417	425175.832975276475	0
1	2434	428017.556088844811	0
1	2452	433810.300194178273	0
1	2470	438596.877361253181	0
1	2478	440028.081762506535	0
1	2507	453456.625214137939	0
1	2527	456799.659485132752	616.50644424814
1	2532	456998.687983041393	691.04888886969
1	2540	457674.574667129517	0
1	2551	458100.992398738653	12.296258537197
1	2581	461201.566513331401	273.93612301607
1	2606	462861.917701115532	0
1	2623	467727.65960486671	0
1	2642	474337.454693608396	0
1	2650	475435.987954473006	0
1	2658	476319.231586019644	0
1	2692	482780.86558422377	0
1	2709	483512.28694524734	0
1	2725	484753.881456202323	0
1	2744	493593.280220826939	0
1	2752	494389.071902456936	0
1	2760	494616.435931646394	136.16914385475
1	2788	496325.618298364246	45.231129433406
1	2810	499926.023840339126	0
1	2819	503796.200486368484	0
1	2845	508919.148281263266	0
1	2863	515498.426452424102	0
1	2872	518816.542134910178	0
1	2889	520622.349822927419	0
1	2914	522716.305027555106	0
1	2922	523079.468843074682	0
1	2947	525777.612517216224	0
1	2964	529241.653003541908	0
1	2972	529616.481376359341	164.72265893275
1	2980	530595.959098221578	0
1	3000	531283.613643455145	227.00325213618
1	3029	533952.576800449513	0
1	3047	537766.493089526909	0
1	3064	540380.323496577755	0
1	3072	540549.139848099908	0
1	3080	540921.134197368774	0
1	3088	541077.73223208556	0
1	3102	542068.461349656657	195.09698036667
1	3147	550227.50619991971	0
1	3165	556052.268534096456	0
1	3173	557262.556903619916	0
1	3191	563520.474697528392	0
1	3216	565334.803652466274	0
1	3234	571270.377998008542	0
1	3252	576166.777551538728	0
1	3269	580413.609030608045	0
1	3286	583890.537828784476	0
1	3302	584339.694548363118	0
1	3310	584640.43899733627	82.54265740444
1	3328	589775.878883707486	0
1	3344	590277.167877607535	0
1	3369	593530.745392248511	0
1	3378	596036.544681214327	0
1	3404	600478.641214298988	0
1	3412	600691.112077245927	0
1	3428	602671.670289529851	0
1	3445	604023.315654014772	0
1	3470	607483.220394553992	0
1	3478	608128.818135843013	230.21218604335
1	3505	615392.751095812835	0
1	3513	615894.810781104788	0
1	3541	628488.311087306876	0
1	3559	633671.925329032534	0
1	3567	634415.938363789443	0
1	3595	645649.626099599251	0
1	3612	648709.206476131897	0
1	3629	652121.571593171228	0
1	3648	660259.562010216872	0
1	3665	664619.92510200206	0
1	3674	666561.212076139601	0
1	3703	681949.209285165231	0
1	3722	691215.185636735113	0
1	3730	692330.733792279109	0
1	3739	695837.202068144595	0
1	3748	696232.218185462311	0
1	3780	698780.270484915171	0
1	3806	704116.947293188935	0
1	3825	713942.555114789051	0
1	3843	718121.591070388015	0
1	3860	721519.426592745058	0
1	3882	738958.41617184336	0
1	3890	739385.422182641827	219.82676134234
1	3917	747218.783997135348	0
1	3928	748792.196181702733	1325.582536387
1	3936	749513.090605320514	1402.4208863931
1	3941	749519.145506057189	468.93737824894
1	3961	750224.956172969409	181.86575195117
1	3969	750651.071591816041	564.87395336051
1	4006	752070.646103346322	0
1	4015	753180.154497614317	0
1	4051	756166.727655689885	254.03338179001
1	4056	756166.83215486973	226.70308813072
1	4085	771481.702634731971	0
1	4103	777436.559924003037	0
1	4119	778627.152234123379	0
1	4127	779528.07654713522	848.02352663637
1	4153	783479.204010161972	0
1	4161	784078.959217757684	315.85399451677
1	4186	787746.771222405843	0
1	4202	788657.371950418704	0
1	4219	790839.339520635415	445.87119694396
1	4237	795410.29488038224	0
1	4245	795463.685904362806	8.723897659188
1	4271	802333.423775341256	0
1	4279	803212.749593695364	0
1	4305	807368.720747945433	0
1	4313	807848.566050683633	0
1	4340	818404.162306806725	0
1	4358	822612.122855793147	0
1	4377	832002.538748776671	0
1	4385	832228.916468357658	0
1	4410	835427.969505223482	0
1	4418	836096.579312778646	0
1	4443	837556.050402708862	0
1	4460	841803.664894396023	0
1	4482	858373.705558036555	0
1	4498	859378.908879865379	0
1	4514	860474.052727376943	0
1	4523	861360.242761500072	475.93962227172
1	4551	875683.630160734645	0
1	4569	881197.499755928287	0
1	4578	882230.046368047227	0
1	4594	882767.25447017664	299.05065120141
1	4610	884814.241816846537	0
1	4636	890999.646118868643	0
1	4653	892523.993529201594	495.20748327974
1	4671	897028.478948799517	0
1	4688	900008.76934611554	0
1	4704	901819.056738769839	0
1	4721	903814.891169419923	0
1	4730	906133.51302565193	0
1	4738	906491.303441036927	0
1	4763	909845.128650494432	0
1	4788	912114.741832135091	0
1	4804	914264.678940755243	0
1	4826	931637.126374111035	0
1	4844	936493.143813668225	0
1	4862	943234.964026985777	0
1	4870	943325.76136687083	0
1	4878	943783.241560697167	190.39600947832
1	4913	953301.906646712082	0
1	4921	953429.642184482461	0
1	4947	958622.585451156885	0
1	4964	962062.747117368235	0
1	4981	965676.705305052739	0
1	4999	971006.996922954045	0
1	5007	971401.251822887006	0
1	5035	982714.374712833166	0
1	5044	984486.278850354246	0
1	5071	993073.374751765658	0
1	5088	996900.166239867774	0
1	5108	1010236.354415613378	0
1	5117	1012208.111801050944	0
1	5125	1012390.209336220622	172.44368672307
1	5150	1015597.886459121336	0
1	5167	1017551.26296714493	0
1	5178	1018114.339397831488	427.90289853037
1	5208	1020656.957447251997	46.636520924613
1	5226	1026459.528206419024	0
1	5244	1032247.363268058196	0
1	5253	1035636.660447624617	0
1	5269	1036730.105182983747	0
2	500	104811.277161706682	1
2	502	104811.277161706682	0
2	509	107496.422799741279	1
2	511	107496.422799741279	0
2	537	118183.392225502499	1
2	539	118183.392225502499	0
2	553	119863.164514236971	1
2	555	119863.164514236971	0
2	559	120000.594620279915	1
2	564	120026.513375642759	0
2	583	120968.272970306056	1
2	588	120984.871271956948	0
2	603	124205.159447364483	1
2	605	124205.159447364483	0
2	620	126212.242828553118	1
2	622	126212.242828553118	0
2	637	131454.624529676756	1
2	639	131454.624529676756	0
2	654	133049.898109500188	1
2	656	133049.898109500188	0
2	663	135392.329036836749	1
2	665	135392.329036836749	0
2	687	137571.892843756391	1
2	689	137571.892843756391	0
2	705	141033.548781046192	1
2	707	141033.548781046192	0
2	713	141387.944521492778	1
2	715	141387.944521492778	0
2	738	145712.431715778821	1
2	740	145712.431715778821	0
2	755	148466.035186277001	1
2	757	148466.035186277001	0
2	774	156253.076408639455	1
2	776	156253.076408639455	0
2	791	159205.363125341098	1
2	793	159205.363125341098	0
2	804	159931.213460623724	1
2	809	160163.110898053993	0
2	824	164013.149492490647	1
2	826	164013.149492490647	0
2	843	173061.440560783165	1
2	845	173061.440560783165	0
2	862	180274.122146739057	1
2	864	180274.122146739057	0
2	870	181536.260755280734	1
2	872	181536.260755280734	0
2	875	181752.095634028412	1
2	880	181976.471849118342	0
2	889	182508.41331607005	1
2	894	182745.12445270822	0
2	916	183761.696888577832	1
2	921	183866.050397014985	0
2	927	184166.993365316979	1
2	929	184166.993365316979	0
2	932	184416.966133694	1
2	937	184490.901027541434	0
2	968	187700.778991608585	1
2	970	187700.778991608585	0
2	993	189706.102725962767	1
2	995	189706.102725962767	0
2	1010	192437.56311420653	1
2	1012	192437.56311420653	0
2	1027	197582.161077729458	1
2	1029	197582.161077729458	0
2	1036	198166.539792572744	1
2	1038	198166.539792572744	0
2	1044	198877.434589981665	1
2	1046	198877.434589981665	0
2	1049	200290.510516780342	1
2	1054	200350.250989388829	0
2	1086	206706.996963207982	1
2	1088	206706.996963207982	0
2	1095	207050.701935206881	1
2	1097	207050.701935206881	0
2	1111	208140.888773240658	1
2	1116	208568.257676451251	0
2	1141	210286.216247506492	1
2	1146	210396.510925224718	0
2	1161	213507.442670383002	1
2	1163	213507.442670383002	0
2	1169	213877.702628177105	1
2	1171	213877.702628177105	0
2	1194	216640.16521917175	1
2	1196	216640.16521917175	0
2	1202	218039.441255892151	1
2	1204	218039.441255892151	0
2	1224	220132.684592269776	1
2	1229	220478.536809961832	0
2	1236	222207.62104204696	1
2	1238	222207.62104204696	0
2	1252	224445.01770120846	1
2	1254	224445.01770120846	0
2	1278	230676.921355780978	1
2	1280	230676.921355780978	0
2	1292	231047.748286083744	1
2	1297	231063.960135693752	0
2	1311	232041.529711724711	1
2	1313	232041.529711724711	0
2	1316	232646.779827028087	1
2	1321	233029.502771803711	0
2	1327	233494.987514765048	1
2	1329	233494.987514765048	0
2	1336	234637.373269561817	1
2	1338	234637.373269561817	0
2	1357	236049.854038731371	1
2	1363	236196.452761402614	2
2	1368	236801.041700088591	1
2	1374	237011.296310375198	0
2	1411	243239.33610970926	1
2	1413	243239.33610970926	0
2	1419	243761.381437277462	1
2	1421	243761.381437277462	0
2	1427	243959.03377489147	1
2	1429	243959.03377489147	0
2	1460	248133.535024957281	1
2	1462	248133.535024957281	0
2	1479	255842.574058437321	1
2	1481	255842.574058437321	0
2	1487	257143.88304835515	1
2	1489	257143.88304835515	0
2	1496	258178.320021136945	1
2	1498	258178.320021136945	0
2	1504	258423.228083038545	1
2	1506	258423.228083038545	0
2	1536	259683.041678175425	1
2	1538	259683.041678175425	0
2	1562	264164.966477625244	1
2	1564	264164.966477625244	0
2	1580	271924.578594875586	1
2	1582	271924.578594875586	0
2	1594	273351.190216703488	1
2	1599	273635.641540436619	0
2	1615	279215.19652066338	1
2	1617	279215.19652066338	0
2	1620	279496.974136724102	1
2	1625	279500.163507880068	0
2	1631	280143.434794901215	1
2	1633	280143.434794901215	0
2	1636	280377.127704730245	1
2	1644	281480.688618008635	0
2	1664	282224.527291118102	1
2	1666	282224.527291118102	0
2	1702	300672.027827657278	1
2	1704	300672.027827657278	0
2	1711	303567.733198905628	1
2	1713	303567.733198905628	0
2	1737	309015.548782992104	1
2	1739	309015.548782992104	0
2	1742	309046.671625038205	1
2	1747	309098.4413381765	0
2	1758	309362.020939466661	1
2	1766	309941.368721440016	0
2	1782	310644.539512144299	1
2	1787	310670.369402064358	0
2	1794	312632.640931987723	1
2	1796	312632.640931987723	0
2	1820	319897.496602796641	1
2	1822	319897.496602796641	0
2	1837	322086.391851582608	1
2	1839	322086.391851582608	0
2	1845	323455.234211806776	1
2	1847	323455.234211806776	0
2	1854	325916.177396312499	1
2	1856	325916.177396312499	0
2	1879	327306.186032834593	1
2	1881	327306.186032834593	0
2	1905	335437.142829559163	1
2	1907	335437.142829559163	0
2	1923	339651.431839479281	1
2	1925	339651.431839479281	0
2	1941	346898.515814626705	1
2	1943	346898.515814626705	0
2	1954	347152.28781533074	1
2	1959	347620.265304307751	0
2	1975	353471.450686920002	1
2	1977	353471.450686920002	0
2	1984	354908.135355855555	1
2	1986	354908.135355855555	0
2	2001	357538.829433953833	1
2	2003	357538.829433953833	0
2	2026	360324.228781885677	1
2	2028	360324.228781885677	0
2	2034	361084.475715642524	1
2	2036	361084.475715642524	0
2	2042	361387.231702792553	1
2	2044	361387.231702792553	0
2	2077	369486.605944935281	1
2	2079	369486.605944935281	0
2	2095	377365.473725425679	1
2	2097	377365.473725425679	0
2	2105	381070.092081760217	1
2	2107	381070.092081760217	0
2	2113	381995.011035476157	1
2	2115	381995.011035476157	0
2	2146	385992.043230533599	1
2	2148	385992.043230533599	0
2	2155	387269.419905391136	1
2	2157	387269.419905391136	0
2	2160	387303.55227378806	1
2	2165	388280.610646190932	0
2	2188	390169.410212875789	1
2	2190	390169.410212875789	0
2	2204	391040.367385802814	1
2	2206	391040.367385802814	0
2	2228	392992.813382721953	1
2	2230	392992.813382721953	0
2	2246	396717.479690649059	1
2	2248	396717.479690649059	0
2	2264	402967.893979100605	1
2	2266	402967.893979100605	0
2	2272	404059.037125453723	1
2	2274	404059.037125453723	0
2	2289	407476.64800369214	1
2	2291	407476.64800369214	0
2	2306	408774.847983368656	1
2	2308	408774.847983368656	0
2	2322	409791.055502046349	1
2	2324	409791.055502046349	0
2	2339	413000.048624552511	1
2	2341	413000.048624552511	0
2	2347	413891.030806674044	1
2	2349	413891.030806674044	0
2	2381	419319.434200686002	1
2	2383	419319.434200686002	0
2	2390	420779.43063917261	1
2	2392	420779.43063917261	0
2	2415	425175.832975276475	1
2	2417	425175.832975276475	0
2	2432	428017.556088844811	1
2	2434	428017.556088844811	0
2	2450	433810.300194178273	1
2	2452	433810.300194178273	0
2	2468	438596.877361253181	1
2	2470	438596.877361253181	0
2	2476	440028.081762506535	1
2	2478	440028.081762506535	0
2	2505	453456.625214137939	1
2	2507	453456.625214137939	0
2	2519	456183.153040884613	1
2	2522	456307.639094171705	2
2	2527	456799.659485132752	1
2	2532	456998.687983041393	0
2	2538	457674.574667129517	1
2	2540	457674.574667129517	0
2	2546	458088.696140201456	1
2	2551	458100.992398738653	0
2	2576	460927.630390315331	1
2	2581	461201.566513331401	0
2	2604	462861.917701115532	1
2	2606	462861.917701115532	0
2	2621	467727.65960486671	1
2	2623	467727.65960486671	0
2	2640	474337.454693608396	1
2	2642	474337.454693608396	0
2	2648	475435.987954473006	1
2	2650	475435.987954473006	0
2	2656	476319.231586019644	1
2	2658	476319.231586019644	0
2	2690	482780.86558422377	1
2	2692	482780.86558422377	0
2	2707	483512.28694524734	1
2	2709	483512.28694524734	0
2	2723	484753.881456202323	1
2	2725	484753.881456202323	0
2	2742	493593.280220826939	1
2	2744	493593.280220826939	0
2	2750	494389.071902456936	1
2	2752	494389.071902456936	0
2	2755	494480.266787791648	1
2	2760	494616.435931646394	0
2	2783	496280.38716893084	1
2	2788	496325.618298364246	0
2	2808	499926.023840339126	1
2	2810	499926.023840339126	0
2	2817	503796.200486368484	1
2	2819	503796.200486368484	0
2	2843	508919.148281263266	1
2	2845	508919.148281263266	0
2	2861	515498.426452424102	1
2	2863	515498.426452424102	0
2	2870	518816.542134910178	1
2	2872	518816.542134910178	0
2	2887	520622.349822927419	1
2	2889	520622.349822927419	0
2	2912	522716.305027555106	1
2	2914	522716.305027555106	0
2	2920	523079.468843074682	1
2	2922	523079.468843074682	0
2	2945	525777.612517216224	1
2	2947	525777.612517216224	0
2	2962	529241.653003541908	1
2	2964	529241.653003541908	0
2	2967	529451.75871742659	1
2	2972	529616.481376359341	0
2	2978	530595.959098221578	1
2	2980	530595.959098221578	0
2	2995	531056.610391318964	1
2	3000	531283.613643455145	0
2	3027	533952.576800449513	1
2	3029	533952.576800449513	0
2	3045	537766.493089526909	1
2	3047	537766.493089526909	0
2	3062	540380.323496577755	1
2	3064	540380.323496577755	0
2	3070	540549.139848099908	1
2	3072	540549.139848099908	0
2	3078	540921.134197368774	1
2	3080	540921.134197368774	0
2	3086	541077.73223208556	1
2	3088	541077.73223208556	0
2	3097	541873.364369289992	1
2	3102	542068.461349656657	0
2	3145	550227.50619991971	1
2	3147	550227.50619991971	0
2	3163	556052.268534096456	1
2	3165	556052.268534096456	0
2	3171	557262.556903619916	1
2	3173	557262.556903619916	0
2	3189	563520.474697528392	1
2	3191	563520.474697528392	0
2	3214	565334.803652466274	1
2	3216	565334.803652466274	0
2	3232	571270.377998008542	1
2	3234	571270.377998008542	0
2	3250	576166.777551538728	1
2	3252	576166.777551538728	0
2	3267	580413.609030608045	1
2	3269	580413.609030608045	0
2	3284	583890.537828784476	1
2	3286	583890.537828784476	0
2	3300	584339.694548363118	1
2	3302	584339.694548363118	0
2	3305	584557.89633993183	1
2	3310	584640.43899733627	0
2	3326	589775.878883707486	1
2	3328	589775.878883707486	0
2	3342	590277.167877607535	1
2	3344	590277.167877607535	0
2	3367	593530.745392248511	1
2	3369	593530.745392248511	0
2	3376	596036.544681214327	1
2	3378	596036.544681214327	0
2	3402	600478.641214298988	1
2	3404	600478.641214298988	0
2	3410	600691.112077245927	1
2	3412	600691.112077245927	0
2	3426	602671.670289529851	1
2	3428	602671.670289529851	0
2	3443	604023.315654014772	1
2	3445	604023.315654014772	0
2	3468	607483.220394553992	1
2	3470	607483.220394553992	0
2	3473	607898.605949799661	1
2	3478	608128.818135843013	0
2	3503	615392.751095812835	1
2	3505	615392.751095812835	0
2	3511	615894.810781104788	1
2	3513	615894.810781104788	0
2	3539	628488.311087306876	1
2	3541	628488.311087306876	0
2	3557	633671.925329032534	1
2	3559	633671.925329032534	0
2	3565	634415.938363789443	1
2	3567	634415.938363789443	0
2	3593	645649.626099599251	1
2	3595	645649.626099599251	0
2	3610	648709.206476131897	1
2	3612	648709.206476131897	0
2	3627	652121.571593171228	1
2	3629	652121.571593171228	0
2	3646	660259.562010216872	1
2	3648	660259.562010216872	0
2	3663	664619.92510200206	1
2	3665	664619.92510200206	0
2	3672	666561.212076139601	1
2	3674	666561.212076139601	0
2	3701	681949.209285165231	1
2	3703	681949.209285165231	0
2	3720	691215.185636735113	1
2	3722	691215.185636735113	0
2	3728	692330.733792279109	1
2	3730	692330.733792279109	0
2	3737	695837.202068144595	1
2	3739	695837.202068144595	0
2	3746	696232.218185462311	1
2	3748	696232.218185462311	0
2	3778	698780.270484915171	1
2	3780	698780.270484915171	0
2	3804	704116.947293188935	1
2	3806	704116.947293188935	0
2	3823	713942.555114789051	1
2	3825	713942.555114789051	0
2	3841	718121.591070388015	1
2	3843	718121.591070388015	0
2	3858	721519.426592745058	1
2	3860	721519.426592745058	0
2	3880	738958.41617184336	1
2	3882	738958.41617184336	0
2	3885	739165.595421299492	1
2	3890	739385.422182641827	0
2	3915	747218.783997135348	1
2	3917	747218.783997135348	0
2	3920	747466.613645315726	1
2	3923	748110.669718927404	2
2	3928	748792.196181702733	1
2	3931	749050.208127808251	2
2	3936	749513.090605320514	1
2	3941	749519.145506057189	0
2	3953	750043.090421018234	1
2	3956	750086.19763845553	2
2	3961	750224.956172969409	1
2	3969	750651.071591816041	0
2	4004	752070.646103346322	1
2	4006	752070.646103346322	0
2	4013	753180.154497614317	1
2	4015	753180.154497614317	0
2	4042	755912.694273899874	1
2	4045	755940.129066739013	2
2	4051	756166.727655689885	1
2	4056	756166.83215486973	0
2	4083	771481.702634731971	1
2	4085	771481.702634731971	0
2	4101	777436.559924003037	1
2	4103	777436.559924003037	0
2	4117	778627.152234123379	1
2	4119	778627.152234123379	0
2	4122	778680.053020498852	1
2	4127	779528.07654713522	0
2	4151	783479.204010161972	1
2	4153	783479.204010161972	0
2	4156	783763.105223240911	1
2	4161	784078.959217757684	0
2	4184	787746.771222405843	1
2	4186	787746.771222405843	0
2	4200	788657.371950418704	1
2	4202	788657.371950418704	0
2	4214	790393.468323691452	1
2	4219	790839.339520635415	0
2	4235	795410.29488038224	1
2	4237	795410.29488038224	0
2	4240	795454.962006703618	1
2	4245	795463.685904362806	0
2	4269	802333.423775341256	1
2	4271	802333.423775341256	0
2	4277	803212.749593695364	1
2	4279	803212.749593695364	0
2	4303	807368.720747945433	1
2	4305	807368.720747945433	0
2	4311	807848.566050683633	1
2	4313	807848.566050683633	0
2	4338	818404.162306806725	1
2	4340	818404.162306806725	0
2	4356	822612.122855793147	1
2	4358	822612.122855793147	0
2	4375	832002.538748776671	1
2	4377	832002.538748776671	0
2	4383	832228.916468357658	1
2	4385	832228.916468357658	0
2	4408	835427.969505223482	1
2	4410	835427.969505223482	0
2	4416	836096.579312778646	1
2	4418	836096.579312778646	0
2	4441	837556.050402708862	1
2	4443	837556.050402708862	0
2	4458	841803.664894396023	1
2	4460	841803.664894396023	0
2	4480	858373.705558036555	1
2	4482	858373.705558036555	0
2	4496	859378.908879865379	1
2	4498	859378.908879865379	0
2	4512	860474.052727376943	1
2	4514	860474.052727376943	0
2	4517	860884.303139228349	1
2	4523	861360.242761500072	0
2	4549	875683.630160734645	1
2	4551	875683.630160734645	0
2	4567	881197.499755928287	1
2	4569	881197.499755928287	0
2	4576	882230.046368047227	1
2	4578	882230.046368047227	0
2	4589	882468.203818975228	1
2	4594	882767.25447017664	0
2	4608	884814.241816846537	1
2	4610	884814.241816846537	0
2	4634	890999.646118868643	1
2	4636	890999.646118868643	0
2	4648	892028.786045921849	1
2	4653	892523.993529201594	0
2	4669	897028.478948799517	1
2	4671	897028.478948799517	0
2	4686	900008.76934611554	1
2	4688	900008.76934611554	0
2	4702	901819.056738769839	1
2	4704	901819.056738769839	0
2	4719	903814.891169419923	1
2	4721	903814.891169419923	0
2	4728	906133.51302565193	1
2	4730	906133.51302565193	0
2	4736	906491.303441036927	1
2	4738	906491.303441036927	0
2	4761	909845.128650494432	1
2	4763	909845.128650494432	0
2	4786	912114.741832135091	1
2	4788	912114.741832135091	0
2	4802	914264.678940755243	1
2	4804	914264.678940755243	0
2	4824	931637.126374111035	1
2	4826	931637.126374111035	0
2	4842	936493.143813668225	1
2	4844	936493.143813668225	0
2	4860	943234.964026985777	1
2	4862	943234.964026985777	0
2	4868	943325.76136687083	1
2	4870	943325.76136687083	0
2	4873	943592.84555121885	1
2	4878	943783.241560697167	0
2	4911	953301.906646712082	1
2	4913	953301.906646712082	0
2	4919	953429.642184482461	1
2	4921	953429.642184482461	0
2	4945	958622.585451156885	1
2	4947	958622.585451156885	0
2	4962	962062.747117368235	1
2	4964	962062.747117368235	0
2	4979	965676.705305052739	1
2	4981	965676.705305052739	0
2	4997	971006.996922954045	1
2	4999	971006.996922954045	0
2	5005	971401.251822887006	1
2	5007	971401.251822887006	0
2	5033	982714.374712833166	1
2	5035	982714.374712833166	0
2	5042	984486.278850354246	1
2	5044	984486.278850354246	0
2	5069	993073.374751765658	1
2	5071	993073.374751765658	0
2	5086	996900.166239867774	1
2	5088	996900.166239867774	0
2	5106	1010236.354415613378	1
2	5108	1010236.354415613378	0
2	5115	1012208.111801050944	1
2	5117	1012208.111801050944	0
2	5120	1012217.765649497554	1
2	5125	1012390.209336220622	0
2	5148	1015597.886459121336	1
2	5150	1015597.886459121336	0
2	5165	1017551.26296714493	1
2	5167	1017551.26296714493	0
2	5173	1017686.436499301123	1
2	5178	1018114.339397831488	0
2	5203	1020610.320926327384	1
2	5208	1020656.957447251997	0
2	5224	1026459.528206419024	1
2	5226	1026459.528206419024	0
2	5242	1032247.363268058196	1
2	5244	1032247.363268058196	0
2	5251	1035636.660447624617	1
2	5253	1035636.660447624617	0
2	5267	1036730.105182983747	1
2	5269	1036730.105182983747	0
3	519	107998.520140310687	341.76679498246
3	528	109760.45089757641	0
3	547	119751.372328787605	0
3	572	120677.144005374429	0
3	580	120717.092866036524	21.639311826521
3	596	122942.235681477907	0
3	613	125513.053844123798	0
3	630	126907.844135548531	0
3	648	132936.248236878107	0
3	673	135922.602796677488	508.39530374843
3	681	137210.672402253258	0
3	698	138116.997155612506	0
3	723	142909.840766646944	0
3	732	145191.18347663876	0
3	748	146380.265574489652	0
3	765	149490.181880812803	0
3	784	156922.911348466586	0
3	801	159889.980231000085	0
3	818	162791.910374529783	0
3	834	164710.900929754849	0
3	854	175242.079581554486	0
3	899	182990.834977812778	992.35598734664
3	905	183101.087841575385	1071.0367357831
3	913	183717.32463933786	0
3	945	185345.788726397234	0
3	954	186542.853014938116	0
3	962	187297.075636540472	0
3	978	188011.621330553634	0
3	986	188173.102805677322	0
3	1003	190589.54667959045	0
3	1021	196603.109233136831	0
3	1063	201635.712786222347	0
3	1074	203213.289119191871	1563.444710718
3	1079	203297.245754119885	1407.9065389305
3	1105	207931.776586859405	469.97713406554
3	1121	208584.317986913036	548.51124498001
3	1129	208639.355935498004	0
3	1137	209997.176828818082	0
3	1154	211233.949480899994	0
3	1179	215399.956048184709	0
3	1188	216015.075219934801	158.99529423117
3	1212	218746.596931430587	0
3	1221	219653.369802500139	0
3	1246	222788.237825664816	0
3	1263	225197.567968331539	354.99738364233
3	1271	226503.355937674289	0
3	1289	231035.92153053132	0
3	1305	231759.645266477603	0
3	1346	234953.577533816093	71.630741067368
3	1354	236009.411026706449	418.24278322183
3	1379	237143.859807207912	1030.2509529067
3	1387	237587.278087129824	226.29192685886
3	1395	238252.255707343408	0
3	1403	238343.608749248617	61.01264348508
3	1437	245040.529353054472	0
3	1445	245273.534426380686	126.11526580044
3	1454	246183.133938524478	42.075154656995
3	1470	248507.269112740047	0
3	1514	258620.219670540054	125.12382715859
3	1522	258831.501601873154	0
3	1530	259137.647562700764	0
3	1546	260928.028192780998	0
3	1555	263058.689935176502	0
3	1572	266877.316028273297	0
3	1591	273046.274923685995	0
3	1608	276417.593996646496	0
3	1649	281543.898990863594	311.96670985245
3	1657	281821.933224355775	0
3	1674	282941.92940596806	237.48252274993
3	1682	283565.603303588099	0
3	1690	284526.528607247298	0
3	1722	306118.946730740274	0
3	1730	308455.103010723796	0
3	1755	309152.638341275057	0
3	1771	310254.117936500646	838.32459965879
3	1779	310602.883152191423	318.92650332906
3	1804	314978.681079640258	0
3	1813	316705.436053667257	0
3	1830	320782.834193403104	0
3	1864	326333.990104673629	337.29658853753
3	1872	326657.410154705186	39.465523098173
3	1889	328521.524679418359	0
3	1897	328619.155038337665	23.792291556916
3	1916	336806.156209576078	0
3	1933	341316.193968136376	0
3	1951	347124.598115967159	0
3	1969	352094.657218167592	0
3	1994	355028.246403942753	0
3	2011	357635.548857236241	0
3	2019	359817.268889275464	0
3	2052	362335.121816111173	0
3	2061	363247.615493978743	0
3	2069	363791.971481521711	0
3	2087	371147.656992972723	0
3	2123	382592.454930703964	0
3	2131	383116.220965833451	0
3	2140	384435.174049561785	0
3	2173	388454.11672737507	0
3	2181	388859.830230421045	0
3	2198	390309.427448919145	0
3	2214	391107.153750407992	0
3	2222	391928.604216166387	42.640707551981
3	2239	393582.751011640683	0
3	2256	398891.023687783318	0
3	2283	406000.577922977708	1548.1567097694
3	2300	408301.119486798004	0
3	2316	409206.697020924932	49.115427594499
3	2332	410140.76474039892	280.36155434719
3	2358	414002.839048357771	0
3	2366	414366.656932876301	0
3	2374	414779.263954946716	0
3	2400	421019.250783873345	7.042773338882
3	2409	423389.789057136497	0
3	2425	425410.109392789965	0
3	2444	432525.970798977906	0
3	2461	435719.729391071579	0
3	2486	440850.860615264641	0
3	2495	441035.397530576034	169.56265842027
3	2516	456117.569633402544	0
3	2556	458143.182814948013	426.68873583895
3	2565	460182.204423668833	0
3	2573	460872.751618602994	0
3	2589	461792.460893897955	0
3	2598	462117.021096200715	0
3	2614	463778.396954595999	0
3	2631	467989.451613176168	0
3	2666	476895.303737922023	0
3	2675	478186.793210130112	0
3	2684	480547.115812681896	0
3	2701	483064.840652883866	0
3	2717	484451.227486837784	0
3	2733	485282.052405544287	0
3	2769	495298.039273888715	0
3	2780	495918.17901569283	541.45016511014
3	2793	496641.359270590561	826.96542665602
3	2802	498034.774695872396	0
3	2829	507172.115349181894	0
3	2837	507416.906235794506	0
3	2854	511784.092600963093	0
3	2881	519962.172620433376	0
3	2897	521035.088605266572	0
3	2905	521857.678753748632	0
3	2930	523457.914955404359	246.14831268793
3	2939	525299.946997531386	0
3	2955	526357.926880806836	0
3	2988	530934.377280309552	0
3	3005	531584.56344071199	584.79848581173
3	3013	532608.701584413604	0
3	3021	533473.450622005459	0
3	3038	535966.338610050908	0
3	3055	538782.286957335264	0
3	3110	542580.512589267804	1382.950991664
3	3115	542625.551041798499	1131.2571270235
3	3120	542791.078777392783	559.11905137383
3	3129	543066.625327471543	0
3	3137	543452.128264471717	0
3	3155	550886.367863356093	0
3	3181	557977.202650624737	0
3	3200	564027.527737694547	0
3	3208	564720.564710607618	202.28565656252
3	3224	565905.782463021156	0
3	3242	572157.645260765286	0
3	3260	577253.587311623564	0
3	3277	581137.374508983539	0
3	3294	584074.715295046158	0
3	3320	588695.571882413876	0
3	3336	590113.816165810421	0
3	3353	591219.334599774761	651.66363720034
3	3361	592177.424111368158	0
3	3387	597622.077460900276	0
3	3395	598257.053822174527	0
3	3420	601437.787349631402	0
3	3437	603618.361437584343	0
3	3453	604247.990282981956	0
3	3461	604648.175290038966	0
3	3487	609796.832954462243	0
3	3496	614855.32460870145	0
3	3521	616517.391457674892	0
3	3529	617587.254317938225	0
3	3549	629531.897428775168	0
3	3575	634967.440991501628	0
3	3583	635435.66742476562	402.80965288534
3	3603	646916.208434113268	0
3	3620	649675.846740292952	0
3	3637	653351.725619560074	0
3	3656	661576.247915447868	0
3	3683	670226.318551612177	0
3	3692	674030.456102161512	0
3	3712	684628.371553183497	0
3	3756	696305.467986937419	0
3	3764	696965.027635240313	366.78070986276
3	3772	698093.690247528631	0
3	3788	698952.247508200124	0
3	3797	699771.79355086361	0
3	3814	704399.059747882704	0
3	3834	714231.641484780281	0
3	3852	720562.003137972716	0
3	3868	722603.67895815513	0
3	3898	740007.526166921278	0
3	3906	740405.162653958171	0
3	3950	750035.784420359895	0
3	3977	750869.595227004788	400.36856927152
3	3982	750898.53064300945	195.05728583952
3	3993	751149.407230689971	227.75685884463
3	3998	751203.953328648813	257.76355465087
3	4023	755149.936340570153	0
3	4031	755402.884892138117	0
3	4039	755442.374262202684	0
3	4064	756768.588060104958	0
3	4073	759641.365437259202	0
3	4093	773245.605107686174	0
3	4111	777880.011720759435	0
3	4136	780544.904133622176	0
3	4144	782468.974179757863	0
3	4169	784377.08852090682	237.74514966989
3	4177	784965.130987724883	0
3	4194	788163.346569317264	0
3	4211	789880.448410099452	0
3	4227	791759.29902291577	0
3	4253	796238.732379176493	0
3	4261	796618.645785481911	0
3	4287	803459.6658208407	3.537894781556
3	4296	805391.283338407822	0
3	4321	809583.331373163943	0
3	4331	814106.745607633519	0
3	4349	819527.388651382526	0
3	4366	824052.915623182428	0
3	4393	832357.218091838128	62.779631831966
3	4401	833547.235766184422	0
3	4426	836699.015779225223	0
3	4434	836912.937455278932	0
3	4451	838480.440960294312	0
3	4468	842686.199506226145	0
3	4490	859086.57280557196	0
3	4506	859512.320746092067	0
3	4531	862937.077704184872	891.17018527209
3	4540	864657.344138563752	0
3	4560	877100.991228595149	0
3	4586	882449.78268014934	0
3	4602	884042.257479725653	0
3	4619	885370.872797281986	0
3	4627	885797.929340075157	0
3	4645	891938.191297629845	0
3	4661	893097.207694201573	0
3	4679	898862.869604013758	0
3	4696	901096.219657604334	0
3	4713	903551.895507494974	0
3	4746	908455.984275805664	0
3	4754	908836.374506648308	245.09004147579
3	4771	910804.759011268378	0
3	4779	911361.706200159012	0
3	4796	912252.227592667118	0
3	4813	916765.276961749525	0
3	4835	933315.432012969506	0
3	4852	937415.212250596039	0
3	4886	944604.296293033657	0
3	4894	944801.021282306109	29.639146499094
3	4903	945416.626877492357	0
3	4930	954200.578575596645	0
3	4938	954326.312004774203	0
3	4956	960460.036104033255	0
3	4972	962760.752385650844	0
3	4990	966831.450688000806	0
3	5015	971920.52749912093	0
3	5024	973151.655490988533	0
3	5052	985876.500719421616	0
3	5060	986227.681952472738	0
3	5079	993183.784153811917	0
3	5096	997391.230793388422	0
3	5133	1013484.2501906868	0
3	5142	1014100.91128900423	0
3	5158	1016031.818830975956	0
3	5183	1018132.736514310485	519.60976720021
3	5191	1018491.711064586555	0
3	5200	1020082.483247314172	0
3	5217	1024182.392805020983	0
3	5235	1030121.504507503922	0
3	5261	1036393.817230690803	0
4	514	107656.753345328225	1
4	519	107998.520140310687	0
4	526	109760.45089757641	1
4	528	109760.45089757641	0
4	545	119751.372328787605	1
4	547	119751.372328787605	0
4	570	120677.144005374429	1
4	572	120677.144005374429	0
4	575	120695.453554210003	1
4	580	120717.092866036524	0
4	594	122942.235681477907	1
4	596	122942.235681477907	0
4	611	125513.053844123798	1
4	613	125513.053844123798	0
4	628	126907.844135548531	1
4	630	126907.844135548531	0
4	646	132936.248236878107	1
4	648	132936.248236878107	0
4	668	135414.207492929061	1
4	673	135922.602796677488	0
4	679	137210.672402253258	1
4	681	137210.672402253258	0
4	696	138116.997155612506	1
4	698	138116.997155612506	0
4	721	142909.840766646944	1
4	723	142909.840766646944	0
4	730	145191.18347663876	1
4	732	145191.18347663876	0
4	746	146380.265574489652	1
4	748	146380.265574489652	0
4	763	149490.181880812803	1
4	765	149490.181880812803	0
4	782	156922.911348466586	1
4	784	156922.911348466586	0
4	799	159889.980231000085	1
4	801	159889.980231000085	0
4	816	162791.910374529783	1
4	818	162791.910374529783	0
4	832	164710.900929754849	1
4	834	164710.900929754849	0
4	852	175242.079581554486	1
4	854	175242.079581554486	0
4	883	181998.478990466142	1
4	886	182030.051105792331	2
4	899	182990.834977812778	1
4	905	183101.087841575385	0
4	911	183717.32463933786	1
4	913	183717.32463933786	0
4	943	185345.788726397234	1
4	945	185345.788726397234	0
4	952	186542.853014938116	1
4	954	186542.853014938116	0
4	960	187297.075636540472	1
4	962	187297.075636540472	0
4	976	188011.621330553634	1
4	978	188011.621330553634	0
4	984	188173.102805677322	1
4	986	188173.102805677322	0
4	1001	190589.54667959045	1
4	1003	190589.54667959045	0
4	1019	196603.109233136831	1
4	1021	196603.109233136831	0
4	1061	201635.712786222347	1
4	1063	201635.712786222347	0
4	1066	201649.844408473897	1
4	1069	201889.339215189409	2
4	1074	203213.289119191871	1
4	1079	203297.245754119885	0
4	1100	207461.799452793865	1
4	1105	207931.776586859405	0
4	1108	208035.806741933025	1
4	1121	208584.317986913036	0
4	1127	208639.355935498004	1
4	1129	208639.355935498004	0
4	1135	209997.176828818082	1
4	1137	209997.176828818082	0
4	1152	211233.949480899994	1
4	1154	211233.949480899994	0
4	1177	215399.956048184709	1
4	1179	215399.956048184709	0
4	1182	215856.079925703634	1
4	1188	216015.075219934801	0
4	1210	218746.596931430587	1
4	1212	218746.596931430587	0
4	1219	219653.369802500139	1
4	1221	219653.369802500139	0
4	1244	222788.237825664816	1
4	1246	222788.237825664816	0
4	1257	224842.570584689209	1
4	1263	225197.567968331539	0
4	1269	226503.355937674289	1
4	1271	226503.355937674289	0
4	1287	231035.92153053132	1
4	1289	231035.92153053132	0
4	1303	231759.645266477603	1
4	1305	231759.645266477603	0
4	1341	234881.946792748725	1
4	1346	234953.577533816093	0
4	1349	235591.168243484623	1
4	1354	236009.411026706449	0
4	1360	236113.608854301212	1
4	1379	237143.859807207912	0
4	1382	237360.986160270967	1
4	1387	237587.278087129824	0
4	1393	238252.255707343408	1
4	1395	238252.255707343408	0
4	1398	238282.596105763537	1
4	1403	238343.608749248617	0
4	1435	245040.529353054472	1
4	1437	245040.529353054472	0
4	1440	245147.41916058025	1
4	1445	245273.534426380686	0
4	1449	246141.058783867483	1
4	1454	246183.133938524478	0
4	1468	248507.269112740047	1
4	1470	248507.269112740047	0
4	1509	258495.09584338146	1
4	1514	258620.219670540054	0
4	1520	258831.501601873154	1
4	1522	258831.501601873154	0
4	1528	259137.647562700764	1
4	1530	259137.647562700764	0
4	1544	260928.028192780998	1
4	1546	260928.028192780998	0
4	1553	263058.689935176502	1
4	1555	263058.689935176502	0
4	1570	266877.316028273297	1
4	1572	266877.316028273297	0
4	1589	273046.274923685995	1
4	1591	273046.274923685995	0
4	1606	276417.593996646496	1
4	1608	276417.593996646496	0
4	1639	281231.932281011143	1
4	1649	281543.898990863594	0
4	1655	281821.933224355775	1
4	1657	281821.933224355775	0
4	1669	282704.446883218126	1
4	1674	282941.92940596806	0
4	1680	283565.603303588099	1
4	1682	283565.603303588099	0
4	1688	284526.528607247298	1
4	1690	284526.528607247298	0
4	1720	306118.946730740274	1
4	1722	306118.946730740274	0
4	1728	308455.103010723796	1
4	1730	308455.103010723796	0
4	1753	309152.638341275057	1
4	1755	309152.638341275057	0
4	1761	309415.793336841856	1
4	1771	310254.117936500646	0
4	1774	310283.956648862363	1
4	1779	310602.883152191423	0
4	1802	314978.681079640258	1
4	1804	314978.681079640258	0
4	1811	316705.436053667257	1
4	1813	316705.436053667257	0
4	1828	320782.834193403104	1
4	1830	320782.834193403104	0
4	1859	325996.693516136099	1
4	1864	326333.990104673629	0
4	1867	326617.944631607013	1
4	1872	326657.410154705186	0
4	1887	328521.524679418359	1
4	1889	328521.524679418359	0
4	1892	328595.362746780749	1
4	1897	328619.155038337665	0
4	1914	336806.156209576078	1
4	1916	336806.156209576078	0
4	1931	341316.193968136376	1
4	1933	341316.193968136376	0
4	1949	347124.598115967159	1
4	1951	347124.598115967159	0
4	1967	352094.657218167592	1
4	1969	352094.657218167592	0
4	1992	355028.246403942753	1
4	1994	355028.246403942753	0
4	2009	357635.548857236241	1
4	2011	357635.548857236241	0
4	2017	359817.268889275464	1
4	2019	359817.268889275464	0
4	2050	362335.121816111173	1
4	2052	362335.121816111173	0
4	2059	363247.615493978743	1
4	2061	363247.615493978743	0
4	2067	363791.971481521711	1
4	2069	363791.971481521711	0
4	2085	371147.656992972723	1
4	2087	371147.656992972723	0
4	2121	382592.454930703964	1
4	2123	382592.454930703964	0
4	2129	383116.220965833451	1
4	2131	383116.220965833451	0
4	2138	384435.174049561785	1
4	2140	384435.174049561785	0
4	2171	388454.11672737507	1
4	2173	388454.11672737507	0
4	2179	388859.830230421045	1
4	2181	388859.830230421045	0
4	2196	390309.427448919145	1
4	2198	390309.427448919145	0
4	2212	391107.153750407992	1
4	2214	391107.153750407992	0
4	2217	391885.963508614406	1
4	2222	391928.604216166387	0
4	2237	393582.751011640683	1
4	2239	393582.751011640683	0
4	2254	398891.023687783318	1
4	2256	398891.023687783318	0
4	2277	404452.421213208345	1
4	2283	406000.577922977708	0
4	2298	408301.119486798004	1
4	2300	408301.119486798004	0
4	2311	409157.581593330433	1
4	2316	409206.697020924932	0
4	2327	409860.403186051731	1
4	2332	410140.76474039892	0
4	2356	414002.839048357771	1
4	2358	414002.839048357771	0
4	2364	414366.656932876301	1
4	2366	414366.656932876301	0
4	2372	414779.263954946716	1
4	2374	414779.263954946716	0
4	2395	421012.208010534463	1
4	2400	421019.250783873345	0
4	2407	423389.789057136497	1
4	2409	423389.789057136497	0
4	2423	425410.109392789965	1
4	2425	425410.109392789965	0
4	2442	432525.970798977906	1
4	2444	432525.970798977906	0
4	2459	435719.729391071579	1
4	2461	435719.729391071579	0
4	2484	440850.860615264641	1
4	2486	440850.860615264641	0
4	2489	440865.83487215576	1
4	2495	441035.397530576034	0
4	2514	456117.569633402544	1
4	2516	456117.569633402544	0
4	2543	457716.494079109062	1
4	2556	458143.182814948013	0
4	2563	460182.204423668833	1
4	2565	460182.204423668833	0
4	2571	460872.751618602994	1
4	2573	460872.751618602994	0
4	2587	461792.460893897955	1
4	2589	461792.460893897955	0
4	2596	462117.021096200715	1
4	2598	462117.021096200715	0
4	2612	463778.396954595999	1
4	2614	463778.396954595999	0
4	2629	467989.451613176168	1
4	2631	467989.451613176168	0
4	2664	476895.303737922023	1
4	2666	476895.303737922023	0
4	2673	478186.793210130112	1
4	2675	478186.793210130112	0
4	2682	480547.115812681896	1
4	2684	480547.115812681896	0
4	2699	483064.840652883866	1
4	2701	483064.840652883866	0
4	2715	484451.227486837784	1
4	2717	484451.227486837784	0
4	2731	485282.052405544287	1
4	2733	485282.052405544287	0
4	2767	495298.039273888715	1
4	2769	495298.039273888715	0
4	2772	495376.728850582694	1
4	2775	495814.39384393454	2
4	2780	495918.17901569283	1
4	2793	496641.359270590561	0
4	2800	498034.774695872396	1
4	2802	498034.774695872396	0
4	2827	507172.115349181894	1
4	2829	507172.115349181894	0
4	2835	507416.906235794506	1
4	2837	507416.906235794506	0
4	2852	511784.092600963093	1
4	2854	511784.092600963093	0
4	2879	519962.172620433376	1
4	2881	519962.172620433376	0
4	2895	521035.088605266572	1
4	2897	521035.088605266572	0
4	2903	521857.678753748632	1
4	2905	521857.678753748632	0
4	2925	523211.76664271643	1
4	2930	523457.914955404359	0
4	2937	525299.946997531386	1
4	2939	525299.946997531386	0
4	2953	526357.926880806836	1
4	2955	526357.926880806836	0
4	2986	530934.377280309552	1
4	2988	530934.377280309552	0
4	2991	530999.764954900259	1
4	3005	531584.56344071199	0
4	3011	532608.701584413604	1
4	3013	532608.701584413604	0
4	3019	533473.450622005459	1
4	3021	533473.450622005459	0
4	3036	535966.338610050908	1
4	3038	535966.338610050908	0
4	3053	538782.286957335264	1
4	3055	538782.286957335264	0
4	3091	541197.561597603792	1
4	3094	541494.293914775022	2
4	3105	542231.959726018954	3
4	3110	542580.512589267804	2
4	3115	542625.551041798499	1
4	3120	542791.078777392783	0
4	3127	543066.625327471543	1
4	3129	543066.625327471543	0
4	3135	543452.128264471717	1
4	3137	543452.128264471717	0
4	3153	550886.367863356093	1
4	3155	550886.367863356093	0
4	3179	557977.202650624737	1
4	3181	557977.202650624737	0
4	3198	564027.527737694547	1
4	3200	564027.527737694547	0
4	3203	564518.279054045099	1
4	3208	564720.564710607618	0
4	3222	565905.782463021156	1
4	3224	565905.782463021156	0
4	3240	572157.645260765286	1
4	3242	572157.645260765286	0
4	3258	577253.587311623564	1
4	3260	577253.587311623564	0
4	3275	581137.374508983539	1
4	3277	581137.374508983539	0
4	3292	584074.715295046158	1
4	3294	584074.715295046158	0
4	3318	588695.571882413876	1
4	3320	588695.571882413876	0
4	3334	590113.816165810421	1
4	3336	590113.816165810421	0
4	3347	590567.670962574416	1
4	3353	591219.334599774761	0
4	3359	592177.424111368158	1
4	3361	592177.424111368158	0
4	3385	597622.077460900276	1
4	3387	597622.077460900276	0
4	3393	598257.053822174527	1
4	3395	598257.053822174527	0
4	3418	601437.787349631402	1
4	3420	601437.787349631402	0
4	3435	603618.361437584343	1
4	3437	603618.361437584343	0
4	3451	604247.990282981956	1
4	3453	604247.990282981956	0
4	3459	604648.175290038966	1
4	3461	604648.175290038966	0
4	3485	609796.832954462243	1
4	3487	609796.832954462243	0
4	3494	614855.32460870145	1
4	3496	614855.32460870145	0
4	3519	616517.391457674892	1
4	3521	616517.391457674892	0
4	3527	617587.254317938225	1
4	3529	617587.254317938225	0
4	3547	629531.897428775168	1
4	3549	629531.897428775168	0
4	3573	634967.440991501628	1
4	3575	634967.440991501628	0
4	3578	635032.857771880281	1
4	3583	635435.66742476562	0
4	3601	646916.208434113268	1
4	3603	646916.208434113268	0
4	3618	649675.846740292952	1
4	3620	649675.846740292952	0
4	3635	653351.725619560074	1
4	3637	653351.725619560074	0
4	3654	661576.247915447868	1
4	3656	661576.247915447868	0
4	3681	670226.318551612177	1
4	3683	670226.318551612177	0
4	3690	674030.456102161512	1
4	3692	674030.456102161512	0
4	3710	684628.371553183497	1
4	3712	684628.371553183497	0
4	3754	696305.467986937419	1
4	3756	696305.467986937419	0
4	3759	696598.24692537755	1
4	3764	696965.027635240313	0
4	3770	698093.690247528631	1
4	3772	698093.690247528631	0
4	3786	698952.247508200124	1
4	3788	698952.247508200124	0
4	3795	699771.79355086361	1
4	3797	699771.79355086361	0
4	3812	704399.059747882704	1
4	3814	704399.059747882704	0
4	3832	714231.641484780281	1
4	3834	714231.641484780281	0
4	3850	720562.003137972716	1
4	3852	720562.003137972716	0
4	3866	722603.67895815513	1
4	3868	722603.67895815513	0
4	3896	740007.526166921278	1
4	3898	740007.526166921278	0
4	3904	740405.162653958171	1
4	3906	740405.162653958171	0
4	3948	750035.784420359895	1
4	3950	750035.784420359895	0
4	3964	750469.226657733269	1
4	3972	750703.473357169927	2
4	3977	750869.595227004788	1
4	3982	750898.53064300945	0
4	3985	750921.650371845344	1
4	3988	750946.189773997947	2
4	3993	751149.407230689971	1
4	3998	751203.953328648813	0
4	4021	755149.936340570153	1
4	4023	755149.936340570153	0
4	4029	755402.884892138117	1
4	4031	755402.884892138117	0
4	4037	755442.374262202684	1
4	4039	755442.374262202684	0
4	4062	756768.588060104958	1
4	4064	756768.588060104958	0
4	4071	759641.365437259202	1
4	4073	759641.365437259202	0
4	4091	773245.605107686174	1
4	4093	773245.605107686174	0
4	4109	777880.011720759435	1
4	4111	777880.011720759435	0
4	4134	780544.904133622176	1
4	4136	780544.904133622176	0
4	4142	782468.974179757863	1
4	4144	782468.974179757863	0
4	4164	784139.343371236927	1
4	4169	784377.08852090682	0
4	4175	784965.130987724883	1
4	4177	784965.130987724883	0
4	4192	788163.346569317264	1
4	4194	788163.346569317264	0
4	4209	789880.448410099452	1
4	4211	789880.448410099452	0
4	4225	791759.29902291577	1
4	4227	791759.29902291577	0
4	4251	796238.732379176493	1
4	4253	796238.732379176493	0
4	4259	796618.645785481911	1
4	4261	796618.645785481911	0
4	4282	803456.127926059144	1
4	4287	803459.6658208407	0
4	4294	805391.283338407822	1
4	4296	805391.283338407822	0
4	4319	809583.331373163943	1
4	4321	809583.331373163943	0
4	4329	814106.745607633519	1
4	4331	814106.745607633519	0
4	4347	819527.388651382526	1
4	4349	819527.388651382526	0
4	4364	824052.915623182428	1
4	4366	824052.915623182428	0
4	4388	832294.438460006162	1
4	4393	832357.218091838128	0
4	4399	833547.235766184422	1
4	4401	833547.235766184422	0
4	4424	836699.015779225223	1
4	4426	836699.015779225223	0
4	4432	836912.937455278932	1
4	4434	836912.937455278932	0
4	4449	838480.440960294312	1
4	4451	838480.440960294312	0
4	4466	842686.199506226145	1
4	4468	842686.199506226145	0
4	4488	859086.57280557196	1
4	4490	859086.57280557196	0
4	4504	859512.320746092067	1
4	4506	859512.320746092067	0
4	4526	862045.907518912783	1
4	4531	862937.077704184872	0
4	4538	864657.344138563752	1
4	4540	864657.344138563752	0
4	4558	877100.991228595149	1
4	4560	877100.991228595149	0
4	4584	882449.78268014934	1
4	4586	882449.78268014934	0
4	4600	884042.257479725653	1
4	4602	884042.257479725653	0
4	4617	885370.872797281986	1
4	4619	885370.872797281986	0
4	4625	885797.929340075157	1
4	4627	885797.929340075157	0
4	4643	891938.191297629845	1
4	4645	891938.191297629845	0
4	4659	893097.207694201573	1
4	4661	893097.207694201573	0
4	4677	898862.869604013758	1
4	4679	898862.869604013758	0
4	4694	901096.219657604334	1
4	4696	901096.219657604334	0
4	4711	903551.895507494974	1
4	4713	903551.895507494974	0
4	4744	908455.984275805664	1
4	4746	908455.984275805664	0
4	4749	908591.284465172517	1
4	4754	908836.374506648308	0
4	4769	910804.759011268378	1
4	4771	910804.759011268378	0
4	4777	911361.706200159012	1
4	4779	911361.706200159012	0
4	4794	912252.227592667118	1
4	4796	912252.227592667118	0
4	4811	916765.276961749525	1
4	4813	916765.276961749525	0
4	4833	933315.432012969506	1
4	4835	933315.432012969506	0
4	4850	937415.212250596039	1
4	4852	937415.212250596039	0
4	4884	944604.296293033657	1
4	4886	944604.296293033657	0
4	4889	944771.382135807015	1
4	4894	944801.021282306109	0
4	4901	945416.626877492357	1
4	4903	945416.626877492357	0
4	4928	954200.578575596645	1
4	4930	954200.578575596645	0
4	4936	954326.312004774203	1
4	4938	954326.312004774203	0
4	4954	960460.036104033255	1
4	4956	960460.036104033255	0
4	4970	962760.752385650844	1
4	4972	962760.752385650844	0
4	4988	966831.450688000806	1
4	4990	966831.450688000806	0
4	5013	971920.52749912093	1
4	5015	971920.52749912093	0
4	5022	973151.655490988533	1
4	5024	973151.655490988533	0
4	5050	985876.500719421616	1
4	5052	985876.500719421616	0
4	5058	986227.681952472738	1
4	5060	986227.681952472738	0
4	5077	993183.784153811917	1
4	5079	993183.784153811917	0
4	5094	997391.230793388422	1
4	5096	997391.230793388422	0
4	5131	1013484.2501906868	1
4	5133	1013484.2501906868	0
4	5140	1014100.91128900423	1
4	5142	1014100.91128900423	0
4	5156	1016031.818830975956	1
4	5158	1016031.818830975956	0
4	5170	1017613.126747110275	1
4	5183	1018132.736514310485	0
4	5189	1018491.711064586555	1
4	5191	1018491.711064586555	0
4	5198	1020082.483247314172	1
4	5200	1020082.483247314172	0
4	5215	1024182.392805020983	1
4	5217	1024182.392805020983	0
4	5233	1030121.504507503922	1
4	5235	1030121.504507503922	0
4	5259	1036393.817230690803	1
4	5261	1036393.817230690803	0
5	498	102000	1
5	504	105000	0
5	521	108000	2
5	533	111000	0
5	534	114000	0
5	535	117000	0
5	557	120000	1
5	601	123000	3
5	618	126000	1
5	635	129000	1
5	644	132000	1
5	661	135000	1
5	694	138000	2
5	703	141000	0
5	728	144000	2
5	750	147000	1
5	770	150000	1
5	771	153000	0
5	772	156000	0
5	789	159000	1
5	814	162000	2
5	836	165000	1
5	840	168000	0
5	841	171000	0
5	847	174000	0
5	859	177000	1
5	860	180000	0
5	901	183000	4
5	950	186000	3
5	991	189000	1
5	1008	192000	1
5	1017	195000	1
5	1031	198000	0
5	1056	201000	3
5	1084	204000	1
5	1093	207000	1
5	1139	210000	2
5	1159	213000	1
5	1184	216000	2
5	1217	219000	2
5	1234	222000	1
5	1259	225000	1
5	1276	228000	1
5	1285	231000	1
5	1334	234000	4
5	1370	237000	1
5	1408	240000	2
5	1409	243000	0
5	1447	246000	3
5	1475	249000	1
5	1476	252000	0
5	1477	255000	0
5	1494	258000	2
5	1551	261000	3
5	1560	264000	0
5	1574	267000	1
5	1578	270000	0
5	1587	273000	1
5	1604	276000	1
5	1613	279000	0
5	1662	282000	4
5	1692	285000	1
5	1696	288000	0
5	1697	291000	0
5	1698	294000	0
5	1699	297000	0
5	1700	300000	0
5	1709	303000	1
5	1718	306000	1
5	1735	309000	0
5	1792	312000	4
5	1806	315000	1
5	1818	318000	0
5	1835	321000	1
5	1852	324000	2
5	1874	327000	1
5	1902	330000	1
5	1903	333000	0
5	1912	336000	1
5	1921	339000	0
5	1938	342000	1
5	1939	345000	0
5	1961	348000	1
5	1965	351000	1
5	1982	354000	1
5	1999	357000	1
5	2024	360000	1
5	2057	363000	3
5	2074	366000	0
5	2075	369000	0
5	2092	372000	1
5	2093	375000	0
5	2102	378000	1
5	2103	381000	0
5	2136	384000	2
5	2153	387000	1
5	2186	390000	2
5	2232	393000	2
5	2244	396000	1
5	2258	399000	1
5	2262	402000	0
5	2279	405000	1
5	2293	408000	1
5	2337	411000	3
5	2354	414000	2
5	2379	417000	0
5	2385	420000	0
5	2405	423000	2
5	2427	426000	1
5	2439	429000	1
5	2440	432000	0
5	2457	435000	1
5	2466	438000	0
5	2491	441000	2
5	2500	444000	0
5	2501	447000	0
5	2502	450000	0
5	2503	453000	0
5	2512	456000	1
5	2561	459000	4
5	2594	462000	1
5	2619	465000	1
5	2633	468000	1
5	2637	471000	0
5	2638	474000	0
5	2668	477000	3
5	2680	480000	0
5	2697	483000	1
5	2738	486000	2
5	2739	489000	0
5	2740	492000	0
5	2765	495000	3
5	2798	498000	1
5	2815	501000	1
5	2821	504000	0
5	2825	507000	1
5	2850	510000	1
5	2859	513000	0
5	2868	516000	1
5	2874	519000	0
5	2907	522000	2
5	2935	525000	2
5	2960	528000	1
5	2993	531000	3
5	3031	534000	1
5	3043	537000	1
5	3060	540000	1
5	3125	543000	5
5	3142	546000	0
5	3143	549000	0
5	3160	552000	1
5	3161	555000	0
5	3186	558000	2
5	3187	561000	0
5	3196	564000	1
5	3229	567000	1
5	3230	570000	0
5	3247	573000	1
5	3248	576000	0
5	3265	579000	1
5	3279	582000	1
5	3312	585000	2
5	3316	588000	1
5	3349	591000	1
5	3371	594000	1
5	3383	597000	2
5	3400	600000	0
5	3433	603000	3
5	3466	606000	1
5	3480	609000	1
5	3492	612000	1
5	3501	615000	0
5	3534	618000	2
5	3535	621000	0
5	3536	624000	0
5	3537	627000	0
5	3551	630000	1
5	3555	633000	0
5	3588	636000	2
5	3589	639000	0
5	3590	642000	0
5	3591	645000	0
5	3608	648000	1
5	3625	651000	1
5	3642	654000	1
5	3643	657000	0
5	3644	660000	0
5	3661	663000	1
5	3670	666000	1
5	3679	669000	1
5	3688	672000	0
5	3694	675000	0
5	3698	678000	0
5	3699	681000	0
5	3708	684000	1
5	3717	687000	0
5	3718	690000	0
5	3735	693000	2
5	3741	696000	0
5	3790	699000	3
5	3802	702000	0
5	3819	705000	1
5	3820	708000	0
5	3821	711000	0
5	3830	714000	1
5	3839	717000	0
5	3848	720000	1
5	3873	723000	1
5	3874	726000	0
5	3875	729000	0
5	3876	732000	0
5	3877	735000	0
5	3878	738000	0
5	3911	741000	2
5	3912	744000	0
5	3913	747000	0
5	3943	750000	3
5	4011	753000	4
5	4047	756000	1
5	4069	759000	2
5	4078	762000	0
5	4079	765000	0
5	4080	768000	0
5	4081	771000	0
5	4098	774000	1
5	4099	777000	0
5	4129	780000	2
5	4149	783000	1
5	4182	786000	2
5	4204	789000	1
5	4229	792000	2
5	4233	795000	0
5	4266	798000	2
5	4267	801000	0
5	4292	804000	2
5	4301	807000	0
5	4326	810000	2
5	4327	813000	0
5	4336	816000	0
5	4345	819000	1
5	4354	822000	0
5	4371	825000	1
5	4372	828000	0
5	4373	831000	0
5	4406	834000	2
5	4436	837000	2
5	4456	840000	1
5	4473	843000	1
5	4474	846000	0
5	4475	849000	0
5	4476	852000	0
5	4477	855000	0
5	4478	858000	0
5	4519	861000	2
5	4536	864000	2
5	4545	867000	0
5	4546	870000	0
5	4547	873000	0
5	4556	876000	1
5	4565	879000	0
5	4574	882000	1
5	4615	885000	3
5	4632	888000	0
5	4638	891000	0
5	4666	894000	2
5	4667	897000	0
5	4684	900000	1
5	4709	903000	2
5	4726	906000	1
5	4756	909000	2
5	4781	912000	1
5	4809	915000	2
5	4818	918000	0
5	4819	921000	0
5	4820	924000	0
5	4821	927000	0
5	4822	930000	0
5	4831	933000	1
5	4840	936000	0
5	4857	939000	1
5	4858	942000	0
5	4896	945000	3
5	4908	948000	0
5	4909	951000	0
5	4926	954000	2
5	4943	957000	0
5	4952	960000	1
5	4977	963000	1
5	4983	966000	0
5	4995	969000	1
5	5017	972000	2
5	5029	975000	0
5	5030	978000	0
5	5031	981000	0
5	5040	984000	1
5	5065	987000	1
5	5066	990000	0
5	5067	993000	0
5	5084	996000	1
5	5101	999000	1
5	5102	1002000	0
5	5103	1005000	0
5	5104	1008000	0
5	5113	1011000	1
5	5138	1014000	2
5	5163	1017000	1
5	5196	1020000	2
5	5213	1023000	1
5	5222	1026000	0
5	5231	1029000	1
5	5240	1032000	0
5	5249	1035000	1
6	498	102000	1
6	504	105000	0
6	521	108000	0
6	533	111000	2
6	534	114000	0
6	535	117000	0
6	557	120000	1
6	601	123000	3
6	618	126000	1
6	635	129000	1
6	644	132000	0
6	661	135000	1
6	694	138000	2
6	703	141000	1
6	728	144000	1
6	750	147000	1
6	770	150000	2
6	771	153000	0
6	772	156000	0
6	789	159000	1
6	814	162000	1
6	836	165000	1
6	840	168000	1
6	841	171000	0
6	847	174000	0
6	859	177000	1
6	860	180000	0
6	901	183000	0
6	950	186000	4
6	991	189000	4
6	1008	192000	1
6	1017	195000	0
6	1031	198000	1
6	1056	201000	0
6	1084	204000	3
6	1093	207000	0
6	1139	210000	3
6	1159	213000	2
6	1184	216000	0
6	1217	219000	3
6	1234	222000	1
6	1259	225000	1
6	1276	228000	2
6	1285	231000	0
6	1334	234000	2
6	1370	237000	2
6	1408	240000	4
6	1409	243000	0
6	1447	246000	1
6	1475	249000	3
6	1476	252000	0
6	1477	255000	0
6	1494	258000	0
6	1551	261000	4
6	1560	264000	1
6	1574	267000	0
6	1578	270000	1
6	1587	273000	0
6	1604	276000	1
6	1613	279000	1
6	1662	282000	2
6	1692	285000	2
6	1696	288000	1
6	1697	291000	0
6	1698	294000	0
6	1699	297000	0
6	1700	300000	0
6	1709	303000	0
6	1718	306000	0
6	1735	309000	2
6	1792	312000	3
6	1806	315000	0
6	1818	318000	2
6	1835	321000	1
6	1852	324000	0
6	1874	327000	1
6	1902	330000	3
6	1903	333000	0
6	1912	336000	0
6	1921	339000	1
6	1938	342000	1
6	1939	345000	0
6	1961	348000	1
6	1965	351000	0
6	1982	354000	1
6	1999	357000	1
6	2024	360000	2
6	2057	363000	1
6	2074	366000	2
6	2075	369000	0
6	2092	372000	1
6	2093	375000	0
6	2102	378000	0
6	2103	381000	0
6	2136	384000	2
6	2153	387000	1
6	2186	390000	2
6	2232	393000	3
6	2244	396000	1
6	2258	399000	0
6	2262	402000	1
6	2279	405000	0
6	2293	408000	1
6	2337	411000	3
6	2354	414000	0
6	2379	417000	3
6	2385	420000	0
6	2405	423000	1
6	2427	426000	1
6	2439	429000	1
6	2440	432000	0
6	2457	435000	1
6	2466	438000	1
6	2491	441000	0
6	2500	444000	2
6	2501	447000	0
6	2502	450000	0
6	2503	453000	0
6	2512	456000	0
6	2561	459000	2
6	2594	462000	3
6	2619	465000	2
6	2633	468000	0
6	2637	471000	1
6	2638	474000	0
6	2668	477000	0
6	2680	480000	2
6	2697	483000	1
6	2738	486000	3
6	2739	489000	0
6	2740	492000	0
6	2765	495000	0
6	2798	498000	3
6	2815	501000	1
6	2821	504000	0
6	2825	507000	0
6	2850	510000	2
6	2859	513000	1
6	2868	516000	0
6	2874	519000	0
6	2907	522000	2
6	2935	525000	2
6	2960	528000	2
6	2993	531000	0
6	3031	534000	4
6	3043	537000	1
6	3060	540000	1
6	3125	543000	3
6	3142	546000	2
6	3143	549000	0
6	3160	552000	1
6	3161	555000	0
6	3186	558000	1
6	3187	561000	0
6	3196	564000	0
6	3229	567000	3
6	3230	570000	0
6	3247	573000	1
6	3248	576000	0
6	3265	579000	1
6	3279	582000	0
6	3312	585000	2
6	3316	588000	0
6	3349	591000	2
6	3371	594000	2
6	3383	597000	0
6	3400	600000	2
6	3433	603000	1
6	3466	606000	3
6	3480	609000	0
6	3492	612000	1
6	3501	615000	1
6	3534	618000	2
6	3535	621000	0
6	3536	624000	0
6	3537	627000	0
6	3551	630000	0
6	3555	633000	1
6	3588	636000	2
6	3589	639000	0
6	3590	642000	0
6	3591	645000	0
6	3608	648000	1
6	3625	651000	1
6	3642	654000	1
6	3643	657000	0
6	3644	660000	0
6	3661	663000	1
6	3670	666000	0
6	3679	669000	0
6	3688	672000	1
6	3694	675000	0
6	3698	678000	1
6	3699	681000	0
6	3708	684000	0
6	3717	687000	1
6	3718	690000	0
6	3735	693000	0
6	3741	696000	0
6	3790	699000	3
6	3802	702000	2
6	3819	705000	1
6	3820	708000	0
6	3821	711000	0
6	3830	714000	0
6	3839	717000	1
6	3848	720000	0
6	3873	723000	2
6	3874	726000	0
6	3875	729000	0
6	3876	732000	0
6	3877	735000	0
6	3878	738000	0
6	3911	741000	2
6	3912	744000	0
6	3913	747000	0
6	3943	750000	0
6	4011	753000	5
6	4047	756000	2
6	4069	759000	2
6	4078	762000	1
6	4079	765000	0
6	4080	768000	0
6	4081	771000	0
6	4098	774000	1
6	4099	777000	0
6	4129	780000	1
6	4149	783000	2
6	4182	786000	2
6	4204	789000	1
6	4229	792000	1
6	4233	795000	1
6	4266	798000	2
6	4267	801000	0
6	4292	804000	1
6	4301	807000	1
6	4326	810000	1
6	4327	813000	0
6	4336	816000	1
6	4345	819000	0
6	4354	822000	1
6	4371	825000	1
6	4372	828000	0
6	4373	831000	0
6	4406	834000	2
6	4436	837000	1
6	4456	840000	2
6	4473	843000	1
6	4474	846000	0
6	4475	849000	0
6	4476	852000	0
6	4477	855000	0
6	4478	858000	0
6	4519	861000	2
6	4536	864000	1
6	4545	867000	1
6	4546	870000	0
6	4547	873000	0
6	4556	876000	0
6	4565	879000	1
6	4574	882000	0
6	4615	885000	2
6	4632	888000	2
6	4638	891000	0
6	4666	894000	2
6	4667	897000	0
6	4684	900000	1
6	4709	903000	1
6	4726	906000	1
6	4756	909000	1
6	4781	912000	2
6	4809	915000	2
6	4818	918000	1
6	4819	921000	0
6	4820	924000	0
6	4821	927000	0
6	4822	930000	0
6	4831	933000	0
6	4840	936000	1
6	4857	939000	1
6	4858	942000	0
6	4896	945000	1
6	4908	948000	2
6	4909	951000	0
6	4926	954000	0
6	4943	957000	2
6	4952	960000	0
6	4977	963000	2
6	4983	966000	0
6	4995	969000	1
6	5017	972000	0
6	5029	975000	2
6	5030	978000	0
6	5031	981000	0
6	5040	984000	0
6	5065	987000	2
6	5066	990000	0
6	5067	993000	0
6	5084	996000	1
6	5101	999000	1
6	5102	1002000	0
6	5103	1005000	0
6	5104	1008000	0
6	5113	1011000	0
6	5138	1014000	1
6	5163	1017000	2
6	5196	1020000	2
6	5213	1023000	1
6	5222	1026000	1
6	5231	1029000	0
6	5240	1032000	1
6	5249	1035000	0
7	506	105020.454779779569	1
7	513	107656.753345328225	0
7	517	107998.520140310687	1
7	525	109760.45089757641	0
7	542	118238.673218702209	1
7	544	119751.372328787605	0
7	562	120026.513375642759	1
7	567	120092.718603694017	2
7	569	120677.144005374429	1
7	574	120695.453554210003	0
7	591	121561.826630688006	1
7	593	122942.235681477907	0
7	608	124226.043811499813	1
7	610	125513.053844123798	0
7	625	126583.245326993753	1
7	627	126907.844135548531	0
7	642	131548.313727339946	1
7	645	132936.248236878107	0
7	659	133296.033220870843	1
7	667	135414.207492929061	0
7	671	135922.602796677488	1
7	678	137210.672402253258	0
7	692	137599.843782786918	1
7	695	138116.997155612506	0
7	710	141322.844387073932	1
7	718	141431.190848180507	2
7	720	142909.840766646944	1
7	729	145191.18347663876	0
7	743	145876.849665681809	1
7	745	146380.265574489652	0
7	760	148633.948127306441	1
7	762	149490.181880812803	0
7	779	156637.144158533729	1
7	781	156922.911348466586	0
7	796	159398.969172500717	1
7	798	159889.980231000085	0
7	812	160673.582680730669	1
7	815	162791.910374529783	0
7	829	164036.790971616082	1
7	831	164710.900929754849	0
7	849	174108.730735198367	1
7	851	175242.079581554486	0
7	867	180654.506540304089	1
7	878	181976.471849118342	2
7	882	181998.478990466142	1
7	885	182030.051105792331	0
7	892	182745.12445270822	1
7	897	182990.834977812778	2
7	910	183717.32463933786	1
7	924	183894.674217114993	2
7	935	184490.901027541434	3
7	940	184919.413072499563	4
7	942	185345.788726397234	3
7	951	186542.853014938116	2
7	959	187297.075636540472	1
7	973	187859.684487905148	2
7	975	188011.621330553634	1
7	983	188173.102805677322	0
7	998	189772.719265392715	1
7	1000	190589.54667959045	0
7	1015	192583.226257261837	1
7	1018	196603.109233136831	0
7	1033	198161.156479912993	1
7	1041	198179.395662635283	2
7	1052	200350.250989388829	3
7	1058	201561.105244205205	4
7	1060	201635.712786222347	3
7	1065	201649.844408473897	2
7	1068	201889.339215189409	1
7	1091	206976.593264849583	2
7	1099	207461.799452793865	1
7	1103	207931.776586859405	2
7	1107	208035.806741933025	1
7	1119	208584.317986913036	2
7	1126	208639.355935498004	1
7	1134	209997.176828818082	0
7	1149	210694.989646069177	1
7	1151	211233.949480899994	0
7	1166	213552.182925670095	1
7	1174	214165.903844466184	2
7	1176	215399.956048184709	1
7	1181	215856.079925703634	0
7	1199	216743.595043928296	1
7	1207	218171.013986701781	2
7	1209	218746.596931430587	1
7	1218	219653.369802500139	0
7	1232	221545.352444352559	1
7	1241	222226.20055289331	2
7	1243	222788.237825664816	1
7	1256	224842.570584689209	0
7	1261	225197.567968331539	1
7	1268	226503.355937674289	0
7	1283	230929.893524699315	1
7	1286	231035.92153053132	0
7	1300	231351.802989199236	1
7	1302	231759.645266477603	0
7	1319	233029.502771803711	1
7	1324	233378.516162216843	2
7	1332	233590.661356366591	3
7	1340	234881.946792748725	2
7	1344	234953.577533816093	3
7	1348	235591.168243484623	2
7	1359	236113.608854301212	1
7	1372	237011.296310375198	2
7	1377	237143.859807207912	3
7	1381	237360.986160270967	2
7	1392	238252.255707343408	1
7	1397	238282.596105763537	0
7	1416	243272.722789124547	1
7	1424	243899.400215862964	2
7	1432	244641.324948637942	3
7	1434	245040.529353054472	2
7	1439	245147.41916058025	1
7	1448	246141.058783867483	0
7	1465	248232.750966983865	1
7	1467	248507.269112740047	0
7	1484	255908.720416336943	1
7	1492	257154.562002153873	2
7	1501	258422.350628012422	3
7	1508	258495.09584338146	2
7	1512	258620.219670540054	3
7	1519	258831.501601873154	2
7	1527	259137.647562700764	1
7	1541	260138.268639735811	2
7	1543	260928.028192780998	1
7	1552	263058.689935176502	0
7	1567	264297.441621962777	1
7	1569	266877.316028273297	0
7	1585	271927.105014543113	1
7	1588	273046.274923685995	0
7	1602	273833.48911635046	1
7	1605	276417.593996646496	0
7	1623	279500.163507880068	1
7	1628	279814.292389476254	2
7	1638	281231.932281011143	1
7	1642	281480.688618008635	2
7	1647	281543.898990863594	3
7	1654	281821.933224355775	2
7	1668	282704.446883218126	1
7	1672	282941.92940596806	2
7	1679	283565.603303588099	1
7	1687	284526.528607247298	0
7	1707	300914.042455556162	1
7	1716	304090.54107684017	2
7	1719	306118.946730740274	1
7	1727	308455.103010723796	0
7	1745	309098.4413381765	1
7	1750	309103.371389621607	2
7	1752	309152.638341275057	1
7	1760	309415.793336841856	0
7	1769	310254.117936500646	1
7	1773	310283.956648862363	0
7	1790	310779.716141575273	1
7	1799	312785.274625206197	2
7	1801	314978.681079640258	1
7	1810	316705.436053667257	0
7	1825	320449.162324777266	1
7	1827	320782.834193403104	0
7	1842	322138.112975018625	1
7	1850	323529.448071764922	2
7	1858	325996.693516136099	1
7	1862	326333.990104673629	2
7	1866	326617.944631607013	1
7	1884	327616.373247169194	2
7	1886	328521.524679418359	1
7	1891	328595.362746780749	0
7	1910	335461.492918448834	1
7	1913	336806.156209576078	0
7	1928	339731.575778661252	1
7	1930	341316.193968136376	0
7	1946	347111.390487889257	1
7	1948	347124.598115967159	0
7	1963	348055.079833458774	1
7	1966	352094.657218167592	0
7	1980	353500.455131684326	1
7	1989	354910.623578112772	2
7	1991	355028.246403942753	1
7	2006	357594.969156450676	2
7	2008	357635.548857236241	1
7	2016	359817.268889275464	0
7	2031	360531.550119999908	1
7	2039	361149.3873546222	2
7	2047	361506.136246745028	3
7	2049	362335.121816111173	2
7	2058	363247.615493978743	1
7	2066	363791.971481521711	0
7	2082	369774.415245333751	1
7	2084	371147.656992972723	0
7	2100	377769.224183730948	1
7	2110	381205.317528078045	2
7	2118	382171.416359018032	3
7	2120	382592.454930703964	2
7	2128	383116.220965833451	1
7	2137	384435.174049561785	0
7	2151	386063.185131651808	1
7	2163	388280.610646190932	2
7	2168	388366.892458934207	3
7	2170	388454.11672737507	2
7	2178	388859.830230421045	1
7	2193	390284.188489334546	2
7	2195	390309.427448919145	1
7	2209	391073.691275530903	2
7	2211	391107.153750407992	1
7	2216	391885.963508614406	0
7	2234	393154.469229267511	1
7	2236	393582.751011640683	0
7	2251	396939.317142728528	1
7	2253	398891.023687783318	0
7	2269	403033.968804144664	1
7	2276	404452.421213208345	0
7	2281	406000.577922977708	1
7	2295	408208.672774266629	2
7	2297	408301.119486798004	1
7	2310	409157.581593330433	0
7	2314	409206.697020924932	1
7	2326	409860.403186051731	0
7	2330	410140.76474039892	1
7	2344	413001.381943300809	2
7	2352	413980.868676319187	3
7	2355	414002.839048357771	2
7	2363	414366.656932876301	1
7	2371	414779.263954946716	0
7	2387	420433.820997189716	1
7	2394	421012.208010534463	0
7	2398	421019.250783873345	1
7	2406	423389.789057136497	0
7	2420	425222.005641889435	1
7	2422	425410.109392789965	0
7	2437	428462.72513902893	1
7	2441	432525.970798977906	0
7	2455	433961.064465659209	1
7	2458	435719.729391071579	0
7	2473	438816.024823946024	1
7	2481	440673.898418498197	2
7	2483	440850.860615264641	1
7	2488	440865.83487215576	0
7	2510	454290.018984974581	1
7	2513	456117.569633402544	0
7	2530	456998.687983041393	1
7	2535	457150.492396947369	2
7	2542	457716.494079109062	1
7	2549	458100.992398738653	2
7	2554	458143.182814948013	3
7	2562	460182.204423668833	2
7	2570	460872.751618602994	1
7	2584	461307.545119294094	2
7	2586	461792.460893897955	1
7	2595	462117.021096200715	0
7	2609	463256.065336855249	1
7	2611	463778.396954595999	0
7	2626	467813.961059004626	1
7	2628	467989.451613176168	0
7	2645	474525.93356897946	1
7	2653	475807.913539125072	2
7	2661	476383.001350007655	3
7	2663	476895.303737922023	2
7	2672	478186.793210130112	1
7	2681	480547.115812681896	0
7	2695	482901.693046269909	1
7	2698	483064.840652883866	0
7	2712	484398.43349668216	1
7	2714	484451.227486837784	0
7	2728	484855.037989334257	1
7	2730	485282.052405544287	0
7	2747	493765.536854573155	1
7	2758	494616.435931646394	2
7	2763	494733.151762828837	3
7	2766	495298.039273888715	2
7	2771	495376.728850582694	1
7	2774	495814.39384393454	0
7	2791	496641.359270590561	1
7	2799	498034.774695872396	0
7	2813	500985.800025884514	1
7	2823	504201.588866763729	2
7	2826	507172.115349181894	1
7	2834	507416.906235794506	0
7	2848	509005.170652013204	1
7	2851	511784.092600963093	0
7	2866	515761.706094942204	1
7	2876	519004.929605458463	2
7	2878	519962.172620433376	1
7	2892	520713.918586172315	2
7	2894	521035.088605266572	1
7	2902	521857.678753748632	0
7	2917	522746.352355838799	1
7	2924	523211.76664271643	0
7	2928	523457.914955404359	1
7	2936	525299.946997531386	0
7	2950	526146.464509352857	1
7	2952	526357.926880806836	0
7	2970	529616.481376359341	1
7	2975	529641.946958121559	2
7	2983	530621.573716694926	3
7	2985	530934.377280309552	2
7	2990	530999.764954900259	1
7	3003	531584.56344071199	2
7	3010	532608.701584413604	1
7	3018	533473.450622005459	0
7	3033	534675.111054870162	1
7	3035	535966.338610050908	0
7	3050	538033.123005498191	1
7	3052	538782.286957335264	0
7	3067	540546.563307864194	1
7	3075	540865.943461903184	2
7	3083	540966.389639663945	3
7	3090	541197.561597603792	2
7	3093	541494.293914775022	1
7	3100	542068.461349656657	2
7	3104	542231.959726018954	1
7	3108	542580.512589267804	2
7	3126	543066.625327471543	1
7	3134	543452.128264471717	0
7	3150	550573.661959392599	1
7	3152	550886.367863356093	0
7	3168	556148.746651417628	1
7	3176	557335.750256546813	2
7	3178	557977.202650624737	1
7	3194	563551.369102219887	2
7	3197	564027.527737694547	1
7	3202	564518.279054045099	0
7	3219	565541.041655982866	1
7	3221	565905.782463021156	0
7	3237	571378.669310558458	1
7	3239	572157.645260765286	0
7	3255	576305.897411575675	1
7	3257	577253.587311623564	0
7	3272	580787.809458967797	1
7	3274	581137.374508983539	0
7	3289	583913.173023395007	1
7	3291	584074.715295046158	0
7	3308	584640.43899733627	1
7	3314	585067.47079754823	2
7	3317	588695.571882413876	1
7	3331	589831.175803856321	2
7	3333	590113.816165810421	1
7	3346	590567.670962574416	0
7	3351	591219.334599774761	1
7	3358	592177.424111368158	0
7	3373	594093.827884236458	1
7	3381	596049.710558184338	2
7	3384	597622.077460900276	1
7	3392	598257.053822174527	0
7	3407	600630.978916704553	1
7	3415	601114.219782215223	2
7	3417	601437.787349631402	1
7	3431	602823.779757143501	2
7	3434	603618.361437584343	1
7	3448	604168.12143937848	2
7	3450	604247.990282981956	1
7	3458	604648.175290038966	0
7	3476	608128.818135843013	1
7	3482	609091.740007670282	2
7	3484	609796.832954462243	1
7	3493	614855.32460870145	0
7	3508	615719.405253057401	1
7	3516	616065.575795099214	2
7	3518	616517.391457674892	1
7	3526	617587.254317938225	0
7	3544	629251.597889551929	1
7	3546	629531.897428775168	0
7	3562	633961.767542726955	1
7	3570	634747.037382399111	2
7	3572	634967.440991501628	1
7	3577	635032.857771880281	0
7	3598	645665.953975264273	1
7	3600	646916.208434113268	0
7	3615	648905.293129681397	1
7	3617	649675.846740292952	0
7	3632	652417.54583578263	1
7	3634	653351.725619560074	0
7	3651	660567.768344899559	1
7	3653	661576.247915447868	0
7	3668	664779.962174922625	1
7	3677	666662.704889873448	2
7	3680	670226.318551612177	1
7	3689	674030.456102161512	0
7	3706	682603.024367393846	1
7	3709	684628.371553183497	0
7	3725	691462.078917325752	1
7	3733	692476.640691900071	2
7	3743	696179.194924366341	3
7	3751	696237.536481552656	4
7	3753	696305.467986937419	3
7	3758	696598.24692537755	2
7	3769	698093.690247528631	1
7	3783	698946.02321814643	2
7	3785	698952.247508200124	1
7	3794	699771.79355086361	0
7	3809	704379.980341030446	1
7	3811	704399.059747882704	0
7	3828	713971.564371699029	1
7	3831	714231.641484780281	0
7	3846	718236.665243489394	1
7	3849	720562.003137972716	0
7	3863	721590.90437229739	1
7	3865	722603.67895815513	0
7	3888	739385.422182641827	1
7	3893	739622.396883835625	2
7	3895	740007.526166921278	1
7	3903	740405.162653958171	0
7	3926	748792.196181702733	1
7	3934	749513.090605320514	2
7	3939	749519.145506057189	3
7	3945	750003.455061036767	4
7	3947	750035.784420359895	3
7	3963	750469.226657733269	2
7	3967	750651.071591816041	3
7	3971	750703.473357169927	2
7	3975	750869.595227004788	3
7	3984	750921.650371845344	2
7	3987	750946.189773997947	1
7	4009	752457.83222956615	2
7	4018	753251.658275631761	3
7	4020	755149.936340570153	2
7	4028	755402.884892138117	1
7	4036	755442.374262202684	0
7	4054	756166.83215486973	1
7	4059	756756.947542509734	2
7	4061	756768.588060104958	1
7	4070	759641.365437259202	0
7	4088	771667.07957956839	1
7	4090	773245.605107686174	0
7	4106	777817.983125586708	1
7	4108	777880.011720759435	0
7	4125	779528.07654713522	1
7	4131	780021.985805260652	2
7	4133	780544.904133622176	1
7	4141	782468.974179757863	0
7	4159	784078.959217757684	1
7	4163	784139.343371236927	0
7	4167	784377.08852090682	1
7	4174	784965.130987724883	0
7	4189	787779.162214221924	1
7	4191	788163.346569317264	0
7	4206	789041.317977008676	1
7	4208	789880.448410099452	0
7	4222	790853.510977018844	1
7	4224	791759.29902291577	0
7	4243	795463.685904362806	1
7	4248	795810.519585092475	2
7	4250	796238.732379176493	1
7	4258	796618.645785481911	0
7	4274	802658.652778022681	1
7	4281	803456.127926059144	0
7	4285	803459.6658208407	1
7	4293	805391.283338407822	0
7	4308	807475.560869829017	1
7	4316	808606.570698973269	2
7	4318	809583.331373163943	1
7	4328	814106.745607633519	0
7	4343	818579.417666899075	1
7	4346	819527.388651382526	0
7	4361	823450.910488040363	1
7	4363	824052.915623182428	0
7	4380	832160.265768108678	1
7	4387	832294.438460006162	0
7	4391	832357.218091838128	1
7	4398	833547.235766184422	0
7	4413	835552.80262161457	1
7	4421	836252.850530760227	2
7	4423	836699.015779225223	1
7	4431	836912.937455278932	0
7	4446	837577.52608672909	1
7	4448	838480.440960294312	0
7	4463	841873.292759315739	1
7	4465	842686.199506226145	0
7	4485	858520.875801698943	1
7	4487	859086.57280557196	0
7	4501	859444.528070700253	1
7	4503	859512.320746092067	0
7	4521	861360.242761500072	1
7	4525	862045.907518912783	0
7	4529	862937.077704184872	1
7	4537	864657.344138563752	0
7	4554	875959.346712671058	1
7	4557	877100.991228595149	0
7	4572	881419.119223446646	1
7	4581	882339.48724854107	2
7	4583	882449.78268014934	1
7	4597	882936.541088824619	2
7	4599	884042.257479725653	1
7	4613	884856.021200613248	2
7	4616	885370.872797281986	1
7	4624	885797.929340075157	0
7	4640	891104.6822257869	1
7	4642	891938.191297629845	0
7	4656	892869.419020080902	1
7	4658	893097.207694201573	0
7	4674	897082.819358473012	1
7	4676	898862.869604013758	0
7	4691	900459.370206669112	1
7	4693	901096.219657604334	0
7	4707	902542.878587721366	1
7	4710	903551.895507494974	0
7	4724	903856.914117313469	1
7	4733	906475.946916070876	2
7	4741	906526.441234818801	3
7	4743	908455.984275805664	2
7	4748	908591.284465172517	1
7	4766	910556.211444801128	2
7	4768	910804.759011268378	1
7	4776	911361.706200159012	0
7	4791	912150.503495807151	1
7	4793	912252.227592667118	0
7	4807	914733.377344132913	1
7	4810	916765.276961749525	0
7	4829	931696.941289579545	1
7	4832	933315.432012969506	0
7	4847	936784.902741798305	1
7	4849	937415.212250596039	0
7	4865	943253.784407229007	1
7	4876	943783.241560697167	2
7	4881	943913.350605043981	3
7	4883	944604.296293033657	2
7	4888	944771.382135807015	1
7	4900	945416.626877492357	0
7	4916	953424.047204010446	1
7	4924	953572.636630500983	2
7	4927	954200.578575596645	1
7	4935	954326.312004774203	0
7	4950	958931.428561346026	1
7	4953	960460.036104033255	0
7	4967	962586.634898255633	1
7	4969	962760.752385650844	0
7	4985	966805.376302746075	1
7	4987	966831.450688000806	0
7	5002	971079.376849285772	1
7	5010	971422.211172488781	2
7	5012	971920.52749912093	1
7	5021	973151.655490988533	0
7	5038	982868.884292220687	1
7	5047	985754.403741305548	2
7	5049	985876.500719421616	1
7	5057	986227.681952472738	0
7	5074	993104.3505818821	1
7	5076	993183.784153811917	0
7	5091	997237.071426693657	1
7	5093	997391.230793388422	0
7	5111	1010325.964874091552	1
7	5123	1012390.209336220622	2
7	5128	1012631.630951867128	3
7	5130	1013484.2501906868	2
7	5139	1014100.91128900423	1
7	5153	1015749.700262656799	2
7	5155	1016031.818830975956	1
7	5169	1017613.126747110275	0
7	5176	1018114.339397831488	1
7	5181	1018132.736514310485	2
7	5188	1018491.711064586555	1
7	5197	1020082.483247314172	0
7	5211	1020795.016967466346	1
7	5214	1024182.392805020983	0
7	5229	1028118.293695643186	1
7	5232	1030121.504507503922	0
7	5247	1032530.805241277598	1
7	5256	1035682.889525026637	2
7	5258	1036393.817230690803	1
