version 2
run ParkingMeasurement-89-20170108-17:30:46-5506
attr configname ParkingMeasurement
attr datetime 20170108-17:30:46
attr experiment ParkingMeasurement
attr inifile parkingStudy.ini
attr iterationvars ""
attr iterationvars2 $repetition=89
attr measurement ""
attr network controltower.SimNetwork
attr processid 5506
attr repetition 89
attr replication #89
attr resultdir results
attr runnumber 89
attr seedset 89
param SimNetwork.a.parkingLot.parkingDelay exponential(30min)
param SimNetwork.a.runway.landingTime exponential(5min)
param SimNetwork.a.runway.takeoffTime exponential(5min)
param SimNetwork.a.runway.throughputCheckInterval 50min
param SimNetwork.wg.interArrivalTime exponential(50min)

statistic SimNetwork.wg 	responseTime:stats
field count 308
field mean 5682.3008627269
field stddev 3566.0893437043
field sum 1750148.6657199
field sqrsum 13848988187.756
field min 650.3100630637
field max 17440.747946169
attr source  responseTimeSignal
scalar SimNetwork.a.landingQueue 	queueLength:timeavg 	0.028129910228113
attr source  queueLengthSignal
statistic SimNetwork.a.landingQueue 	queueLength:stats
field count 620
field mean 0.53548387096774
field stddev 0.54553460438909
field sum 332
field sqrsum 362
field min 0
field max 3
attr source  queueLengthSignal
statistic SimNetwork.a.landingQueue 	queueTime:stats
field count 310
field mean 84.885803436634
field stddev 212.48803638453
field sum 26314.599065357
field sqrsum 16185446.056201
field min 0
field max 1432.1801662955
attr source  queueTimeSignal
scalar SimNetwork.a.takeoffQueue 	queueLength:timeavg 	0.025923231521004
attr source  queueLengthSignal
statistic SimNetwork.a.takeoffQueue 	queueLength:stats
field count 616
field mean 0.52597402597403
field stddev 0.52511619400894
field sum 324
field sqrsum 340
field min 0
field max 2
attr source  queueLengthSignal
statistic SimNetwork.a.takeoffQueue 	queueTime:stats
field count 308
field mean 78.50671928836
field stddev 255.20373835913
field sum 24180.069540815
field sqrsum 21892884.990063
field min 0
field max 2125.0976563214
attr source  queueTimeSignal
scalar SimNetwork.a.parkingLot 	parkingOccupancy:timeavg 	0.60771604828718
attr source  parkingOccupancy
statistic SimNetwork.a.parkingLot 	parkingOccupancy:stats
field count 618
field mean 1.1019417475728
field stddev 0.87331933512709
field sum 681
field sqrsum 1221
field min 0
field max 4
attr source  parkingOccupancy
