version 2
run ParkingMeasurement-89-20170108-17:29:55-5157
attr configname ParkingMeasurement
attr datetime 20170108-17:29:55
attr experiment ParkingMeasurement
attr inifile parkingStudy.ini
attr iterationvars ""
attr iterationvars2 $repetition=89
attr measurement ""
attr network controltower.SimNetwork
attr processid 5157
attr repetition 89
attr replication #89
attr resultdir results
attr runnumber 89
attr seedset 89
param SimNetwork.a.parkingLot.parkingDelay "truncnormal(60min, 6min)"
param SimNetwork.a.runway.landingTime "truncnormal(5min, 0.5min)"
param SimNetwork.a.runway.takeoffTime "truncnormal(5min, 0.5min)"
param SimNetwork.a.runway.throughputCheckInterval 14.286min
param SimNetwork.wg.interArrivalTime exponential(14.286min)

statistic SimNetwork.wg 	responseTime:stats
field count 1053
field mean 5837.354577738
field stddev 1163.4980036046
field sum 6146734.3703581
field sqrsum 37304789454.769
field min 3655.0756596892
field max 10778.52438245
attr source  responseTimeSignal
scalar SimNetwork.a.landingQueue 	queueLength:timeavg 	0.19125291463759
attr source  queueLengthSignal
statistic SimNetwork.a.landingQueue 	queueLength:stats
field count 2108
field mean 0.71062618595825
field stddev 0.73216233615917
field sum 1498
field sqrsum 2194
field min 0
field max 5
attr source  queueLengthSignal
statistic SimNetwork.a.landingQueue 	queueTime:stats
field count 1054
field mean 165.64515600873
field stddev 198.02695835734
field sum 174589.9944332
field sqrsum 70213040.942235
field min 0
field max 1486.2165169404
attr source  queueTimeSignal
scalar SimNetwork.a.takeoffQueue 	queueLength:timeavg 	0.68494083355342
attr source  queueLengthSignal
statistic SimNetwork.a.takeoffQueue 	queueLength:stats
field count 2106
field mean 1.2996201329535
field stddev 1.6275449205657
field sum 2737
field sqrsum 9133
field min 0
field max 10
attr source  queueLengthSignal
statistic SimNetwork.a.takeoffQueue 	queueTime:stats
field count 1053
field mean 595.28597251973
field stddev 903.7438298257
field sum 626836.12906327
field sqrsum 1232370815.9653
field min 0
field max 5075.7896096158
attr source  queueTimeSignal
scalar SimNetwork.a.parkingLot 	parkingOccupancy:timeavg 	4.1466658890454
attr source  parkingOccupancy
statistic SimNetwork.a.parkingLot 	parkingOccupancy:stats
field count 2107
field mean 4.6478405315615
field stddev 2.1037543515151
field sum 9793
field sqrsum 54837
field min 0
field max 13
attr source  parkingOccupancy
