version 2
run ParkingMeasurement-9-20170106-02:04:58-12598
attr configname ParkingMeasurement
attr datetime 20170106-02:04:58
attr experiment ParkingMeasurement
attr inifile parkingStudy.ini
attr iterationvars ""
attr iterationvars2 $repetition=9
attr measurement ""
attr network SimNetwork
attr processid 12598
attr repetition 9
attr replication #9
attr resultdir results
attr runnumber 9
attr seedset 9
param SimNetwork.a.parkingLot.parkingDelay "truncnormal(60min, 6min)"
param SimNetwork.a.runway.landingTime "truncnormal(5min, 0.5min)"
param SimNetwork.a.runway.takeoffTime "truncnormal(5min, 0.5min)"
param SimNetwork.a.runway.throughputCheckInterval 14.286min
param SimNetwork.wg.interArrivalTime exponential(14.286min)

vector 2  SimNetwork.a.landingQueue  queueLength:vector  ETV
attr source  queueLengthSignal
vector 1  SimNetwork.a.landingQueue  queueTime:vector  ETV
attr source  queueTimeSignal
vector 7  SimNetwork.a.parkingLot  parkingOccupancy:vector  ETV
attr source  parkingOccupancy
vector 4  SimNetwork.a.takeoffQueue  queueLength:vector  ETV
attr source  queueLengthSignal
vector 3  SimNetwork.a.takeoffQueue  queueTime:vector  ETV
attr source  queueTimeSignal
vector 5  SimNetwork.a.runway  landedThroughput:vector  ETV
attr source  landedThroughputSignal
vector 6  SimNetwork.a.runway  tookoffThroughput:vector  ETV
attr source  tookoffThroughputSignal
vector 0  SimNetwork.wg  responseTime:vector  ETV
attr source  responseTimeSignal
0	2477	121738.026231584104	6187.9715961147
0	2485	122221.38652069502	4826.4179371133
0	2505	125742.093161708417	7996.5523615722
0	2531	127085.823902845648	5961.0257948064
0	2566	130044.503363921388	6777.9285874869
0	2583	130837.796515017013	4983.3302900271
0	2620	132493.438361083899	6622.7284429162
0	2631	132784.138197283294	5173.7207775781
0	2654	133734.720699795203	6300.873540354
0	2659	134047.121198637819	5797.8121165819
0	2680	135541.77709218107	5341.414217973
0	2685	135838.104827210076	4587.2086468803
0	2693	136256.624923715965	5083.9991366708
0	2708	136912.672187532639	5480.6425583618
0	2727	137804.717282237739	5082.4704927156
0	2778	139977.440949095323	6930.8236854533
0	2798	141416.378297734579	6594.1465285488
0	2807	141751.848904406473	5115.5115352293
0	2812	142068.238251080657	5014.9043833454
0	2832	142749.116442522674	4698.956441709
0	2846	143049.009597993159	4315.8636227325
0	2865	143925.649893612667	5870.4694341745
0	2874	144206.148372738275	5313.3467092602
0	2887	144761.083223306106	5468.2367565784
0	2969	148210.729063889638	6103.6193973857
0	2978	148492.191117948047	7643.8283967016
0	2983	148790.126858201048	5914.197007498
0	2994	149088.389233948986	6111.5190128775
0	3000	149393.917979180323	5276.2758664099
0	3005	149632.865764092758	4866.7798887036
0	3022	150469.345993319067	4985.3405778419
0	3036	150839.089258402275	4819.7040156763
0	3048	151205.605718799187	4849.4035005332
0	3062	151791.901766421589	5354.4360012235
0	3084	152658.589721844968	6072.6966255756
0	3089	152922.692670043742	5876.6274742822
0	3106	154203.127182582771	6579.3683263568
0	3118	154707.324219746737	4851.708077576
0	3148	155982.421512896866	4949.3548320974
0	3157	156416.00228629189	4895.3513835003
0	3166	157034.346886873655	5173.5421845995
0	3195	159410.289849062566	4575.1618071064
0	3204	159729.99579572303	6752.0359257114
0	3209	160038.120401712689	5470.1329958646
0	3219	161745.2350989462	6858.3168328872
0	3253	163419.777224599308	6217.0916622027
0	3307	166232.477675156065	7420.2754536802
0	3319	166477.531719767059	4364.2853194425
0	3332	167046.484259590064	4807.1364969481
0	3347	168165.619807481054	5581.2916269922
0	3358	168575.074232683956	5103.8048198416
0	3367	168865.165421753009	4859.7744473785
0	3372	169164.569096492917	5080.7841959248
0	3383	169669.500775692322	5438.6033445826
0	3406	170597.158060012803	4974.6256538502
0	3414	170931.107464197546	4497.2013439105
0	3441	173331.330024269724	6300.6351834616
0	3449	173786.524862503858	4369.1133634823
0	3509	176611.19829698107	6807.6565503696
0	3517	176906.984243600011	4584.4624754752
0	3545	178186.085514259029	5439.7520645596
0	3562	178834.70171317197	5043.8540052476
0	3618	180652.975763070523	5228.2805518006
0	3627	180928.086239171081	6333.4628353609
0	3638	181265.00990321094	6210.1594111715
0	3703	183521.444027346388	7709.4980817969
0	3708	183763.36117398905	7920.2057462426
0	3716	184055.440756957168	6927.8345769092
0	3725	184345.47165745754	6803.737391979
0	3733	184678.214105715256	5555.4401354044
0	3758	185579.973757336441	7490.4716137405
0	3763	185887.706046089128	7347.7739782479
0	3775	186209.201213669167	6523.3629740819
0	3783	186529.178232026472	7529.6486294413
0	3788	186795.528135774439	6945.8181460869
0	3797	187055.200464845437	5854.3258794663
0	3805	187390.677655696368	6459.7492492652
0	3824	188308.443867249715	6908.0967676747
0	3838	188563.591511232816	6492.4536373961
0	3860	189377.789091277533	7020.501302679
0	3896	190916.337267712624	6353.3218512111
0	3902	191229.211630693951	8602.7424182533
0	3914	192243.091406876012	7469.7706135036
0	3922	192559.346825920234	5217.4242664841
0	3934	192876.677512397811	5249.9132069106
0	3947	193448.341443892841	5077.0627881625
0	3953	193739.427582180283	4417.325361752
0	3967	194219.621233157039	4646.4854893032
0	3984	194797.068687337157	6317.570491711
0	3997	195388.682136362139	5447.6096108579
0	4036	196956.032345387145	6712.4480536259
0	4077	199004.086737300933	6248.8653855759
0	4093	199605.296218177898	5486.6965732078
0	4110	200257.831014342887	5597.9459380548
0	4115	200545.384670924151	5015.4813195609
0	4124	200814.031312002714	5686.419342387
0	4129	201079.824772702469	5242.7232738846
0	4155	202355.206082836069	6075.810473579
0	4166	202710.178132286341	4978.4927967313
0	4174	202972.823642652913	4998.9220130583
0	4189	203317.866401126112	4976.8480521513
0	4213	204475.074600894613	5563.6707508331
0	4239	206047.834601835781	6713.1295212979
0	4251	206641.19124755078	5342.2478968408
0	4268	207603.908620982025	4620.8181698542
0	4276	207912.321837159814	6164.018722989
0	4281	208170.86207784739	4969.2950707832
0	4296	208913.532731507473	5598.8625466518
0	4352	211055.04196929929	6344.0502559351
0	4393	212492.857920992335	7753.4920641135
0	4402	212787.814165589263	6216.5508620968
0	4410	213101.476903307079	4376.4700359582
0	4427	213737.134430963163	5040.9205076631
0	4438	214011.945203758042	4547.5892534622
0	4446	214288.161503312918	4697.020546448
0	4460	214914.667486424675	5052.2307455699
0	4468	215132.165127061704	4299.9733918218
0	4480	215463.829300395683	5461.3190511723
0	4494	216071.005928208067	4759.3688577427
0	4516	217005.074633347241	5447.8718492825
0	4524	217703.197508218166	6067.9716372951
0	4533	218342.769745617357	5490.775430432
0	4551	219761.281151980024	5723.5333102925
0	4582	220943.717419106421	5512.5996338485
0	4593	221604.837298050839	5595.8669469502
0	4611	223136.146791380838	6843.1363719977
0	4634	224243.921848092196	5017.5998278529
0	4651	224853.608075688306	4986.7350596975
0	4690	226398.081005186668	6277.075983304
0	4706	226960.632469518043	6041.4339653992
0	4712	227248.645903616407	4786.3763485927
0	4751	228651.769137118024	4558.1476695601
0	4773	229577.903555276056	5967.4352539404
0	4788	229847.943287833758	5050.2092636056
0	4807	230792.813413429249	6012.1238442263
0	4815	231106.957446331268	6219.0971047521
0	4824	231446.056592514074	6364.6654802677
0	4832	231756.014786227091	5533.188462973
0	4837	232028.712484371143	4622.6403636729
0	4846	232510.033833027283	4527.6431942627
0	4854	232847.0364196134	5135.4767587027
0	4863	233351.781659926389	4956.7310952212
0	4877	233734.176793018138	4123.0164896591
0	4888	234394.372065377146	5614.3609689521
0	4948	237989.800271751547	8074.7976488521
0	4960	238401.052334890541	4954.1429854942
0	5010	239993.723616814433	5159.3272818992
0	5021	240627.082837914274	6172.9899459483
0	5033	240926.32875061393	5945.4359008716
0	5043	241547.315394288369	5474.2254762178
0	5049	241820.684767259841	5606.8519101105
0	5116	244054.254753767472	6987.463096038
0	5125	244346.871619099148	6011.8771274414
0	5139	244685.886125186227	6220.30582388
0	5155	245536.286347074777	6854.9262766213
0	5160	245864.636803858001	6736.0947176885
0	5172	246181.326666542479	6387.4788196694
0	5180	246476.816063566831	4453.2130262819
0	5191	246801.597653043615	6169.2371613555
0	5205	247441.179840906236	5330.1087488518
0	5211	247757.164220246438	5417.1722649641
0	5216	248057.320080896535	5152.5232420525
0	5230	248450.814022647935	5630.5630670357
0	5247	249010.875571925837	5948.2133032218
0	5272	249912.795445529705	5394.0068142778
0	5314	251449.516473639557	6796.1383525123
0	5333	252542.155041947476	5817.851526402
0	5345	253110.714665921006	4777.1021447735
0	5376	254108.654918307546	5159.9683422869
0	5390	254721.173565622096	5447.1751966202
0	5401	255044.062047214725	5387.2640134504
0	5426	255929.064645760516	6090.3218581708
0	5431	256211.818338308687	5824.8725946496
0	5440	256523.725777879132	5966.8143133907
0	5456	257056.504134071949	5641.6725851388
0	5470	257686.887156960702	4734.9436694028
0	5475	257945.543921880177	6520.2394182644
0	5498	258521.70988386963	5409.4811170708
0	5509	259090.135487418105	5262.0454702259
0	5518	259912.190226515829	4929.1992578556
0	5549	261354.148248622007	5140.7124822451
0	5560	261935.518632174128	6876.0809275541
0	5572	262309.822718637239	5492.2954810299
0	5585	262867.225457100832	4886.4936482423
0	5601	264541.309002386617	4055.1598504194
0	5615	265131.830322522546	6617.644589423
0	5632	265761.396253383854	5213.0776527488
0	5645	266462.737909078305	5287.32881459
0	5700	269246.896191267121	7096.8418430398
0	5711	269559.206012379729	5040.6470506497
0	5722	270150.480576639592	5307.6741768697
0	5736	270496.918574782447	4930.0087274197
0	5753	271076.656798838868	4567.3763003609
0	5794	272459.501120707007	5870.5130493038
0	5800	272724.186261173856	5870.2021285296
0	5808	273003.25853893339	5803.6362193468
0	5822	273997.576339449111	5685.9641594097
0	5831	274461.407135598738	5068.3569274686
0	5849	275491.911151751945	5036.9277207972
0	5854	275763.622016270795	4880.4585914901
0	5863	276090.669348410799	4945.5152586295
0	5876	276700.875924526538	5293.2088096014
0	5968	280062.722684456303	8553.6573460311
0	5974	280315.88816359721	7323.8816421264
0	5985	280760.095889668905	4762.0727867562
0	6039	282192.015637233429	5490.6406554513
0	6067	283100.048729488727	6633.3071564279
0	6075	283419.094208538861	6692.9930842313
0	6089	284000.989021127103	6141.2763110238
0	6094	284326.959773265618	7267.2357228758
0	6103	284665.172851912852	6615.143892544
0	6111	284977.617979728193	6124.0111257609
0	6119	285295.425903207537	6978.7849227271
0	6159	286413.846916152565	7530.1617170037
0	6170	286692.361789718843	7480.9613396095
0	6189	287646.010181819344	6910.9980418856
0	6194	287955.826938623509	6834.9299102585
0	6200	288258.479486474113	7192.7234054437
0	6205	288555.353466327023	6381.5445305874
0	6211	288879.446032968079	7293.514600221
0	6219	289192.350303277072	6957.286925107
0	6227	289467.060727152387	6137.7769493084
0	6270	290802.156648152529	5723.5345189914
0	6280	291366.434638745863	5851.3566129172
0	6286	291715.536846262728	5285.5360513194
0	6291	292046.578006358225	6322.6295264391
0	6301	293503.251833472106	6924.2994734298
0	6312	293881.664806172279	4489.7662707942
0	6321	294190.121752258346	4388.5928651538
0	6338	295102.598164105014	4957.3853763157
0	6395	298641.538219190767	7863.6058739038
0	6404	299457.23283254188	5463.2266836629
0	6412	299830.347606789058	4870.3476626956
0	6430	300138.334878894323	4725.1615007755
0	6460	301449.184752530627	6053.4436898882
0	6474	302110.45392176991	6575.0093178424
0	6482	302416.963832476772	6424.4611480128
0	6511	303953.946510133992	3926.555492329
0	6525	304542.997398335694	6890.0767946564
0	6553	305522.946695098271	5392.4988558388
0	6575	306414.861827842374	5788.6835811249
0	6580	306705.083178273789	5263.1304646358
0	6592	307175.796934465023	4954.561067876
0	6606	307808.87668972787	4472.89202968
0	6614	308315.958972832996	4417.3037305728
0	6626	308846.170354784541	4331.8172892852
0	6643	309621.496267711585	4262.9461495948
0	6651	309952.853686975893	5118.2301112791
0	6702	312643.091360727539	7051.4687371027
0	6708	313008.81955997522	5855.5293482422
0	6725	314405.701720025853	5713.9133574158
0	6742	315034.564501240729	5246.8806676057
0	6754	315487.719971299436	4210.9319437644
0	6762	315808.463968029698	4692.3750199507
0	6767	316075.05166756767	4709.3669474515
0	6785	317362.588395727307	5923.5392517179
0	6794	318772.558413542611	5145.5213617314
0	6804	320535.660947155424	6123.8742469558
0	6929	327678.312994080812	4837.8760773358
0	6943	328360.198921142855	11914.06724706
0	6962	329011.48289517657	5460.8159875145
0	6987	329894.136054979932	6934.0335603623
0	6999	330205.194024026249	6529.0647314517
0	7012	330814.933443138953	5334.2786662941
0	7024	331091.446832372988	5964.4035360736
0	7040	331624.009588443084	6565.9368418032
0	7049	331917.633856917653	6580.470451583
0	7077	332803.531579609007	6567.3350791182
0	7090	333370.759253875474	7214.1510665407
0	7096	333651.842236802224	7883.8428058327
0	7107	333971.760044846862	7051.3626725419
0	7132	334944.010891661913	7480.9165415241
0	7163	336158.445568980522	8062.4368766054
0	7171	336397.342539890283	7656.3786356309
0	7176	336694.973252898287	7810.7589051332
0	7182	336939.5615221253	7006.882362653
0	7190	337252.322638281722	6232.4262770067
0	7195	337495.347688146044	5678.8673902918
0	7201	337769.910199248094	5800.3432755843
0	7227	338601.989106170531	6069.9057488798
0	7243	339278.727808587722	5514.4202536665
0	7249	339585.748249764841	5813.4926772477
0	7254	339853.9588818265	5081.4368981272
0	7259	340136.700166366094	5089.5207007334
0	7273	342081.919961420852	6991.3879650385
0	7290	343477.961975727842	5570.9672385642
0	7346	346181.986373573617	7861.8018119605
0	7364	347232.34594933259	5410.4893664084
0	7380	348001.128103597858	4613.7561627279
0	7392	348595.219502565883	5070.2732660219
0	7401	348912.797434999739	5373.6203172499
0	7414	349503.8606021925	5226.044591556
0	7434	350465.119087738326	5289.5242075054
0	7448	351294.525018815412	5979.1975410462
0	7457	351916.714637892086	5415.8771586851
0	7474	352598.058853092011	5197.2141001757
0	7544	354892.898562682716	5181.9705591669
0	7549	355189.517458294841	6493.0766357946
0	7561	356492.769441697713	6121.9760441586
0	7570	356873.614846108517	4223.0852222871
0	7575	357164.290835491971	5163.4891936936
0	7593	357685.545160886422	4251.1145254994
0	7607	358366.341411384731	4807.7569782443
0	7615	358654.256307757736	5714.2340502228
0	7623	358919.886250210333	5812.850751599
0	7634	359537.261742333887	5745.058227221
0	7653	361846.965252493563	8028.1391701915
0	7670	362794.309027624917	5129.2246833888
0	7680	365093.840058151176	6377.4705893036
0	7715	367194.032975673721	5974.3271961286
0	7761	369888.082220235064	7746.8591504103
0	7794	371081.242514430627	5024.0406009282
0	7800	371418.305985566416	5255.4908922241
0	7811	371936.182319732555	5707.3961575107
0	7817	372183.239834219799	4849.5186936078
0	7857	373807.228593510196	6051.701083737
0	7862	374155.687232826123	4842.0703592459
0	7870	374442.050135253845	5874.5647226722
0	7876	374755.631271067425	5157.8556237729
0	7884	375236.599817618863	5033.3028548641
0	7896	376291.209771188948	3664.8863758229
0	7913	376901.897503518947	6521.1872566368
0	7927	377500.812952111691	4753.4984431024
0	7998	381044.705375637213	8148.7698839841
0	8046	382542.495256266786	6483.4946348293
0	8054	382799.037985137915	6064.2857088228
0	8093	383962.379054943376	6365.0156887215
0	8107	384560.311818986611	6873.2536785647
0	8119	384877.129431201551	6460.9962079026
0	8144	385760.678168798594	6836.3523565708
0	8163	386384.917718004997	7103.1623594427
0	8169	386719.011699901229	6743.6455255756
0	8180	387036.59627475892	6974.4492811588
0	8188	387316.198576964953	6565.2086706851
0	8219	388532.383448902866	6883.5647271332
0	8227	388788.368638835758	7631.0932808034
0	8238	389123.324995667036	7581.2866421163
0	8249	389726.560248224929	6992.0036228082
0	8258	390022.486243246943	7086.2011955642
0	8263	390348.508272369527	7011.6873761158
0	8268	390674.095849849068	6776.7554234205
0	8274	390968.451382557255	6238.0966820276
0	8279	391271.802091414928	6376.7042621898
0	8291	391821.071418309708	4648.1038030803
0	8307	392454.236094502283	6758.0678432581
0	8313	392745.835047223678	5417.5507542114
0	8321	393382.284508248953	5657.2987949566
0	8357	396328.069617105915	7407.5801291887
0	8399	398050.884252530716	6340.3031469845
0	8408	398882.576301312221	5469.7947039745
0	8417	399665.498775370251	5147.3846377249
0	8442	400734.260898398331	4299.0475167699
0	8454	401183.420318651559	4540.2024908855
0	8459	401432.160537696224	6070.305332544
0	8468	402080.298110137329	4889.4414674686
0	8494	403957.604605897252	6537.8447903495
0	8509	404956.906863373624	5166.3914476236
0	8532	406496.377875600183	6464.0406960705
0	8610	409140.756617312843	7023.8769372967
0	8615	409435.269325047768	6286.1233279474
0	8623	409702.827574369751	4833.7029415215
0	8649	410923.862877349556	6003.1769026264
0	8666	411528.567089239682	4657.8374771547
0	8680	411887.453898687971	5463.8209485338
0	8697	412494.692817004659	5996.6713259639
0	8705	412771.263033921292	5776.8600932179
0	8741	413975.794675152309	6799.9565445039
0	8747	414249.479098029399	7034.4928291306
0	8755	414501.144092953426	7163.5388770704
0	8769	415127.10191025937	5571.2923675198
0	8774	415425.96769132215	7106.8784152404
0	8780	415767.63935838029	5832.9416083065
0	8788	416280.432587932592	5447.70902506
0	8803	417018.167443580754	5462.2294216434
0	8861	419097.396961874992	6447.9816231209
0	8867	419349.056430156125	6534.6403340821
0	8875	419678.081709788881	6429.8720185226
0	8889	420851.297344710658	4048.9532602499
0	8904	421392.637604180468	6944.5631972774
0	8921	421974.871647043282	4776.8557821474
0	8938	422675.600104404699	4836.9474154818
0	8946	423002.057118510574	5715.7301878331
0	8957	423638.03092908033	6282.234979101
0	8974	424422.847323744387	5943.2460314886
0	8996	425103.506664823296	5638.7236093794
0	9024	426355.668192034596	4973.7598583288
0	9035	426846.646606200814	5074.9131145761
0	9058	427743.450306689925	5001.1879273546
0	9081	429094.229021404438	4608.1309470047
0	9098	429675.075943884832	5956.2236427558
0	9134	430828.643061890229	5816.6823468113
0	9140	431166.949680319197	6133.3235614045
0	9145	431477.678608359683	6320.104622948
0	9153	431714.817641802765	5123.7832223419
0	9181	432541.301626459115	5495.491563023
0	9198	433097.00866504591	5144.8861899227
0	9211	433694.795169969066	4681.7735219358
0	9220	433993.970350012706	4322.5606026889
0	9228	434270.0479390089	4591.620569029
0	9254	435615.666405226539	5421.4314680081
0	9262	435911.462852985626	4344.9388161996
0	9288	437219.366240833359	5263.8939326115
0	9293	437479.08025861867	5101.1246932037
0	9313	438718.909750722517	5822.0882156724
0	9338	439612.902915485524	5470.0429262499
0	9352	440382.30643903519	5795.4751993156
0	9364	440728.066478951207	4865.3976396427
0	9386	441926.790095125837	5327.0302599043
0	9407	443157.215242285896	4571.5714231748
0	9415	443455.757751726259	5564.5163659911
0	9451	444657.550234934033	5704.3706991529
0	9457	444951.204654603106	4422.8266364406
0	9465	445258.977067773504	5790.1010168777
0	9529	447334.935541592265	6343.1606309899
0	9546	447959.735122024923	5788.0925199135
0	9571	448828.679267599431	5606.5869654063
0	9585	449471.751550121728	5977.715249881
0	9593	449767.702560390531	6099.1575119192
0	9602	450110.161322915861	4928.0431693652
0	9612	450677.591664621794	5401.7597788199
0	9672	452208.615740008928	6220.3396568648
0	9686	452837.428543119657	7498.6710555361
0	9691	453154.582370526053	7689.4125117085
0	9696	453435.610663466282	7017.8262579723
0	9702	453779.789790227358	6612.3667682017
0	9710	454081.656722554859	6258.0056666927
0	9719	454375.809293337648	6171.2288619601
0	9724	454669.964734086884	3953.5883146744
0	9732	454976.593726342409	6274.3672565257
0	9741	455246.674593522841	4507.9554817685
0	9746	455524.073502073337	5657.0074266486
0	9761	456086.806876284283	4976.4772979586
0	9771	456744.886231765657	5573.3459940188
0	9808	460828.217337827023	8899.803181116
0	9836	461910.141774565593	4241.2842849697
0	9842	462179.011776882866	6129.6304269365
0	9867	465119.405457858741	7241.7267515763
0	9875	465433.8842778504	4600.9226585602
0	9931	467472.153888338791	7216.4160879348
0	9956	468664.795031694007	7754.4779054557
0	9977	469870.017928260638	5925.4584427092
0	9982	470128.01901090484	4944.8098880238
0	9993	470433.649397589209	4873.5357423829
0	9999	470778.289303828948	4856.8749270971
0	10007	471093.005287959837	4613.3227348209
0	10012	471366.914963305256	5107.4401842198
0	10024	471859.426588544414	5095.7437689619
0	10029	472118.670167681961	4800.4061599427
0	10038	472552.417880454794	4600.5047985383
0	10083	476990.468017075672	8601.5659448065
0	10142	479437.774717961912	6531.8566141469
0	10151	480208.053103395166	4377.4655843704
0	10171	480989.539240397987	6309.5885256267
0	10182	481286.622667314993	5311.4393257602
0	10218	482457.23894528763	5318.023779971
0	10235	483115.831743491677	5463.8403440095
0	10260	484096.791304524544	6279.7091557114
0	10269	484324.830256017588	6323.4455343632
0	10279	484929.201169126204	6448.3506580221
0	10288	485247.700725019288	6557.1932079292
0	10293	485523.010469314537	4260.3327025813
0	10304	485800.684070653317	4710.838969833
0	10310	486033.705496433482	5621.7683443101
0	10327	486915.62918699845	5370.3403373741
0	10335	487270.896695361228	4479.769793706
0	10346	487686.646342460862	5365.604094322
0	10358	487992.333234734801	4723.8145361908
0	10411	490486.499172271205	6197.4923236905
0	10435	492123.06728449052	5841.5157792887
0	10445	492629.826410391462	4932.0308632265
0	10463	493062.216641612364	5269.5888652352
0	10476	493652.937782064171	5050.3678869323
0	10482	493965.086497862639	5748.9961985845
0	10487	494298.906169976604	5597.6321838938
0	10499	495097.462051221291	5210.6995073044
0	10538	496959.67956348932	6053.778984362
0	10547	497503.922581373139	5534.2825035053
0	10565	499362.722574581058	6497.9689542641
0	10574	499888.860102773067	4943.0674167271
0	10630	501864.365944971802	6033.4151536706
0	10635	502102.851134420596	6147.7571207448
0	10641	502422.384451370585	6125.0032133929
0	10666	503985.175994031624	6296.668187858
0	10681	504489.134468127206	4327.8246960679
0	10695	505097.210547974864	4996.7106085405
0	10706	505372.864823466905	4738.5111184641
0	10717	505974.325679634937	5793.9290155245
0	10729	507139.383247429614	4257.2761216309
0	10754	507906.261906176292	7252.1596074108
0	10759	508147.084472389459	5027.2715624921
0	10781	510034.363748647314	5724.0585679458
0	10798	511140.385878122476	5874.0187643983
0	10806	511452.188329504595	4469.6920738134
0	10849	513537.662755954087	6328.7519082264
0	10862	514120.728961658403	5012.6892261669
0	10887	516047.340709733408	6032.8746398283
0	10895	516359.425663746943	5071.2501280955
0	10900	516606.792813709284	4709.7347861348
0	10906	516905.803993490739	5401.4065361814
0	10915	517842.447639501032	5729.7436275933
0	10933	519795.461392910189	6493.5670807328
0	10985	522946.851638400587	7520.2578989914
0	10994	523980.162476833368	5029.0276263974
0	11026	526149.375677473912	4518.4253428333
0	11038	526399.832977185881	5199.9435301899
0	11048	526993.669529078066	6969.190547051
0	11054	527264.10117976624	5338.2435497229
0	11080	529401.640641971178	4246.9207515373
0	11089	529814.791730762917	7802.0363312286
0	11098	530599.830725801345	5231.0218893407
0	11123	531604.166570005499	5306.5300046748
0	11132	532404.571133746955	4431.1669726767
0	11154	535092.650761620786	4373.4987737021
0	11159	535444.052504992255	7227.2983871706
0	11186	537906.226624256104	6921.5297368646
0	11220	541432.585863131371	7722.5877683549
0	11231	542056.761492180557	5083.4224332799
0	11248	543019.931225338549	5743.7694978484
0	11257	543743.966654743264	4265.8108241817
0	11289	545846.586654102316	6222.1753693337
0	11308	546680.653312973819	5293.9961981809
0	11413	550780.718415392997	8438.9001827368
0	11424	551325.092423253956	7275.9149789561
0	11435	551594.318062025367	5975.0965282101
0	11443	551902.064165502529	6590.4353652684
0	11449	552186.105335810765	6492.144621094
0	11454	552442.541683091863	5640.2040024366
0	11468	552741.959661711775	5592.9783886412
0	11474	553040.161025378621	4827.4342682927
0	11485	553326.858963508896	4993.819458706
0	11493	553623.244148491579	4696.699689738
0	11505	553967.065979526454	5631.2836957754
0	11527	554854.705450977385	5810.075347164
0	11532	555136.496849450982	5864.6269979831
0	11537	555412.84700045864	6240.8671481056
0	11543	555752.916252426003	6238.7926367154
0	11573	558495.449717393933	7951.9491903814
0	11578	558854.312882873808	5228.0255658587
0	11615	560508.855124512459	6242.2157427
0	11671	562544.212268284755	6115.3968094909
0	11691	563584.24817301568	5633.4672590593
0	11699	563902.462123783949	4951.6125611889
0	11705	564189.357101134957	5167.682952193
0	11713	564669.287491744151	5567.0323289114
0	11725	565298.456643226035	4679.4225009115
0	11733	565583.070576034977	5081.4715756527
0	11745	565914.526083211658	4910.8555286058
0	11753	566173.971959569188	4495.660841053
0	11758	566475.662559716238	5446.4938394857
0	11770	566814.482800867762	5084.4692037907
0	11820	571216.23738736957	4660.4666345385
0	11831	571454.696932914682	8910.1217341193
0	11884	573603.133264259178	6974.0776784672
0	11896	574420.503678794144	7238.9085748283
0	11910	575314.45554983377	5218.7916920546
0	11918	575692.364800397333	5190.6700262831
0	11930	576128.426196904871	4900.2847839598
0	11941	576443.463328211779	4784.9578341798
0	11958	576989.896299031677	5650.9650011496
0	11986	577914.216559969404	6372.7986200784
0	12030	579768.084845531271	7658.0163346536
0	12038	580042.840638592999	7099.4242256801
0	12052	580693.469618249707	6384.9569264862
0	12090	582055.039299131382	5863.0525713686
0	12106	582661.940202943622	5593.0960240242
0	12137	583543.995893804912	6570.7382239561
0	12176	585077.783565174964	7026.1163808012
0	12181	585422.560029271513	7709.3594228616
0	12193	585669.242420160827	7207.6136437489
0	12223	586974.139285286925	8277.4859691389
0	12235	587300.952183125362	8264.4847265417
0	12243	587568.158606155979	7775.5815352624
0	12251	587887.195101807196	6818.2267624013
0	12263	588204.21787047368	7053.5377031198
0	12276	588721.108495478437	6877.5193967486
0	12288	589037.749933931756	6189.501889436
0	12307	589953.554332416524	7532.869133554
0	12312	590206.430498409188	6761.3648377035
0	12320	590520.482287339099	6832.7081738451
0	12329	590818.153809916875	7082.5857675559
0	12337	591136.756563426835	7184.6849153854
0	12348	591719.803741486589	5752.9960460972
0	12353	592022.477762689479	6446.6558111473
0	12365	592514.489615486545	6153.8796925383
0	12398	593658.905296486412	5570.4381854785
0	12406	593964.394461710727	5183.2555548473
0	12422	595778.030346483925	6979.5596754922
0	12431	596693.226823152306	4385.8552042958
0	12443	597459.412550992449	6552.8948532564
0	12451	597754.946178453543	5119.1125549698
0	12459	598014.016568502013	5371.13196953
0	12493	601776.490673515423	7930.4435556444
0	12511	604289.54111490031	6405.2688806391
0	12537	605551.537648050438	5793.0680206687
0	12546	606123.696403852468	4956.4781321758
0	12617	610036.400058080315	7720.2503594408
0	12626	610399.042426631744	5733.0677444499
0	12643	611306.26953743987	6356.3755572043
0	12648	611634.512829565288	4312.1127330398
0	12677	612466.172556580282	4252.1409037
0	12707	613715.213407094647	5776.0139854802
0	12713	613972.200590442546	5493.3603152302
0	12718	614289.988786690272	5889.3490342783
0	12724	614589.159735678754	5993.1834072364
0	12732	614982.15128219149	5808.3549931917
0	12762	616445.496275160631	4633.6461823841
0	12781	617320.357901853616	5145.2557291011
0	12786	617625.402708829917	7304.1734981087
0	12791	617939.63548318189	5645.4226727665
0	12809	619198.720713249067	6753.4228687347
0	12826	620388.502639373238	5290.1447009849
0	12835	621307.384182672074	5141.4404252755
0	12852	622030.938270887892	5640.8236832769
0	12898	624223.355407613222	6037.2687154474
0	12929	625815.441925522489	6034.2067692534
0	12943	626372.697130427642	4988.5622349417
0	12948	626572.384312537954	4182.4413613233
0	12957	626820.733582916117	4772.0964506525
0	12970	627395.333332172041	4937.0616434923
0	12983	628820.693597014504	4368.2933617621
0	12994	629084.226464992468	5041.8812349888
0	13014	630039.526436123009	7432.8703298446
0	13025	630719.843149642791	5782.6146212618
0	13076	633224.64661963869	4214.4535470176
0	13085	633545.872280359823	6831.8755796036
0	13138	635741.392545167014	6413.2216287335
0	13183	637197.359230487881	5409.8549271755
0	13188	637524.805615759593	7040.0928485014
0	13200	637835.722325155887	6429.143879021
0	13213	638447.868115459715	6450.0074460826
0	13228	638733.87706850659	6134.8095506919
0	13233	639020.719633296639	5775.8929114552
0	13241	639328.110440393493	5175.3546758531
0	13258	639905.248166975399	5174.4501275325
0	13263	640194.480888081863	5910.1503066234
0	13269	640501.642110717282	5673.0933105849
0	13280	640825.51160242505	5151.9218895014
0	13294	641439.795824363191	5639.1177358077
0	13302	641749.76031036325	5504.1337265982
0	13308	642015.03066285131	5677.9005065397
0	13333	643660.547479022139	5999.3078990521
0	13344	645580.339944460394	6314.6218647605
0	13372	646907.835552873963	6363.7289790736
0	13378	647181.68582592939	4652.9479657758
0	13413	650161.682033288784	7142.4854144375
0	13422	650742.155784492178	5070.071623252
0	13448	653132.168684965392	6904.6176581442
0	13460	653571.466914161387	4679.7671199613
0	13477	654198.943318181735	5004.0065733761
0	13491	655358.932047375486	6163.1274791372
0	13517	656598.932249350351	5519.8225069926
0	13534	657788.973584033905	5283.211125808
0	13543	658863.08709541515	5476.9586212594
0	13561	659507.596758485345	3791.5604857052
0	13580	660477.634748468938	6416.1102973438
0	13594	661102.821042468194	5316.7442934005
0	13640	663822.630230133808	6949.6674552424
0	13648	664168.210554216718	4905.1986953592
0	13654	664472.803537069729	4301.0940690463
0	13668	664845.928853792533	5421.9674964673
0	13691	666229.553553097477	4286.2406681955
0	13696	666547.402808523406	5261.7022320765
0	13730	668014.361462251347	5848.4669798164
0	13739	668654.632083507537	5913.1354357758
0	13747	669133.382956650398	4359.9712934869
0	13760	670830.276687203527	6046.4252143959
0	13771	671059.942685336477	4285.2289528366
0	13802	672352.590022416932	5378.5641827103
0	13862	675466.314085839721	8345.8839286689
0	13870	675763.503397352975	4844.4550124953
0	13878	676106.247494817049	5071.056003424
0	13898	676750.248428159046	5162.7376712539
0	13954	678453.651860058689	5918.5997746352
0	13959	678736.406048630281	6155.7897518684
0	13965	679036.55990230933	6899.4777123578
0	13970	679300.156588643584	6349.3571288507
0	13975	679592.406830808967	6016.7437589771
0	13995	680291.964636631047	5444.657195947
0	14004	680593.681743126614	3764.2217391051
0	14009	680826.132148351271	4125.115698634
0	14018	681482.681424179228	5636.9168861508
0	14040	682171.836691361127	4935.3048173751
0	14051	682770.655328500654	5280.2271877062
0	14060	683283.456532026465	5739.603774623
0	14103	686228.95306018226	6566.4818411648
0	14112	686603.213262358883	5041.9379912623
0	14124	688039.439926988669	5909.5767382406
0	14146	688963.51055318108	4563.4656310125
0	14155	689291.370271495332	4632.7769475398
0	14180	690475.094856160262	5256.7053790717
0	14206	692098.034104534041	6874.9999694569
0	14217	692490.853034272195	4570.646890292
0	14232	693545.042038180431	5241.7354128798
0	14240	693925.478402570424	4420.331744933
0	14314	696908.047071659015	7228.6689311544
0	14322	697270.639394885116	6066.4365211854
0	14336	697817.047325351549	6355.2087506437
0	14341	698107.559227757607	5788.6338745625
0	14356	698676.931449086609	4239.8109477873
0	14372	699309.074887178748	4682.7609337837
0	14378	699656.157193489081	4632.6050081976
0	14386	699950.384350561084	4853.9162644788
0	14403	700564.96380732927	5205.7218251402
0	14408	700856.168668925684	5755.0706080399
0	14417	701363.763797651483	5696.1399156632
0	14443	703201.958525474594	5933.0041109171
0	14452	704308.931504382051	5698.2528131171
0	14462	705869.134899494004	6163.0549953286
0	14471	706463.586673438842	4770.9319483985
0	14535	711046.407324338529	8500.7660308759
0	14552	711636.667811729792	4540.6040606268
0	14557	711969.847579548135	4805.7104766026
0	14569	713119.294446907343	5674.9520348091
0	14597	714013.483502137789	4916.958902025
0	14611	714659.375349331217	5738.8171485642
0	14625	715283.077799256781	6019.6473360533
0	14643	716692.512867043026	5834.6938697223
0	14655	717925.951440087813	4795.8951688183
0	14660	718250.456725195882	5286.7440337164
0	14686	719717.014179259459	5776.9394771659
0	14695	720313.036456672312	5879.9033256145
0	14741	722737.032041977576	4145.3797094949
0	14746	723031.908746211232	6977.90821099
0	14764	724549.415879509569	5732.2445439948
0	14795	725794.757204764172	5255.9649493701
0	14804	726117.496677829026	5263.9488354079
0	14814	726703.135930037408	5530.9250583995
0	14835	727864.096202601906	5735.0479783225
0	14876	729364.579042463505	5985.7841877389
0	14885	729665.973013797826	4830.381513197
0	14908	730365.361896993905	5473.3467978289
0	14960	732512.139509892136	6556.8777591382
0	14971	732846.172939120221	5251.2586783947
0	14980	733178.532899852709	5100.2271966324
0	14985	733495.11822076848	6554.5737915072
0	14997	733757.840161604169	5828.4164835856
0	15010	734345.853806243314	6030.2363989672
0	15018	734549.259955087956	5090.2333854474
0	15030	734880.506161364036	4549.1942356374
0	15035	735126.607636976792	4899.8325315798
0	15041	735453.659235328154	4394.6459675357
0	15055	735739.115480226381	5057.8287485735
0	15068	736283.080703897039	4894.8400586181
0	15117	739133.347834286944	7549.6239139089
0	15128	739669.992278197663	4021.6615423253
0	15137	739968.564952723091	6284.2856835332
0	15159	741007.545788532417	4874.1281689745
0	15171	741851.91918023965	5100.0614740408
0	15196	742767.746031736143	5227.0158241902
0	15201	743023.935189036723	4740.3393528332
0	15222	744139.133341366885	4193.6165423906
0	15227	744433.090181731399	5867.2689207967
0	15256	746218.405501785762	6187.9494504097
0	15264	746496.114902794357	4822.3995896528
0	15281	747240.578397524818	5079.364336904
0	15307	748629.922755363419	5403.3005360306
0	15357	750417.995927224251	5790.4590900542
0	15362	750712.214653676208	5174.0233944873
0	15399	752017.023267753202	5736.8938317951
0	15407	752310.954927043439	5303.6651394711
0	15413	752606.068840737043	5182.7121840518
0	15441	753584.392265521167	5062.687243224
0	15452	753872.930883505305	4978.9272078256
0	15457	754204.509807718657	5459.6225653053
0	15463	754475.81119828036	5640.839290977
0	15471	754836.430766336115	5879.0311931108
0	15500	756074.481606676747	5357.0735952902
0	15505	756355.712750436583	5636.9825362018
0	15517	756960.465529625066	4150.8639813275
0	15525	757272.186182318752	5920.1565369427
0	15544	759465.577924622052	4254.5335999896
0	15549	759744.121292978948	6866.9431847316
0	15562	761986.545399804983	6677.7513340204
0	15597	766418.194508851884	9363.2596596889
0	15608	766788.185749965378	5007.3036185375
0	15693	770853.952645682382	8410.6054320398
0	15698	771152.383560815704	6437.442869575
0	15708	772542.234847684261	5761.7747602966
0	15716	773009.615280546953	4689.5585550617
0	15731	773304.427792340293	4705.8806329575
0	15736	773591.738488554355	5381.3617133186
0	15747	773897.263714519938	5189.9168101073
0	15756	774198.027561709857	4848.5939668407
0	15761	774489.887794229429	5606.2008114787
0	15766	774760.273893532711	5259.9237067854
0	15799	779639.449718467055	9886.8451592136
0	15822	781176.319064438826	4931.9123967997
0	15861	784472.769785333992	7153.8282054279
0	15866	784749.095476904128	5212.3516181322
0	15875	785289.883209843786	5148.2635881452
0	15887	786807.987643138035	5327.9963840296
0	15901	787404.759088230272	4965.4711516306
0	15914	791899.080596808223	9136.0540319039
0	15970	796266.200704098459	4355.3028671189
0	15979	796531.830941314855	9884.1598120302
0	15992	797052.438254199374	5131.0227805866
0	16001	797427.943073949089	5068.4046102066
0	16009	797957.620707272355	4425.7590615234
0	16053	801082.546345940896	6817.6622066978
0	16093	804122.863179447467	4930.6587756806
0	16112	804994.831439750717	8567.8653831621
0	16117	805291.543080524808	5838.6907480346
0	16122	805602.057374104227	5670.4510022457
0	16148	807319.966963644526	6962.2999397042
0	16157	807900.305302842371	4701.4721317628
0	16166	808462.604715899344	4976.5047343345
0	16178	809311.938095517723	5320.1910857121
0	16192	810344.691166005527	6140.4813731303
0	16204	811017.263400089232	4836.159679778
0	16220	813467.874537529439	7148.1160016353
0	16237	814679.923895842178	5480.0601786732
0	16256	817721.155071526201	6795.864237721
0	16277	819171.320645234535	5446.15334876
0	16310	822259.993199821835	7495.2876713983
0	16319	823406.002388549289	5199.9586494227
0	16339	824204.074982966315	5255.1920141353
0	16356	825321.089936912728	5322.2233319203
0	16391	827776.22821014501	6659.124686003
0	16405	828377.998589260042	4828.330075113
0	16413	828871.346849134601	4748.5947568499
0	16423	829739.396413636357	4502.1674773621
0	16443	830925.320828981568	4896.7318519494
0	16457	832121.398125720633	5554.6553341412
0	16475	833684.108401097453	6007.9520784485
0	16493	835049.121250088619	4978.5394670506
0	16535	837225.464693402448	6310.1484545699
0	16560	838226.82662023114	5082.070744358
0	16573	839773.625352251496	5470.3519344451
0	16579	840065.708686556391	4859.1289175991
0	16613	840976.830360698028	5609.8663329669
0	16638	841952.734085175318	6728.8702672777
0	16657	842858.966051183415	5474.2807712846
0	16662	843121.312689026396	7096.8839233541
0	16719	845172.679604257163	7693.4130733349
0	16733	845517.188465593685	5443.9174668072
0	16738	845776.617907084337	5579.8398762764
0	16744	846079.609109472457	5376.6170549872
0	16749	846405.505718839259	4614.1483213879
0	16754	846677.050142700231	5795.29476877
0	16763	847182.224766435797	3861.8719827176
0	16774	847669.754231608287	5585.4836427226
0	16791	848358.66595814796	4938.3740788154
0	16811	848965.544979572865	5416.9313673473
0	16833	849880.657533148471	6268.3919459246
0	16859	851385.557581238008	7366.2565663862
0	16889	852673.795569749914	5247.5294483175
0	16912	853666.324721050629	5386.7597116665
0	16926	854272.35757367716	5545.4136111664
0	16934	854557.047092061211	5471.5470906773
0	16940	854824.773220288238	5223.557795853
0	16952	855738.365029475913	4405.4022590566
0	16977	856521.401351151895	5013.6005375669
0	16982	856773.613055702502	6142.2391258783
0	16993	857159.115350588866	5170.9030750368
0	17007	857951.408715418745	4936.4801745926
0	17027	859732.102495470922	4030.6351831903
0	17057	861016.442935726771	7480.2367173772
0	17076	861844.54238470423	6026.3762450929
0	17089	863631.522933288037	6503.2883811388
0	17137	865076.699083534359	5651.5790643597
0	17151	865809.329050589742	6305.3998454952
0	17156	866120.120335322387	6020.6812073789
0	17161	866381.864974775844	5475.4651877026
0	17179	867844.400274274848	4335.2827710541
0	17188	868372.75962661374	7265.7486775263
0	17227	869571.578898581585	5884.9655783803
0	17235	869939.065788689685	6174.9187060191
0	17246	870559.658852640611	6858.033166089
0	17266	871233.578648811271	6244.7408859014
0	17300	872668.820781838085	5854.6044742866
0	17328	873574.440129619519	5123.5650403728
0	17344	874117.449388442765	5523.6615567775
0	17355	874829.548485665346	6069.6760625819
0	17401	876091.874951206702	5526.5118764854
0	17406	876403.863564409953	5241.1069238499
0	17411	876737.528335303107	6963.0678539513
0	17420	877017.852736645309	4951.9276264275
0	17439	877588.05106179344	5897.0472232902
0	17450	878115.926007905521	5652.4011229769
0	17461	878460.157889554867	5522.1754221873
0	17470	878777.303746970805	5424.4299709379
0	17483	879342.564723955353	4485.0244360292
0	17492	879590.134139355479	5727.607409376
0	17500	879876.722295299098	4917.5058093296
0	17559	882096.608419271072	6685.9577192827
0	17567	882427.097095532164	5438.8422832794
0	17572	882708.338240979003	5392.9785545374
0	17589	883531.590963233775	3933.1995723466
0	17607	884201.214282048951	4271.9585394091
0	17643	885405.474855369463	6850.688446427
0	17702	887648.635128788408	7181.6755752529
0	17722	888187.876140358162	6895.026817452
0	17735	888755.113299995891	8264.3172422725
0	17750	889073.752314219076	7624.6365420213
0	17814	891188.141386904178	7179.8084896002
0	17820	891479.516553927938	8608.6396645386
0	17825	891810.494659875716	7510.9558832651
0	17833	892100.410421199243	6771.3748848638
0	17842	892433.812755042638	7920.3296814954
0	17867	893335.545357952719	7587.2318921153
0	17875	893616.199060107398	7785.1430030831
0	17880	893962.740928265518	7683.3987487363
0	17889	894283.70669474978	8368.1487569897
0	17897	894623.382826985745	7770.5805094578
0	17909	894947.230330527019	7338.9403774121
0	17914	895273.069767495099	7089.7985915187
0	17922	895575.596854533592	6640.519002196
0	17953	896756.201956701837	7749.6897287718
0	17961	897033.601569293788	7759.0175443387
0	17966	897321.165139783396	8124.3982651401
0	17975	897632.870187679031	7849.4051392523
0	17985	898211.031350288163	8061.447038016
0	17991	898519.474398912018	6250.955240928
0	18008	899494.415318351961	6812.6353753886
0	18020	900157.444489372681	4703.4197203765
0	18025	900496.069169468612	4821.5955498851
0	18035	901847.749498343767	5867.7918397834
0	18061	903661.753754370632	6154.3259093559
0	18096	906046.82094743953	7181.2520130308
0	18108	907444.598129628607	5477.3881743283
0	18122	908040.627057697013	5103.6248098408
0	18151	909511.199222431512	4569.0568694278
0	18162	909778.81638665624	5965.816847572
0	18198	911659.386286530458	6640.4336626802
0	18210	912497.341953366021	5139.2186149895
0	18252	913900.783430934616	5547.6706109333
0	18260	914193.09995211154	5317.2373775835
0	18265	914575.498501718122	5000.3234969746
0	18277	915286.395179515062	5668.5995941909
0	18283	915607.657633475542	4975.5481513128
0	18301	916843.920481454825	5739.1029196878
0	18315	917470.914662574197	5120.5090944417
0	18320	917769.558869960295	5138.0165097635
0	18326	918115.351776607863	5412.3109265903
0	18369	921442.2885438421	8451.0485095527
0	18399	923995.595419183067	7251.8831804572
0	18425	924982.291538387857	5067.9644545865
0	18433	925222.330211933849	5242.5509960087
0	18438	925522.025642554951	5119.9491407412
0	18458	926308.131179897116	5789.0273383388
0	18483	927407.392996401786	4861.80343692
0	18506	928226.581936819848	5089.9107439105
0	18528	929102.880446914793	5107.3719667332
0	18542	929690.738713662593	5355.1538373231
0	18573	931081.967108715774	5524.7974439913
0	18590	931445.542154322181	4626.2660975347
0	18604	932035.154848893263	4695.7294199796
0	18618	932667.238151018168	6382.4550585491
0	18626	932980.773858009394	5042.4989985662
0	18643	933614.0852653725	4746.0166443047
0	18648	933913.145642652416	5838.3176798197
0	18665	934591.458853316987	4394.5228827571
0	18673	935113.643295345554	5590.42941389
0	18697	936134.725772828104	5711.5489363592
0	18710	936753.896555004426	5546.2779835418
0	18716	937076.546853577054	5268.3956397606
0	18741	938371.042309423726	5658.8646502124
0	18759	939781.058838161102	5807.069269949
0	18792	941021.528450929427	5663.5749757766
0	18804	941441.417791311389	5493.2189447697
0	18826	942371.396140454238	5013.6003372946
0	18843	943036.124018886665	5477.7665437554
0	18855	944024.032186723864	5055.4823541394
0	18863	944336.169429282447	4506.5249494972
0	18869	944637.782411384543	4508.6231640905
0	18897	946202.655481876418	5812.0236338898
0	18906	946475.573165540289	5326.0582705881
0	18919	947096.730744061357	5639.6299166258
0	18944	949123.911042483221	4366.4692081457
0	18957	949686.63804107615	7226.8026406991
0	18988	950992.428953497966	5556.6902675418
0	19033	952754.845651132074	6302.9428362539
0	19047	953472.186007737565	5534.7221550902
0	19055	953802.544787006639	4881.5158452371
0	19070	954361.059529073127	4293.002706075
0	19090	954952.197124768908	5422.9597574182
0	19106	955490.75516549043	5190.2363480641
0	19120	956125.583655900887	5103.6149810595
0	19125	956453.819387689486	4996.2773928216
0	19134	956782.34682171984	5291.8771330813
0	19139	957083.513644211549	5534.7322572994
0	19151	958226.798078773692	5511.9077540189
0	19183	959521.665808134785	5304.916181857
0	19207	960656.931254051417	5962.2063515495
0	19279	963916.235783457691	5932.582929122
0	19301	964785.950760737821	9526.928062835
0	19309	965038.735465732563	6122.6825806835
0	19323	965604.928862349094	6171.1386067362
0	19331	965915.868607567922	6645.1588672452
0	19340	966258.776598229728	6282.2642947363
0	19348	966556.744420115654	4254.5727919529
0	19360	966891.064605747344	5773.6178455227
0	19365	967228.919858184027	5165.1669947752
0	19370	967525.362595222394	4976.2965708539
0	19376	967828.201934797345	5365.4903385248
0	19387	968329.075648364038	5652.2075495937
0	19404	968920.915657527546	5186.7379603865
0	19409	969225.99797643859	5089.3203657469
0	19454	972889.065953641585	8077.6251167051
0	19475	974954.971890960135	4782.1587909279
0	19480	975266.182052851157	6996.4254934399
0	19492	975750.299977769	4766.9836526352
0	19528	976924.815476276968	5168.2813529755
0	19564	978487.760213647111	6705.9853758395
0	19582	979801.942020381598	6900.2714759716
0	19602	980667.333683877491	5112.9445132959
0	19621	981261.07028401594	5342.4113772988
0	19627	981585.195884928751	5225.2762759776
0	19638	981840.565175296402	5148.4827039995
0	19643	982113.197577252805	5259.2991848854
0	19649	982427.032552364071	5384.8634290331
0	19657	983131.176371976045	5342.9477130211
0	19684	984749.250554436429	4652.7029830395
0	19700	985664.622374136167	6450.225358524
0	19738	988070.824578029458	7672.0295990027
0	19764	989357.815098481215	4760.51186734
0	19772	989637.0546462723	5562.1510369616
0	19780	989958.114552881985	5245.4622464718
0	19786	990227.896217151075	4382.9247365167
0	19806	991283.273712525784	4949.2291427715
0	19834	992441.793533249257	5052.3910990132
0	19845	992989.528832574742	5191.3261983475
0	19854	994281.970599872175	5742.240094819
0	19871	994899.919606331106	4353.2168957555
0	19891	995667.865067400968	4465.6291429843
0	19913	996673.890719916709	5358.2609649141
0	19940	998685.879548245875	6465.0181117482
0	19949	999472.326730129019	4425.6882357741
0	19960	999880.893068980265	5578.3187306324
0	19974	1000380.509501525156	4770.1579989045
0	19986	1001246.490255379027	5278.1073071542
0	20008	1002757.037509100278	5782.6622961817
0	20018	1004068.691694263466	5987.0148568762
0	20027	1005229.696804622276	5492.0832831294
0	20040	1006325.53903821951	5091.4096226361
0	20103	1010517.455046134715	4304.1003401927
0	20109	1010800.461558915105	3756.9430964873
0	20117	1011059.121765709247	9308.4031419175
0	20131	1011380.950277027754	4393.2074172947
0	20159	1012599.010182402544	5483.5701290847
0	20164	1012924.395550133537	5311.9397927022
0	20194	1015230.985275765925	7385.5107367187
0	20220	1016664.549209920893	5443.1394624246
0	20228	1016926.565758997963	5808.5408023431
0	20242	1017219.343047593332	4285.5621384077
0	20270	1018441.817313280905	6957.1710452674
0	20306	1019653.561420086096	6690.8756907509
0	20320	1020286.303240451693	5286.021282734
0	20340	1021729.916808595721	6389.7683716939
0	20346	1022015.535772643258	4863.7343397964
0	20354	1022300.512699022963	4596.8708641123
0	20360	1022592.497228237929	5573.6697321543
0	20371	1022985.277989036824	4513.4278286666
0	20376	1023343.934219435336	5133.8891757021
0	20405	1024583.617754016404	6054.3169902122
0	20413	1024899.570593370084	5374.9750781859
0	20461	1027576.795156383732	7453.6045060214
0	20471	1028619.969486994541	4982.083069798
0	20479	1029099.406582696822	4258.4904804116
0	20488	1029696.579748116771	5895.6082566189
0	20499	1030112.700272635344	4702.2829507322
0	20508	1030361.813293712937	5124.7828201579
0	20522	1031289.199176714621	5200.0774937786
0	20577	1034660.621468301075	7664.7041369375
0	20590	1035425.283252621481	5075.5031627016
0	20625	1036656.465315976363	4537.5780349128
1	2465	121124.798108039286	0
1	2491	123266.574776434477	0
1	2510	125854.466224989911	0
1	2519	126153.149463069155	282.43954490149
1	2536	127433.847159441236	0
1	2545	127747.074002562913	136.6565828577
1	2553	128249.309082055957	0
1	2571	130200.362874208074	0
1	2589	131172.625787045138	0
1	2603	131521.441578422876	270.5453980931
1	2608	131841.800185692912	409.7705565221
1	2633	132784.138197283294	61.891407761134
1	2642	133097.507715771576	50.890452129576
1	2665	134822.231769185827	0
1	2710	136912.672187532639	276.33481835546
1	2719	137200.22800696479	146.89413922953
1	2733	138050.160000813694	0
1	2741	138335.314349578414	280.13389014028
1	2749	138733.145975260673	0
1	2761	139019.41723611748	126.61557263938
1	2769	139374.811964175539	81.965497447821
1	2784	140848.362721246399	0
1	2817	142107.10966650394	0
1	2848	143049.009597993159	173.07974729011
1	2854	143339.266648599346	362.39642752782
1	2876	144206.148372738275	88.506259967898
1	2892	144766.085875389174	0
1	2901	145484.005415477168	0
1	2910	146019.385242725998	0
1	2918	146356.202218265981	0
1	2930	146662.177744310438	224.71197911233
1	2941	147013.64330497219	427.75020870278
1	2952	147370.937722045759	324.87252628427
1	2961	147667.152898064936	43.394041838998
1	3010	149855.616142170709	0
1	3050	151205.605718799187	172.53903799971
1	3064	151791.901766421589	271.25086363
1	3072	152087.777571866179	226.97286959206
1	3094	152977.959870011677	0
1	3120	154707.324219746737	139.33681389869
1	3131	155010.129584058028	175.00154210189
1	3137	155354.318586568391	467.40032050938
1	3171	157202.685562396601	0
1	3181	158812.202221475857	0
1	3225	162113.24640032452	0
1	3233	162406.733925564303	167.38616292236
1	3244	162736.962681079292	152.63450059045
1	3258	163471.269412842384	0
1	3267	164005.390974374556	0
1	3278	164298.628038907145	214.84313833906
1	3284	164608.381423949914	377.48399284021
1	3293	165622.532406162595	0
1	3321	166477.531719767059	43.625599480016
1	3334	167046.484259590064	15.789418781903
1	3385	169669.500775692322	252.08927667081
1	3394	170004.417683848803	200.8759372373
1	3421	172322.521768124767	0
1	3429	172746.333449699432	0
1	3454	173790.847707924324	0
1	3463	174594.623403810179	0
1	3472	175054.850492039461	0
1	3480	175424.695211269925	0
1	3489	175811.945945549475	0
1	3497	176089.875789150097	246.72036140369
1	3522	177127.606180047984	0
1	3531	177541.734265478588	0
1	3547	178186.085514259029	96.58337066306
1	3564	178834.70171317197	294.7696453307
1	3576	179148.369807348365	148.8402047632
1	3590	179447.80302831108	325.02905800021
1	3598	179778.43482474481	92.596585157543
1	3607	180129.447729476772	279.73773978924
1	3640	181265.00990321094	334.08149677975
1	3651	181587.481037600804	386.60645222163
1	3657	181900.933925141879	500.58682556689
1	3665	182240.679006941014	169.54113310426
1	3677	182577.283250304775	219.99546170625
1	3685	182933.839564841007	307.37035240038
1	3735	184678.214105715256	115.1986892137
1	3743	185011.914965713074	238.59417234061
1	3807	187390.677655696368	48.755096260253
1	3815	187685.881357273169	59.11705178596
1	3840	188563.591511232816	192.31285550251
1	3849	188846.676930890406	367.17873526429
1	3862	189377.789091277533	55.686870849244
1	3871	189705.240060547997	132.10431669412
1	3879	190025.873156162412	84.800630658151
1	3888	190312.253538494544	68.669246733318
1	3936	192876.677512397811	121.45616067274
1	3969	194219.621233157039	101.02158818699
1	3986	194797.068687337157	137.18361104908
1	3999	195388.682136362139	261.07016674641
1	4008	195688.07535902655	158.17200766334
1	4016	195961.548777208777	124.44727839093
1	4024	196279.395609257026	0
1	4042	197731.685335555035	0
1	4051	198062.70809447389	88.806464879304
1	4062	198388.485992905781	47.467643930967
1	4079	199004.086737300933	92.682887239418
1	4095	199605.296218177898	270.59113763997
1	4134	201298.943350710024	0
1	4143	201748.303114170841	0
1	4191	203317.866401126112	334.77594999825
1	4196	203627.610255589089	426.04324852494
1	4201	203916.309595299521	601.6394104438
1	4218	204710.991713364239	0
1	4227	204977.531948636461	238.16609175763
1	4253	206641.19124755078	69.927944058321
1	4298	208913.532731507473	217.31880820745
1	4304	209173.977481183667	448.97061383474
1	4312	209509.745331172947	45.389380877123
1	4323	209821.186135914555	230.04517904968
1	4335	210116.800590965871	254.36385011113
1	4340	210419.520526118644	417.01027689528
1	4354	211055.04196929929	222.85023405942
1	4365	211334.432548563061	22.795478097689
1	4376	211649.824490903203	92.621706838456
1	4382	211934.704293823971	299.47842290088
1	4412	213101.476903307079	249.48258812177
1	4448	214288.161503312918	250.41366162541
1	4482	215463.829300395683	32.711515137737
1	4496	216071.005928208067	62.035577107402
1	4507	216406.582615067514	113.57219568439
1	4539	219226.322020239311	0
1	4556	219866.873015990763	0
1	4564	220172.103344732992	51.098322850287
1	4584	220943.717419106421	24.51891498756
1	4599	222462.269555023689	0
1	4616	223610.468301335652	0
1	4636	224243.921848092196	150.30038053425
1	4653	224853.608075688306	72.918506485392
1	4664	225177.670800735208	379.93677650707
1	4673	225506.761377099184	618.90103551997
1	4678	225770.58045803842	689.18934579203
1	4692	226398.081005186668	175.25468193261
1	4717	227406.072120698199	0
1	4725	227711.559660910703	0
1	4734	228045.52479789627	63.134159131697
1	4753	228651.769137118024	256.71857241279
1	4762	228982.116105177867	202.10500875286
1	4790	229847.943287833758	236.78298447475
1	4798	230169.702215973507	254.69959307406
1	4879	233734.176793018138	287.26744362177
1	4893	234454.092891965935	0
1	4901	234834.396334915195	0
1	4910	235189.072797038736	208.17994729638
1	4919	236073.089918070614	0
1	4927	236321.385784427991	107.55292727867
1	4936	237066.79165772949	0
1	4962	238401.052334890541	66.057843232823
1	4973	238762.514423352652	296.93412204644
1	4984	239085.384932980211	404.02486252676
1	4993	239368.70055109458	240.1584649251
1	5012	239993.723616814433	199.87576994139
1	5035	240926.32875061393	293.96825892583
1	5054	242023.603037284914	0
1	5062	242255.98218489194	144.91109283748
1	5073	242568.662512111556	228.67055682919
1	5082	242873.72771197181	53.476756359528
1	5099	243172.490659956137	267.69382111211
1	5108	243452.197603649354	389.53533494536
1	5141	244685.886125186227	167.09749393428
1	5146	244973.240458526241	319.86233739898
1	5193	246801.597653043615	77.294137498106
1	5232	248450.814022647935	117.20150150041
1	5249	249010.875571925837	62.18899590519
1	5257	249329.042174071377	55.043805069492
1	5274	249912.795445529705	255.99741176539
1	5282	250194.994791744083	356.25200415435
1	5291	250508.272061700216	121.32631804112
1	5299	250830.981203820655	274.06973933224
1	5316	251449.516473639557	34.68492470636
1	5321	251729.027390516509	303.72288690075
1	5347	253110.714665921006	158.77117836314
1	5355	253457.796174562766	345.56740776392
1	5378	254108.654918307546	280.56490111538
1	5403	255044.062047214725	61.071078554504
1	5411	255334.201638286838	274.76393366683
1	5442	256523.725777879132	310.2900115022
1	5458	257056.504134071949	238.97689646457
1	5480	257980.731808858558	0
1	5500	258521.70988386963	7.524150770125
1	5523	260486.149151967167	0
1	5532	260790.721108201465	242.40250756639
1	5551	261354.148248622007	178.73915413373
1	5574	262309.822718637239	159.76837040992
1	5603	264541.309002386617	22.750040656573
1	5617	265131.830322522546	289.02392275267
1	5634	265761.396253383854	194.4864060211
1	5650	266509.280498477997	0
1	5659	266852.576175116897	263.58810371364
1	5667	267139.048446163678	285.0643135194
1	5676	267447.375776203582	247.75345661698
1	5685	268311.612180039428	0
1	5713	269559.206012379729	166.15580424954
1	5738	270496.918574782447	41.935143827744
1	5755	271076.656798838868	193.49337405815
1	5763	271363.820731880861	218.66664209952
1	5777	271616.844195899609	209.17708097451
1	5783	271897.480767201309	388.41542877611
1	5810	273003.25853893339	11.25201746259
1	5865	276090.669348410799	92.646245498055
1	5878	276700.875924526538	234.13435146573
1	5890	277013.963026762955	312.58804498082
1	5901	277328.719870259791	602.61874595227
1	5906	277621.44966330497	561.72561291517
1	5915	277913.132866235992	53.420156132668
1	5923	278243.922302689227	193.89334332036
1	5931	278567.988651149696	251.34767066929
1	5943	278893.878652956501	40.271798989166
1	5951	279212.352884635308	328.66768548648
1	5957	279531.624548684356	320.22409857505
1	5987	280760.095889668905	25.083749735188
1	5998	281070.471989714925	4.715908684496
1	6010	281340.791330489777	219.89430212475
1	6021	281634.524885754545	48.593453007507
1	6041	282192.015637233429	18.206701493854
1	6049	282467.795614945288	232.7322367752
1	6077	283419.094208538861	89.81043069488
1	6121	285295.425903207537	216.80377404637
1	6136	285580.045532616395	64.967506787708
1	6144	285819.418048709351	95.46956879023
1	6172	286692.361789718843	262.36099477549
1	6177	286997.958266737891	419.00590669563
1	6229	289467.060727152387	75.162191774271
1	6238	289801.528887104528	0
1	6252	290209.186141311289	63.973353521972
1	6272	290802.156648152529	24.224302865573
1	6323	294190.121752258346	196.11560337932
1	6340	295102.598164105014	142.59822001152
1	6348	295401.492277148775	5.751214506353
1	6360	295724.788912790907	311.61553467206
1	6368	296029.696242059313	494.25163813177
1	6373	296316.280510400311	323.7778259363
1	6383	297652.92060367932	0
1	6432	300138.334878894323	110.9438610893
1	6437	300475.274955934458	344.827116675
1	6445	300826.39519490891	200.2169481914
1	6462	301449.184752530627	7.232038892675
1	6484	302416.963832476772	195.72796588779
1	6493	303335.984660047917	0
1	6513	303953.946510133992	55.291267873823
1	6527	304542.997398335694	28.64433283638
1	6538	304875.258014987807	40.63443929097
1	6555	305522.946695098271	164.39657698153
1	6563	305807.156432612136	215.53380898733
1	6594	307175.796934465023	22.506722732025
1	6628	308846.170354784541	154.38199217452
1	6653	309952.853686975893	165.16985334086
1	6662	311116.088948079043	0
1	6677	311369.449211862614	92.661184327549
1	6685	311677.865778554521	312.18105843831
1	6691	312016.582838068443	577.533694059
1	6713	313627.037051811261	0
1	6730	314411.786700199649	0
1	6773	316446.131674082487	0
1	6812	322840.436916745043	0
1	6821	323154.420926151874	194.31843153429
1	6829	323550.666907662078	0
1	6837	323827.976699444208	151.8474068697
1	6847	325058.072746639866	0
1	6858	325354.386781438887	227.34348513946
1	6866	325686.342322904838	349.17891757022
1	6875	325964.05219511641	483.39741827153
1	6883	326187.264851107736	419.26542013824
1	6891	326471.92109556142	315.31290822662
1	6900	326774.06409537037	537.8675948796
1	6914	327108.083490309715	187.68611800476
1	6931	327678.312994080812	215.21864394301
1	6945	328360.198921142855	264.19022876769
1	6964	329011.48289517657	270.51899091719
1	6970	329312.971096188	428.75674842288
1	7001	330205.194024026249	272.51486455392
1	7026	331091.446832372988	71.550471097998
1	7051	331917.633856917653	101.15355906337
1	7062	332222.434407486374	252.8674838226
1	7079	332803.531579609007	271.44822231824
1	7109	333971.760044846862	207.45248992565
1	7118	334311.408467436157	539.15289491898
1	7134	334944.010891661913	171.48890796263
1	7146	335276.156321406993	228.97685577434
1	7151	335584.918833270791	494.3868368884
1	7206	337906.994737163688	0
1	7229	338601.989106170531	281.80454455745
1	7275	342081.919961420852	260.06337849671
1	7292	343477.961975727842	90.590034857852
1	7304	343853.310823532913	328.36458698889
1	7309	344137.058968819611	597.88185106977
1	7317	344466.758709632605	188.94269899612
1	7326	345175.594880232915	0
1	7335	345494.218320051283	178.89084228204
1	7352	346500.837479206977	0
1	7369	347400.844752916264	0
1	7403	348912.797434999739	216.3566124995
1	7419	349710.928003515797	0
1	7436	350465.119087738326	94.325690199226
1	7462	352000.801641798393	0
1	7479	352650.529623821449	0
1	7487	352959.120691481335	19.098433946407
1	7496	353205.028652184873	97.993153573564
1	7504	353444.247458553695	9.816823166692
1	7512	353724.196932861155	165.61249972075
1	7527	354041.507972879796	249.30445776689
1	7535	354314.153264452731	495.32718215069
1	7595	357685.545160886422	20.460816650265
1	7625	358919.886250210333	203.5167813628
1	7641	361219.705779545122	0
1	7658	362141.223069824716	0
1	7687	366057.20191350247	0
1	7698	366311.685031291283	148.86993794894
1	7703	366612.483460778374	383.69729855657
1	7720	367333.721140612037	0
1	7729	367755.527509773238	0
1	7737	368567.485412581675	0
1	7746	369313.616873580226	0
1	7763	369888.082220235064	290.30657294058
1	7771	370203.296962754767	0
1	7783	370483.629226951022	102.9189800689
1	7822	372626.32339536608	0
1	7837	372940.267522914629	192.95301390534
1	7842	373234.442246953916	338.50675530081
1	7898	376291.209771188948	232.20914975142
1	7915	376901.897503518947	167.14522720387
1	7932	377597.36336622185	0
1	7940	377931.45313371506	244.39499329318
1	7949	378416.133223298903	0
1	7958	378924.325812227754	0
1	7966	379281.755358562284	0
1	7975	379975.36617432566	0
1	7983	380309.394254838828	247.24726123871
1	8000	381044.705375637213	293.71546935735
1	8011	381359.590413636272	202.31505560392
1	8023	381642.369226955358	100.3308734046
1	8034	381909.316971634286	260.49824986458
1	8056	382799.037985137915	64.481359721193
1	8067	383081.484861816797	145.19981413406
1	8079	383348.259979356814	11.439083103039
1	8095	383962.379054943376	65.038628514839
1	8121	384877.129431201551	146.77473067187
1	8129	385181.425868993721	286.32803976857
1	8146	385760.678168798594	64.50991755446
1	8190	387316.198576964953	143.23096173557
1	8202	387631.884056967348	303.59976395511
1	8210	387901.86010804119	176.87439474888
1	8240	389123.324995667036	202.8355077498
1	8293	391821.071418309708	110.49031276345
1	8326	393412.781597337729	0
1	8336	394518.11413764537	0
1	8345	395361.855205152255	0
1	8362	396435.213381628456	0
1	8370	396753.516634938781	110.29880717267
1	8379	397190.85664266877	0
1	8390	397479.75456178304	59.994746235282
1	8422	399790.515415750021	0
1	8433	400121.05385608461	88.716676554964
1	8473	402116.879680016189	0
1	8482	403149.145997100366	0
1	8511	404956.906863373624	87.782230525345
1	8516	405270.595999789205	349.91002506606
1	8534	406496.377875600183	72.744925446041
1	8542	406834.572904862985	336.55141382221
1	8554	407151.715415541912	280.9858034569
1	8571	407450.862295069298	456.45935436588
1	8576	407779.73152556511	603.89339491668
1	8582	408019.08089393731	804.09462503846
1	8590	408319.638190582434	982.03297469937
1	8598	408586.865172276564	267.77589619484
1	8625	409702.827574369751	147.01803163019
1	8634	410018.013495386959	83.315745313184
1	8651	410923.862877349556	91.139314477003
1	8682	411887.453898687971	331.51587675062
1	8707	412771.263033921292	121.84769516721
1	8718	413132.696164463556	318.28006838953
1	8727	413401.262208243142	153.05251697685
1	8757	414501.144092953426	53.069686050398
1	8805	417018.167443580754	215.82335912001
1	8822	417289.697173969854	91.681309073967
1	8831	417526.976365942842	240.6494352654
1	8839	417850.894972649145	495.0990226698
1	8844	418154.857761794583	316.20507287172
1	8853	418483.700339170729	4.099046914901
1	8877	419678.081709788881	213.29865434495
1	8906	421392.637604180468	10.729270474692
1	8923	421974.871647043282	203.13815541853
1	8948	423002.057118510574	259.79473917522
1	8962	423718.852301129014	0
1	8979	424486.098074399774	0
1	8998	425103.506664823296	91.545949744349
1	9007	425406.89865964306	373.27254072839
1	9012	425696.149766416588	538.57578100488
1	9037	426846.646606200814	255.61218674
1	9046	427146.532360829732	100.72229739358
1	9063	427952.122475123167	0
1	9083	429094.229021404438	81.20737337115
1	9100	429675.075943884832	3.666196561028
1	9111	429999.363610453583	320.93624047368
1	9119	430243.014269214772	48.779331996368
1	9155	431714.817641802765	148.29360501678
1	9166	431995.748202319884	40.275894098039
1	9183	432541.301626459115	163.34606104412
1	9200	433097.00866504591	200.18712999584
1	9230	434270.0479390089	127.18794977333
1	9239	434631.144808290075	44.313568570458
1	9264	435911.462852985626	48.794013677079
1	9273	436599.759835221527	0
1	9298	437891.241385735119	0
1	9315	438718.909750722517	133.26593161139
1	9324	439018.212789195575	65.033253414484
1	9340	439612.902915485524	144.02686458975
1	9366	440728.066478951207	199.68846078869
1	9374	440991.77491060241	0
1	9391	442171.642602111394	0
1	9417	443455.757751726259	233.66544953317
1	9431	443722.673686744778	228.63738650405
1	9437	444052.357634112961	383.8125856416
1	9467	445258.977067773504	76.8589142228
1	9481	445559.796323995253	283.96443819339
1	9487	445872.019774206168	533.26228662257
1	9495	446247.902742350676	782.73288353317
1	9506	446533.456402774648	545.18031963052
1	9512	446848.461023264056	430.67661777003
1	9531	447334.935541592265	167.51251956658
1	9548	447959.735122024923	136.08406616273
1	9556	448235.468862341432	30.888430963865
1	9573	448828.679267599431	126.45279778275
1	9604	450110.161322915861	243.09524749112
1	9617	450716.376419412495	0
1	9635	450986.414846254904	247.69573450054
1	9646	451284.111088736616	173.78151041094
1	9654	451600.414710703484	428.8744729566
1	9674	452208.615740008928	280.20158329789
1	9763	456086.806876284283	37.425526337946
1	9777	457668.857489595852	0
1	9786	457946.680841460332	69.002135177874
1	9796	460255.737800404011	0
1	9813	460832.961619290158	0
1	9821	461122.210423218516	211.89329698024
1	9849	463944.559485551458	0
1	9877	465433.8842778504	250.67515496932
1	9886	465731.212672688011	171.09901748173
1	9894	466034.136086724492	112.72170999266
1	9903	466342.503541351685	83.028762266198
1	9911	466603.2829162784	123.60036313946
1	9919	466877.429181149023	113.7463615665
1	9933	467472.153888338791	153.88988059949
1	9941	467951.913081916507	0
1	9958	468664.795031694007	275.89295942487
1	10043	472905.918103815012	0
1	10053	474679.950714771336	0
1	10063	475830.587519024765	0
1	10071	476143.679071894562	168.49573033975
1	10088	477139.215165316608	0
1	10097	477651.991399482193	0
1	10105	477955.014772369874	137.93262355668
1	10114	478295.568260062701	294.18353840835
1	10122	478583.450129633684	102.59961852957
1	10133	478880.3122337686	189.8047166785
1	10156	480411.937152123389	0
1	10184	481286.622667314993	196.77756649468
1	10195	481574.345529756177	311.66776302295
1	10201	481867.067715846386	321.77886622199
1	10220	482457.23894528763	136.19669714873
1	10237	483115.831743491677	324.70484183644
1	10248	483437.556664386121	169.0379658421
1	10271	484324.830256017588	35.823407436892
1	10315	486281.551505201866	0
1	10360	487992.333234734801	294.53768756988
1	10368	488353.675258368123	561.047481991
1	10377	488623.319115535004	407.2288162569
1	10385	488924.171652097004	321.60175696515
1	10390	489244.565989902245	543.29200381949
1	10399	489886.762543916863	0
1	10416	490905.900579127274	0
1	10437	492123.06728449052	153.42720662269
1	10465	493062.216641612364	197.46302129542
1	10501	495097.462051221291	151.66936517533
1	10510	495830.950791301242	0
1	10518	496165.787310081927	210.69329640617
1	10530	496411.495237530349	114.11399955264
1	10552	497688.507806173641	0
1	10579	500100.499939434404	0
1	10596	500384.10707100442	222.79729894507
1	10608	500666.051879199305	485.6552150889
1	10613	500929.511747453297	295.15804245051
1	10618	501233.3542045756	579.25190581014
1	10646	502882.10712579872	0
1	10655	503165.40509247987	45.59218258254
1	10683	504489.134468127206	178.82928742573
1	10708	505372.864823466905	106.49770974269
1	10731	507139.383247429614	156.88699173843
1	10742	507402.935981995233	194.02513426752
1	10765	509108.039735491501	0
1	10783	510034.363748647314	19.897678742184
1	10808	511452.188329504595	164.0127938531
1	10817	511733.600829480642	229.20337217131
1	10825	512033.661019940463	136.60299236597
1	10833	512321.864008537538	209.1599966298
1	10851	513537.662755954087	235.76844377666
1	10869	515426.593739409229	0
1	10921	518951.134850436004	0
1	10938	520024.478982027038	0
1	10948	521199.889446995957	0
1	10956	521630.950334640646	0
1	10964	521925.857630043367	0
1	10973	522215.435718747529	202.68031921322
1	11000	525154.719890433859	0
1	11009	525495.631210537907	126.82237407727
1	11040	526399.832977185881	102.19641185516
1	11059	527973.404161070226	0
1	11068	528267.567158482406	50.813040660702
1	11103	530719.151987918699	0
1	11111	530996.677491640259	11.980604248735
1	11138	533709.998094776451	0
1	11166	536973.339058900705	0
1	11177	537287.724055767392	11.562328277214
1	11193	539478.155830561596	0
1	11201	539783.619045796835	159.20776102823
1	11222	541432.585863131371	45.928748338458
1	11236	542341.818232656225	0
1	11262	544049.177444297817	0
1	11272	545311.628800234084	0
1	11291	545846.586654102316	227.36512028705
1	11300	546106.527229821691	412.56651510491
1	11313	546802.337680655289	0
1	11322	547148.98127307057	0
1	11331	548212.726757085949	0
1	11345	548553.598261507052	220.55875670419
1	11354	548824.955242410537	489.17295865949
1	11365	549145.901875467263	219.35741671368
1	11376	549410.895369356417	366.26526554306
1	11388	549675.233047261765	503.25319490876
1	11393	549942.326026075224	670.45617460739
1	11398	550205.900180704014	691.77656499345
1	11415	550780.718415392997	237.21788838046
1	11507	553967.065979526454	340.77866251133
1	11515	554287.746735816208	21.107354003782
1	11549	556428.815458793812	0
1	11558	557950.780913956404	0
1	11584	558950.849562595043	0
1	11595	559271.016215176164	249.34206623419
1	11600	559605.890049425122	503.63488659241
1	11617	560508.855124512459	7.256124130205
1	11626	560770.249215298095	151.21507298358
1	11637	561084.733258247368	81.062703641481
1	11642	561333.029340164913	303.86061993436
1	11651	561678.311118516139	0
1	11659	561961.404451491292	231.39085441425
1	11676	562544.575198795376	0
1	11772	566814.482800867762	258.71204803669
1	11777	567072.201859477257	443.14627368527
1	11785	567425.537227520075	243.94212355421
1	11797	570095.663857779165	0
1	11805	570501.694774114207	0
1	11833	571454.696932914682	226.55551996956
1	11848	571762.007270678822	423.07597279679
1	11853	572058.077466759725	516.65952686877
1	11861	572337.324086222213	678.81859219023
1	11867	572659.610681171204	549.54217029349
1	11875	572969.858026676476	26.441613763528
1	11898	574420.503678794144	111.99098703062
1	11943	576443.463328211779	251.47660044901
1	11960	576989.896299031677	16.638629182851
1	11971	577318.737470299916	249.8932913805
1	11988	577914.216559969404	201.01595355948
1	11996	578200.877255167228	149.21007079347
1	12004	578529.686495983238	68.057719571358
1	12013	578803.046144576141	106.39282842816
1	12021	579155.966992503708	119.49953592006
1	12040	580042.840638592999	250.26356769945
1	12057	581068.96833940588	0
1	12069	581403.33342623657	252.65325888271
1	12092	582055.039299131382	211.45020040153
1	12108	582661.940202943622	241.25500408109
1	12120	582955.632637462339	107.38459296656
1	12139	583543.995893804912	98.930233099208
1	12151	583860.854615276681	173.0805017827
1	12159	584151.482637918348	415.91459555741
1	12164	584456.476774638979	504.40512659754
1	12195	585669.242420160827	93.420468618625
1	12203	586064.632231088613	97.824535699262
1	12212	586393.445140470675	32.835217522432
1	12265	588204.21787047368	115.75075946577
1	12290	589037.749933931756	256.61102706832
1	12295	589344.407204202934	545.93653321117
1	12339	591136.756563426835	230.23886569074
1	12367	592514.489615486545	207.11799663002
1	12378	592810.755099320336	174.92147583656
1	12383	593053.624839513484	410.74024054143
1	12408	593964.394461710727	118.34734383968
1	12461	598014.016568502013	129.7443342408
1	12471	599758.46962738177	0
1	12481	601167.218271676682	0
1	12498	602316.14969863954	0
1	12517	604665.974682181847	0
1	12525	604949.893980235587	0
1	12552	607322.400096525457	0
1	12561	607939.199421614448	0
1	12572	608231.290739346919	17.259086466634
1	12583	608546.054703607712	145.41495119572
1	12595	608856.714023356416	377.87374814408
1	12600	609134.47146162626	538.49513318388
1	12609	609441.409257659033	267.61296865926
1	12628	610399.042426631744	77.8132159105
1	12653	611811.850092776524	0
1	12679	612466.172556580282	291.07038382779
1	12687	612798.269357733211	504.05654731779
1	12696	613091.700613721807	646.40276920748
1	12737	615098.357938388294	0
1	12764	616445.496275160631	279.55251776404
1	12769	616725.772412508377	335.65782489739
1	12797	618186.086692165784	0
1	12815	619781.235156269093	0
1	12840	621384.134895485988	0
1	12857	622048.637132263622	0
1	12866	622389.942951214703	0
1	12877	622664.598343643119	206.32665496334
1	12882	623019.300268551126	412.64416227271
1	12900	624223.355407613222	181.01017760951
1	12908	624537.775424188531	85.375188936116
1	12917	624937.22852838096	0
1	12959	626820.733582916117	106.73688215991
1	12996	629084.226464992468	74.033392371332
1	13005	629391.00085717074	62.829940737255
1	13027	630719.843149642791	235.13038238456
1	13036	631406.578446134893	0
1	13045	631787.504303312374	0
1	13053	632086.837023033305	88.976353656203
1	13062	632599.067517814644	0
1	13087	633545.872280359823	301.04555851839
1	13095	634152.755764540348	0
1	13107	634430.555504199129	146.22492274064
1	13115	634771.795690875031	40.997651432106
1	13123	635068.017259130677	239.46845899829
1	13140	635741.392545167014	67.802832243388
1	13155	636038.526673310863	237.8485847554
1	13166	636343.52150698494	97.894923219879
1	13174	636584.400320951191	247.2701646396
1	13202	637835.722325155887	174.48274518582
1	13243	639328.110440393493	62.392360693601
1	13282	640825.51160242505	281.40502862473
1	13313	642528.737860153612	0
1	13322	643019.196618851301	0
1	13349	645672.084161240177	0
1	13357	646227.551026821157	0
1	13385	648891.699794200132	0
1	13393	649194.936744805634	0
1	13404	649488.504146183543	292.69957794521
1	13427	651079.109742357724	0
1	13437	652505.762458225855	0
1	13462	653571.466914161387	185.3384400056
1	13479	654198.943318181735	137.41886705658
1	13496	655716.036272780178	0
1	13505	656002.572851513155	216.49610244549
1	13522	656872.962774891409	0
1	13563	659507.596758485345	244.58489962782
1	13568	659805.454574920901	381.49321759567
1	13582	660477.634748468938	305.92528044556
1	13599	661285.70057644695	0
1	13608	661943.312884902024	0
1	13616	662231.687211096229	65.792728661239
1	13625	662741.496647731721	0
1	13670	664845.928853792533	72.517190629069
1	13675	665115.636231378679	331.78475857102
1	13701	666774.713732499861	0
1	13713	667088.373035968856	114.34719626225
1	13721	667406.246678653173	285.81652148239
1	13773	671059.942685336477	140.89430047876
1	13779	671337.209740678152	302.0182492851
1	13790	671648.54823341254	61.037476507425
1	13804	672352.590022416932	215.50783246536
1	13815	672641.687055846424	106.63497042294
1	13824	672966.793051999466	386.17675523759
1	13829	673284.142757771284	333.34329797837
1	13837	673580.579328589727	4.916256757838
1	13847	674847.307440684021	0
1	13880	676106.247494817049	260.48295678858
1	13900	676750.248428159046	49.231978441798
1	13914	677003.808066158097	174.34806213659
1	13923	677315.461303886339	78.929429900297
1	13934	677580.240602197538	89.812461403131
1	13942	677902.519222970747	358.66646556729
1	13980	679662.471219017504	0
1	14023	681561.275271096595	0
1	14042	682171.836691361127	41.9735026131
1	14066	684400.044922168603	0
1	14074	684658.59332395553	0
1	14083	685218.38947708852	0
1	14091	685581.40260314742	358.36846807026
1	14126	688039.439926988669	119.23378300846
1	14135	688336.524047583787	33.217422283185
1	14160	689505.146657637381	0
1	14171	689827.459666014196	148.08152550957
1	14186	691204.202873699726	0
1	14197	691485.158813055798	23.320238347986
1	14219	692490.853034272195	171.92768107712
1	14246	694437.120501299352	0
1	14257	694727.824466702294	101.51051330724
1	14265	695069.289474396749	45.737289105243
1	14280	695346.761519853296	250.29343377099
1	14288	695651.086117948656	549.98805706286
1	14296	695988.558748735547	629.31676654644
1	14302	696271.268536533416	603.64465454518
1	14324	697270.639394885116	1.684980327627
1	14358	698676.931449086609	66.252757821673
1	14388	699950.384350561084	244.30444639565
1	14422	701692.654725040336	0
1	14431	702545.641293462589	0
1	14476	707096.063751102997	0
1	14485	707369.654715911006	205.51761296546
1	14493	707714.083363321652	269.74095122337
1	14503	708920.558200766992	0
1	14511	709249.928783949676	153.40418383691
1	14519	709523.424593414754	259.99413021127
1	14537	711046.407324338529	188.58832701781
1	14571	713119.294446907343	155.5817554279
1	14586	713484.610108487565	354.55383721809
1	14599	714013.483502137789	73.408800044272
1	14613	714659.375349331217	226.24221827342
1	14631	716054.000535221231	0
1	14666	718591.652332482637	0
1	14674	718911.089502175891	93.918166661122
1	14700	720538.792255394105	0
1	14708	720868.382877327315	14.835034906239
1	14717	721214.06043158753	41.849559949663
1	14726	722129.048224279453	0
1	14751	723378.794854724599	0
1	14769	724835.591500600849	0
1	14780	725155.780385396218	263.76528623124
1	14806	726117.496677829026	162.23492707509
1	14820	726940.544429261323	0
1	14837	727864.096202601906	269.18194187639
1	14848	728200.881795715845	271.45811769726
1	14856	728527.724916763761	449.41921354341
1	14862	728824.366196111785	508.74878883567
1	14887	729665.973013797826	206.94644415723
1	14910	730365.361896993905	138.58679159689
1	14915	730662.651776989992	331.33985126332
1	14923	730964.551666613096	283.26493496023
1	14932	731254.450244460425	195.43697666799
1	14940	731581.841521158282	193.60087587934
1	14948	731865.573434993851	281.84951461583
1	14999	733757.840161604169	73.560892414317
1	15057	735739.115480226381	90.784744354063
1	15070	736283.080703897039	149.66308433917
1	15079	736751.857706198844	0
1	15088	737540.730207545942	0
1	15097	738283.595836203562	0
1	15108	738603.056515356546	37.235254421813
1	15139	739968.564952723091	23.048153746805
1	15147	740261.327678004398	230.87162662838
1	15173	741851.91918023965	178.20386709809
1	15181	742161.214060620854	0
1	15207	743226.622219332822	0
1	15232	744627.536837170084	0
1	15241	745538.191259188922	0
1	15266	746496.114902794357	215.98546683624
1	15283	747240.578397524818	233.28860995243
1	15292	747556.577090436041	133.22043375082
1	15309	748629.922755363419	108.21773306622
1	15326	748952.453279484169	207.5660370708
1	15335	749278.093388844269	443.12148154087
1	15340	749534.974125656432	640.97044997669
1	15345	749834.888213205746	877.48863998044
1	15367	750717.408011386548	0
1	15376	751016.136049227417	297.4058349926
1	15390	751361.066993403611	9.037348027561
1	15418	752809.601548297525	0
1	15429	753024.439105946443	147.26099769913
1	15477	755211.044324632467	0
1	15488	755478.754233396147	169.96016761161
1	15527	757272.186182318752	217.25133315576
1	15564	761986.545399804983	205.6632683771
1	15573	762443.34721364254	0
1	15584	764714.940691240666	0
1	15610	766788.185749965378	7.725662577743
1	15620	768210.376775235707	0
1	15628	768479.71163630814	159.6549108229
1	15639	768757.006763614327	158.45960423153
1	15651	769101.768587054722	394.42168264205
1	15659	769377.20324902041	493.5162662697
1	15667	769652.660534391712	303.22693952252
1	15676	769971.786088104414	471.43590135715
1	15684	770274.98285216154	522.37829290813
1	15773	776244.40666763915	0
1	15782	777318.941579906072	0
1	15801	779639.449718467055	102.70585969514
1	15810	780141.619621698621	0
1	15827	781479.991259108417	0
1	15836	782439.287936599634	0
1	15845	782763.026564904355	0
1	15889	786807.987643138035	160.31651385334
1	15919	791910.89783697957	0
1	15928	792227.78351907503	306.36804546223
1	15936	792503.110546167954	143.57208242542
1	15945	793531.861645748978	0
1	15954	794264.884139243062	0
1	15981	796531.830941314855	104.86488472623
1	16016	799192.204403766872	0
1	16024	799479.452934656074	26.600602165835
1	16033	799931.606371858477	0
1	16041	800357.667023940331	0
1	16061	803198.833171079568	0
1	16069	803486.099981564822	0
1	16095	804122.863179447467	131.11616964185
1	16103	804391.010354123948	186.80056124868
1	16128	806181.103720311212	0
1	16136	806448.672341462559	128.9138055684
1	16180	809311.938095517723	112.07437834873
1	16206	811017.263400089232	91.972566284071
1	16225	813725.167296474568	0
1	16242	814764.705528423551	0
1	16262	818206.043739126552	0
1	16279	819171.320645234535	222.43767640348
1	16288	819998.866604992434	0
1	16297	821117.103524141977	0
1	16324	823549.668514146993	0
1	16341	824204.074982966315	81.322890681565
1	16358	825321.089936912728	83.86100063845
1	16367	826028.588977032176	0
1	16376	826566.742791579419	0
1	16393	827776.22821014501	100.07188749606
1	16428	830070.581783038023	0
[...]
7	14955	732226.652061667579	10
7	14964	732575.198629334331	9
7	14967	732629.840805568835	8
7	14976	732933.869771158312	7
7	14989	733507.683968764836	6
7	15001	733935.217060121239	5
7	15005	734049.055824844466	6
7	15014	734374.204183306665	5
7	15023	734824.445112842663	4
7	15026	734869.686873759745	3
7	15043	735505.078819543873	2
7	15051	735656.109451203372	1
7	15060	736020.563374034757	2
7	15074	736598.253113961911	3
7	15082	737076.256822203106	4
7	15091	737823.072315549297	5
7	15099	738454.642224087887	4
7	15106	738603.056515356546	5
7	15112	738874.339872981875	6
7	15119	739353.879174841982	5
7	15124	739533.824929270185	4
7	15145	740261.327678004398	5
7	15150	740566.518104752379	6
7	15153	740734.662849968966	5
7	15162	741541.743213395713	4
7	15176	742124.748317040286	5
7	15184	742342.884506135828	4
7	15188	742459.781605416674	5
7	15192	742521.633706544731	4
7	15210	743508.005807419564	5
7	15212	743860.431911176803	4
7	15217	743995.519854638073	3
7	15236	744929.50842094891	4
7	15244	745757.83298480853	3
7	15248	745858.332854839982	4
7	15252	745877.375986348435	3
7	15270	746810.192517865737	4
7	15272	746946.028841056415	3
7	15290	747556.577090436041	4
7	15295	747866.178555380084	5
7	15297	748291.251001928797	4
7	15314	748772.148196264198	3
7	15324	748952.453279484169	4
7	15333	749278.093388844269	5
7	15338	749534.974125656432	6
7	15343	749834.888213205746	7
7	15349	750166.820216186756	8
7	15353	750276.870161900398	7
7	15374	751016.136049227417	8
7	15378	751121.690831511966	7
7	15381	751327.262726029496	6
7	15388	751361.066993403611	7
7	15393	751680.799169538299	8
7	15403	752150.893444206308	7
7	15423	752911.804947286608	6
7	15427	753024.439105946443	7
7	15431	753250.624688299382	6
7	15435	753274.24564253659	7
7	15445	753756.210957121782	6
7	15448	753766.733535895337	5
7	15465	754486.110151731599	4
7	15482	755389.245590930325	3
7	15486	755478.754233396147	4
7	15491	755788.616187540994	5
7	15496	756020.21104128379	4
7	15507	756663.900504872471	3
7	15512	756668.28319980252	2
7	15530	757551.145652340198	3
7	15534	759154.110230201696	2
7	15539	759347.577411360306	1
7	15553	761657.314550086299	0
7	15568	762325.794828886226	1
7	15576	762763.432292662302	2
7	15587	764967.172779391881	3
7	15590	766040.847016627709	2
7	15599	766468.389262072857	1
7	15613	767101.290257226886	2
7	15626	768479.71163630814	3
7	15637	768757.006763614327	4
7	15642	768879.203597687398	3
7	15649	769101.768587054722	4
7	15657	769377.20324902041	5
7	15665	769652.660534391712	6
7	15674	769971.786088104414	7
7	15678	769982.805385770408	6
7	15682	770274.98285216154	7
7	15687	770573.351670444127	8
7	15701	772236.151670846924	7
7	15710	772657.580976887486	6
7	15718	773022.516676724595	5
7	15723	773033.890183776814	4
7	15727	773285.181274728676	3
7	15740	773817.638304375735	2
7	15743	773867.050569700462	1
7	15752	774148.960490426727	0
7	15776	776563.615209135915	1
7	15786	777654.423184644449	2
7	15790	779327.894543550592	1
7	15804	779953.99379432278	2
7	15813	780413.283148098538	3
7	15816	780898.195173764498	2
7	15831	781791.40161608798	3
7	15840	782728.905521669183	4
7	15848	783079.491020325553	5
7	15851	784172.087756727042	4
7	15857	784349.30992858123	3
7	15868	784963.816909997379	2
7	15878	786532.550768631807	1
7	15891	786844.780440606398	0
7	15896	787096.245609616217	1
7	15908	791593.476627062713	0
7	15926	792227.78351907503	1
7	15934	792503.110546167954	2
7	15939	792761.914675233585	3
7	15949	793832.025882434021	4
7	15958	794589.499627548623	5
7	15961	795971.355468197123	4
7	15966	796075.920452910372	3
7	15983	796539.838769950991	2
7	15987	796798.871666949435	3
7	15994	797092.993522694753	2
7	16003	797659.801071939718	1
7	16022	799479.452934656074	2
7	16028	799813.819694288038	3
7	16036	800198.3899572876	4
7	16045	800659.349589363216	5
7	16047	800777.64568020084	4
7	16064	803470.282194852108	5
7	16071	803517.624668307481	4
7	16074	803589.82049496667	3
7	16077	803764.35198195087	2
7	16081	803822.53372730105	3
7	16085	803958.767675691198	2
7	16101	804391.010354123948	3
7	16106	804678.444325581768	4
7	16134	806448.672341462559	5
7	16140	806782.276041948559	6
7	16142	807060.223965409773	5
7	16151	807567.905920927048	4
7	16159	808155.559342999628	3
7	16168	809049.293599397182	2
7	16183	809624.331451483804	3
7	16186	810048.292009081646	2
7	16194	810745.05191777909	1
7	16209	811297.835107256087	2
7	16213	813194.20192455213	1
7	16228	814029.640751082346	2
7	16231	814437.634234837366	1
7	16245	815041.679525871746	2
7	16250	817434.645048882466	1
7	16265	818512.103844157667	2
7	16268	818899.525742321369	1
7	16283	819499.390480468217	2
7	16291	820249.148243319025	3
7	16301	821438.700664904833	4
7	16303	821995.946324749633	3
7	16313	823105.722621738532	2
7	16326	823714.324218527406	1
7	16331	823881.738034535298	2
7	16344	824453.066631003195	3
7	16347	825019.853207578477	2
7	16362	825611.87006461375	3
7	16370	826287.369108536185	4
7	16379	826887.740586897605	5
7	16382	827482.617324141265	4
7	16395	828007.733681468939	3
7	16400	828074.14355258293	4
7	16407	828505.984342643441	3
7	16416	829503.460776481073	2
7	16431	830356.368806812796	3
7	16434	830600.593806949919	2
7	16448	831207.084797226654	3
7	16451	831816.758854954877	2
7	16467	833419.995980895153	3
7	16469	833425.808235611861	2
7	16484	834601.460201763846	3
7	16486	834784.211464951283	2
7	16507	835512.55935042036	3
7	16513	835816.868432317286	4
7	16521	836109.323717423888	5
7	16526	836370.315995509367	6
7	16529	836946.180722562191	5
7	16546	837530.715952829614	4
7	16550	837655.938557429436	5
7	16555	837937.195802350634	6
7	16564	839479.943822511096	5
7	16569	839674.308814455718	4
7	16586	840108.494646624867	3
7	16592	840338.85678429721	2
7	16596	840363.374352637017	3
7	16601	840691.336774160858	4
7	16617	841296.528787150512	3
7	16621	841304.320400549259	4
7	16626	841638.848696961451	5
7	16630	841643.185932828134	4
7	16646	842291.62343390519	5
7	16651	842553.276618903148	6
7	16674	843531.636901275937	7
7	16685	843851.869658505434	8
7	16689	843926.180684517633	7
7	16696	844181.380983315707	8
7	16702	844509.797181476763	9
7	16706	844771.746152093432	8
7	16710	844846.526283354694	9
7	16714	845123.55316186099	8
7	16723	845182.734474980372	7
7	16726	845379.093489179109	6
7	16729	845511.865932357879	5
7	16757	846889.200953922367	4
7	16765	847412.434684105291	3
7	16780	847912.134846148488	4
7	16782	848101.383404638008	3
7	16795	848502.890657954299	2
7	16798	848541.391251379421	1
7	16803	848659.78789855079	2
7	16819	849268.954673486143	3
7	16825	849594.660475489749	4
7	16838	850194.462447745272	5
7	16847	850960.649531005106	6
7	16849	851093.935515839488	5
7	16867	851720.015445364555	6
7	16876	852026.701817745772	7
7	16880	852331.345275420314	6
7	16884	852358.860742512946	7
7	16897	853115.473069636479	6
7	16901	853368.528219785895	7
7	16908	853593.93332324923	6
7	16918	853987.506873725362	7
7	16922	854053.253783944971	6
7	16930	854445.419978003427	5
7	16942	855422.190564530546	4
7	16956	855747.841977365146	3
7	16959	855751.818332745933	2
7	16966	855985.787229085632	3
7	16971	856275.235827320775	4
7	16984	856878.274807198614	3
7	16999	857514.910108151335	4
7	17001	857695.692832513435	3
7	17011	859403.245613491531	2
7	17022	859662.528147954642	1
7	17032	860013.657178630363	2
7	17040	860338.790839463262	3
7	17045	860647.409337352347	2
7	17049	860681.012185309934	3
7	17065	861300.979509122214	4
7	17071	861541.943432975357	5
7	17080	863366.505470210468	4
7	17096	863691.104690976003	3
7	17106	863964.248101879586	4
7	17112	864260.426183502314	5
7	17117	864549.232025825458	6
7	17122	864774.887789579545	7
7	17126	864836.070484625654	6
7	17130	864962.151714269445	5
7	17142	865390.563796370074	6
7	17146	865533.574513911319	5
7	17170	867095.87793155982	6
7	17173	867552.46392598709	5
7	17181	868056.615137684305	4
7	17195	868541.847842654766	3
7	17201	868686.627443151889	2
7	17205	868755.698671587842	3
7	17212	868820.413047751178	2
7	17216	869020.99158022332	3
7	17222	869269.568967682477	4
7	17241	870218.193228271115	5
7	17253	870708.772892047762	4
7	17258	870938.269359174669	5
7	17271	871548.931810100118	6
7	17280	872047.83254135412	7
7	17287	872067.366719756864	6
7	17291	872352.522810585144	7
7	17304	872922.535527249981	6
7	17311	872980.04379843612	7
7	17315	873218.33971437514	6
7	17319	873301.853287845455	7
7	17332	873599.267313463195	6
7	17336	873853.944221364802	7
7	17350	874475.072739965719	8
7	17365	875078.61548840797	7
7	17369	875157.318338406318	8
7	17373	875158.548352934197	7
7	17377	875402.338441036225	6
7	17384	875453.747143117582	7
7	17389	875746.17753550961	8
7	17393	876003.953925568462	7
7	17397	876078.077327860815	6
7	17424	877158.097457689814	5
7	17428	877312.711567704504	6
7	17432	877314.492967459292	5
7	17445	877864.236798347453	6
7	17454	878437.154597972636	5
7	17457	878450.806874378299	4
7	17475	879120.30082599261	5
7	17479	879198.535882001512	4
7	17488	879560.295434545491	3
7	17508	880203.10841425769	4
7	17520	880506.164218036947	5
7	17525	880842.188036405573	6
7	17530	881127.463269477743	7
7	17538	881341.884163831909	6
7	17545	881546.483284560613	7
7	17550	881789.731289361856	8
7	17554	881907.165151077376	7
7	17563	882341.849045067901	6
7	17581	883189.394094113698	7
7	17583	883255.88941127617	6
7	17592	883890.002046567068	5
7	17597	883940.121918775696	4
7	17603	884072.340487197464	3
7	17615	884483.557666003722	4
7	17624	884785.294732049775	5
7	17629	885094.468387671033	6
7	17633	885179.147577760648	5
7	17636	885309.222098712497	4
7	17652	885756.663819928592	5
7	17663	886124.936098111399	6
7	17672	886431.180540879003	7
7	17676	886714.409306385506	6
7	17680	886751.498605696809	7
7	17688	887062.466376708967	8
7	17694	887365.230484451867	9
7	17706	887688.2092997818	8
7	17710	887919.367017137983	9
7	17715	888102.926834226093	8
7	17726	888291.871978303287	7
7	17730	888485.816318980527	8
7	17743	888962.348385446197	7
7	17761	889385.393294782898	8
7	17765	889617.401170956702	7
7	17769	889668.007574231222	8
7	17774	889770.2767339458	7
7	17780	889940.002460181051	6
7	17784	889961.264790127589	7
7	17792	890295.492041045407	8
7	17798	890600.460189765087	9
7	17802	890890.41378577256	8
7	17806	890899.219781161568	9
7	17810	891172.807925900259	8
7	17829	891929.457732262559	7
7	17846	892456.420583950903	6
7	17853	892739.43948226834	7
7	17858	893031.282373163378	8
7	17862	893063.391800025863	7
7	17871	893459.867683698347	6
7	17885	894163.773816508719	5
7	17893	894331.969804241412	4
7	17901	894626.096589823842	3
7	17904	894807.679032339441	2
7	17931	895877.240047148151	3
7	17935	895911.679653246508	2
7	17942	896175.339641218185	3
7	17947	896493.733694722162	4
7	17957	896763.498968206528	3
7	17980	897943.50260391098	4
7	17998	898871.747356605767	3
7	18003	899163.344448926473	4
7	18010	899913.523235690056	3
7	18016	900112.585731429864	2
7	18028	901538.673736831555	1
7	18043	902248.96057884023	2
7	18052	903255.552777616514	3
7	18054	903357.820730477304	2
7	18069	904095.785695551835	3
7	18082	905264.371801355693	4
7	18087	905528.616422904585	5
7	18089	905691.231042694488	4
7	18099	907114.807387306323	3
7	18112	907606.885131882643	2
7	18116	907714.991354034845	3
7	18131	908645.01032142397	4
7	18138	909099.048536714972	3
7	18142	909149.313688627652	4
7	18147	909464.79505202703	3
7	18167	910099.767976846174	4
7	18173	910340.594917652943	5
7	18181	910998.607235956926	6
7	18189	911281.391256501756	5
7	18193	911369.418173428479	6
7	18201	912181.934871730673	5
7	18221	912771.059537060345	6
7	18226	912934.229496860607	5
7	18233	913037.398858008834	6
7	18238	913333.640221611408	7
7	18243	913610.698956848597	8
7	18248	913806.461427378414	7
7	18256	914083.302664695615	6
7	18268	914961.940153978746	5
7	18273	914983.900180205469	4
7	18286	916537.911893565053	3
7	18291	916601.514716068183	2
7	18294	916641.435215662713	1
7	18305	916915.06526018423	0
7	18310	917168.511248408053	1
7	18339	920195.205325993765	2
7	18350	920557.606373708691	3
7	18355	920726.621566513279	2
7	18359	920860.512089238145	3
7	18364	921180.143948745941	4
7	18379	922833.724183397586	5
7	18388	923454.770436957055	6
7	18390	923678.459013653132	5
7	18405	924266.109043436294	6
7	18412	924578.06309823607	5
7	18416	924642.012268455477	6
7	18420	924734.33111395949	5
7	18429	925050.255440514474	4
7	18447	925891.02211345295	5
7	18449	926038.400439406088	4
7	18464	926620.239453951501	5
7	18471	926905.591896256362	4
7	18475	927126.803750294688	5
7	18489	927685.636704148104	6
7	18491	927914.58148304651	5
7	18499	928038.311337638808	4
7	18512	928505.531687256226	5
7	18517	928754.695520751219	6
7	18524	929039.558993955231	5
7	18534	929412.189441626721	6
7	18547	929933.883249767348	7
7	18555	930354.779294282435	6
7	18562	930461.225161816067	7
7	18567	930767.792659711392	8
7	18575	931120.207952192394	7
7	18583	931285.261163086306	6
7	18586	931292.096254229733	5
7	18596	931735.144741577645	6
7	18608	932128.679485758044	5
7	18612	932353.52851132645	6
7	18630	933283.311007893002	5
7	18634	933300.639945164597	6
7	18639	933609.27779749982	5
7	18655	934026.019574382445	4
7	18660	934314.641375986203	5
7	18667	934801.761537965554	4
7	18682	935652.117652402131	5
7	18684	935837.496738713684	4
7	18692	935965.740066853545	3
7	18701	936325.442080942727	2
7	18705	936397.268784908643	3
7	18727	937633.112992536427	4
7	18733	937925.982181914751	5
7	18735	938021.935858135754	4
7	18750	939278.85797151924	5
7	18753	939497.206034920406	4
7	18770	940153.770427020965	5
7	18774	940195.944451349535	4
7	18782	940436.142817281584	5
7	18787	940736.407279655299	6
7	18794	941121.461912980975	5
7	18811	941567.133197779557	4
7	18815	941766.011249630353	5
7	18821	942074.325198879037	6
7	18833	942642.599879630893	5
7	18837	942704.822853778428	6
7	18846	943759.407644262514	5
7	18851	943801.938393705472	4
7	18859	944305.759336361993	3
7	18877	945084.359911065033	4
7	18886	945704.689968423978	5
7	18888	945928.68714836891	4
7	18893	946008.802053639744	3
7	18910	946575.906255734442	2
7	18914	946811.358423492006	3
7	18929	948218.997011082841	4
7	18931	948820.110163005857	3
7	18936	948837.341384075118	2
7	18949	949433.707954716929	3
7	18963	949956.746384475198	4
7	18974	950406.55713714975	5
7	18978	950516.134174115786	4
7	18983	950673.374438836473	5
7	18996	951291.084214487804	6
7	19010	951572.314734087442	5
7	19014	951776.187509851736	6
7	19019	952099.743285670773	7
7	19025	952410.572885003778	8
7	19037	952882.143654292103	7
7	19041	953159.617560804669	8
7	19049	953555.924943099925	7
7	19058	954083.322500992789	6
7	19063	954163.840173018162	5
7	19075	954674.390476425136	6
7	19082	954843.281806096117	5
7	19086	954948.727644443125	4
7	19095	955217.935468868476	5
7	19102	955328.450721130114	4
7	19110	955649.329111578143	3
7	19115	955795.612993590195	4
7	19130	956652.732652091121	3
7	19142	957929.832850114338	2
7	19157	958547.638611497205	3
7	19164	959057.932846301163	2
7	19169	959222.224520161779	3
7	19176	959425.156955558115	2
7	19188	959795.426613456596	3
7	19197	960100.510236163682	4
7	19202	960394.035609520498	5
7	19216	961382.432614480007	6
7	19228	962354.780609189658	7
7	19239	962667.883085153501	6
7	19245	962690.771435060895	5
7	19249	962732.179587564417	6
7	19254	963021.122895324824	7
7	19258	963109.331667009994	6
7	19262	963318.558116954737	7
7	19268	963608.748806411303	8
7	19275	963870.930427182466	7
7	19283	964008.337215343455	6
7	19290	964230.22789289349	7
7	19296	964493.624928641996	8
7	19314	965246.152516391691	7
7	19318	965312.648682961326	8
7	19327	965731.266608444755	7
7	19336	966183.450194184391	6
7	19344	966361.690800614329	5
7	19352	966716.983594308062	4
7	19355	966795.678360939141	3
7	19378	968064.274101747371	2
7	19391	968449.761775327643	1
7	19396	968620.252594274632	2
7	19400	968774.053805339095	1
7	19419	970485.671655932619	2
7	19428	971243.589233812534	3
7	19440	972031.347880007869	4
7	19445	972316.744077651816	5
7	19447	972555.623876226277	4
7	19462	973213.843758534975	5
7	19466	974648.739005012838	4
7	19471	974751.372367430724	3
7	19483	975458.818557512924	2
7	19500	976062.51811574837	3
7	19504	976142.683388046959	2
7	19512	976380.714511358881	3
7	19517	976643.492810510698	4
7	19537	977253.86106525669	5
7	19541	977287.385006774912	4
7	19545	977566.681895193862	5
7	19553	977877.272989723398	6
7	19559	978190.004196184442	7
7	19572	979360.917120473212	6
7	19576	979500.617203004315	7
7	19589	980280.597854545736	6
7	19593	980392.028825526649	7
7	19606	980734.727281000543	6
7	19609	980737.732721084876	5
7	19612	980874.234138848362	4
7	19616	980959.753843215318	5
7	19631	981831.300113591933	4
7	19634	981839.092227334555	3
7	19651	982791.883843077692	2
7	19666	984114.955864960806	1
7	19670	984410.344058961125	2
7	19674	984581.977571491445	1
7	19690	985035.482266973772	2
7	19695	985377.214737779277	3
7	19709	986153.465739343088	4
7	19718	986653.994488891801	5
7	19727	987732.412081038722	6
7	19729	987787.655092297374	5
7	19744	988381.065255606307	6
7	19752	988868.768617280567	7
7	19754	989036.948418428679	6
7	19759	989071.81449929311	5
7	19768	989585.239463300612	4
7	19776	989909.289635978505	3
7	19794	990821.508963489702	4
7	19797	990994.938370705575	3
7	19814	991576.83022415178	4
7	19820	991822.167381761646	5
7	19822	992128.356757147959	4
7	19830	992335.04594408589	3
7	19840	992697.233177849347	4
7	19848	993977.943489527969	3
7	19862	994457.476105555328	2
7	19866	994565.209457378607	3
7	19878	995106.705023608807	2
7	19883	995367.677891669136	3
7	19896	995942.62436591321	4
7	19905	996251.727437509124	5
7	19907	996359.48657793352	4
7	19922	997302.34650005167	5
7	19930	998354.734706913479	4
7	19934	998391.677657222879	5
7	19942	999160.477632926879	4
7	19951	999541.19264639325	3
7	19964	999912.750276064623	2
7	19968	1000118.758074110155	3
7	19976	1000948.419699335155	2
7	19991	1001545.780776344505	3
7	20000	1002055.03534874996	4
7	20002	1002519.286897872065	3
7	20012	1003793.21557589814	2
7	20021	1004909.41421859905	1
7	20030	1006068.809723369885	0
7	20045	1006605.767261998311	1
7	20060	1007261.175081858807	2
7	20065	1007565.309408797045	3
7	20076	1007903.4114041781	4
7	20082	1008229.149172852179	5
7	20087	1008576.576389750913	6
7	20091	1010165.821500006367	5
7	20096	1010484.428125454992	4
7	20099	1010485.823775851714	3
7	20113	1010862.607595939397	2
7	20127	1011269.82760181536	1
7	20140	1011680.307428257347	2
7	20145	1012011.677794138385	3
7	20149	1012092.270593385844	2
7	20153	1012290.580582544106	3
7	20176	1013228.491661274446	4
7	20181	1013514.752164938152	5
7	20185	1014925.407034109704	4
7	20202	1015575.628034981044	5
7	20208	1015892.426293670136	6
7	20210	1016327.805347945075	5
7	20215	1016418.844918230239	4
7	20224	1016845.788144169668	3
7	20235	1017082.345545343055	2
7	20248	1017546.074318311108	3
7	20256	1017804.504151128834	4
7	20261	1018129.155195566399	5
7	20281	1018727.569374594185	6
7	20286	1019063.701236804667	7
7	20291	1019225.217766923296	6
7	20295	1019348.693189073295	7
7	20302	1019631.010293484905	6
7	20311	1019949.812147848213	7
7	20325	1020554.981043880866	8
7	20328	1021383.7133239856	7
7	20333	1021397.548763662078	6
7	20336	1021684.506738215709	5
7	20350	1022125.232994742364	4
7	20362	1022678.854326756023	3
7	20367	1022964.556061385813	2
7	20387	1023805.494228346775	1
7	20390	1023863.640550339355	0
7	20394	1023935.687225403782	1
7	20399	1024277.556411864891	2
7	20419	1025221.665941062387	3
7	20430	1025508.145721738804	4
7	20435	1025790.034178694565	5
7	20444	1026383.461180707999	6
7	20452	1027131.217682132584	5
7	20456	1027274.097172733987	6
7	20464	1028315.253309704467	5
7	20473	1028812.596322110589	4
7	20481	1029413.287992258348	3
7	20490	1029843.031765768421	2
7	20495	1029900.629624657693	1
7	20513	1030619.396397705856	2
7	20515	1031000.576922638215	1
7	20530	1031619.661546330622	2
7	20539	1032365.7811407837	3
7	20551	1033041.598258765559	4
7	20559	1033346.659847865344	5
7	20564	1033626.164102899424	6
7	20567	1034277.883313720972	5
7	20582	1034950.122468101781	6
7	20584	1035133.424337643978	5
7	20599	1036031.269469427965	6
7	20606	1036287.833973318966	5
7	20611	1036350.870002002396	6
7	20615	1036351.754385441898	5
7	20621	1036375.593505840646	4
7	20632	1036715.385102255186	3
