file 371857 1483892976                                          
version 2
run ParkingMeasurement-42-20170108-17:29:36-5057
attr configname ParkingMeasurement
attr datetime 20170108-17:29:36
attr experiment ParkingMeasurement
attr inifile parkingStudy.ini
attr iterationvars ""
attr iterationvars2 $repetition=42
attr measurement ""
attr network controltower.SimNetwork
attr processid 5057
attr repetition 42
attr replication #42
attr resultdir results
attr runnumber 42
attr seedset 42
param SimNetwork.a.parkingLot.parkingDelay "truncnormal(60min, 6min)"
param SimNetwork.a.runway.landingTime "truncnormal(5min, 0.5min)"
param SimNetwork.a.runway.takeoffTime "truncnormal(5min, 0.5min)"
param SimNetwork.a.runway.throughputCheckInterval 14.286min
param SimNetwork.wg.interArrivalTime exponential(14.286min)

vector 7  SimNetwork.a.parkingLot  parkingOccupancy:vector  ETV
attr source  parkingOccupancy
vector 4  SimNetwork.a.takeoffQueue  queueLength:vector  ETV
attr source  queueLengthSignal
vector 3  SimNetwork.a.takeoffQueue  queueTime:vector  ETV
attr source  queueTimeSignal
vector 2  SimNetwork.a.landingQueue  queueLength:vector  ETV
attr source  queueLengthSignal
vector 5  SimNetwork.a.runway  landedThroughput:vector  ETV
attr source  landedThroughputSignal
vector 6  SimNetwork.a.runway  tookoffThroughput:vector  ETV
attr source  tookoffThroughputSignal
vector 0  SimNetwork.wg  responseTime:vector  ETV
attr source  responseTimeSignal
vector 1  SimNetwork.a.landingQueue  queueTime:vector  ETV
attr source  queueTimeSignal
0	1475 47652 2344 20966 121737.179660677062 1034623.371871129667 1098 3629.3693173585 13893.737336608 6569396.1338164 41974778854.776
1	49127 43461 2346 20973 121737.179660677062 1036374.555925371571 1099 0 1016.7655414043 193810.41198888 71564446.912998
2	92588 64837 2340 20973 121585.267685662027 1036374.555925371571 2198 0 4 1573 2223
3	157425 43338 2337 20962 121461.222603706301 1034317.127588976038 1098 0 8912.342626974 868386.76377253 2811868667.9238
4	200763 64872 2335 20962 121461.222603706301 1034317.127588976038 2196 0 17 3460 19146
5	265635 20668 2342 20969 121716.72 1036306.44 1068 0 4 1099 1959
6	286303 20668 2342 20969 121716.72 1036306.44 1068 0 3 1098 1952
7	306971 64886 2332 20976 121238.156393838115 1036620.280452292418 2198 0 12 10481 58523
