file 352779 1483664705                                          
version 2
run ParkingMeasurement-43-20170106-02:05:05-12701
attr configname ParkingMeasurement
attr datetime 20170106-02:05:05
attr experiment ParkingMeasurement
attr inifile parkingStudy.ini
attr iterationvars ""
attr iterationvars2 $repetition=43
attr measurement ""
attr network SimNetwork
attr processid 12701
attr repetition 43
attr replication #43
attr resultdir results
attr runnumber 43
attr seedset 43
param SimNetwork.a.parkingLot.parkingDelay "truncnormal(60min, 6min)"
param SimNetwork.a.runway.landingTime "truncnormal(5min, 0.5min)"
param SimNetwork.a.runway.takeoffTime "truncnormal(5min, 0.5min)"
param SimNetwork.a.runway.throughputCheckInterval 14.286min
param SimNetwork.wg.interArrivalTime exponential(14.286min)

vector 7  SimNetwork.a.parkingLot  parkingOccupancy:vector  ETV
attr source  parkingOccupancy
vector 4  SimNetwork.a.takeoffQueue  queueLength:vector  ETV
attr source  queueLengthSignal
vector 3  SimNetwork.a.takeoffQueue  queueTime:vector  ETV
attr source  queueTimeSignal
vector 0  SimNetwork.wg  responseTime:vector  ETV
attr source  responseTimeSignal
vector 5  SimNetwork.a.runway  landedThroughput:vector  ETV
attr source  landedThroughputSignal
vector 6  SimNetwork.a.runway  tookoffThroughput:vector  ETV
attr source  tookoffThroughputSignal
vector 2  SimNetwork.a.landingQueue  queueLength:vector  ETV
attr source  queueLengthSignal
vector 1  SimNetwork.a.landingQueue  queueTime:vector  ETV
attr source  queueTimeSignal
0	1464 45003 2084 19766 121344.928373871384 1036376.994227182051 1038 3730.0083056074 10600.666009455 5896574.0662907 34404660758.506
1	46467 40527 2090 19768 121845.336755953805 1036376.994227182051 1040 0 1016.1152113052 155301.67996195 50555742.196146
2	86994 61326 2088 19768 121845.336755953805 1036376.994227182051 2080 0 4 1360 1760
3	148320 40702 2081 19773 121027.362535970577 1036643.26274823179 1039 0 2784.7296419074 459022.35122452 523520162.90636
4	189022 61268 2079 19773 121027.362535970577 1036643.26274823179 2078 0 6 2071 4307
5	250290 20597 2086 19761 121716.72 1036306.44 1068 0 3 1039 1815
6	270887 20597 2086 19761 121716.72 1036306.44 1068 0 3 1037 1787
7	291484 61295 2078 19771 121027.362535970577 1036643.26274823179 2079 0 10 9394 50064
