version 2
run ParkingMeasurement-30-20170106-02:05:02-12662
attr configname ParkingMeasurement
attr datetime 20170106-02:05:02
attr experiment ParkingMeasurement
attr inifile parkingStudy.ini
attr iterationvars ""
attr iterationvars2 $repetition=30
attr measurement ""
attr network SimNetwork
attr processid 12662
attr repetition 30
attr replication #30
attr resultdir results
attr runnumber 30
attr seedset 30
param SimNetwork.a.parkingLot.parkingDelay "truncnormal(60min, 6min)"
param SimNetwork.a.runway.landingTime "truncnormal(5min, 0.5min)"
param SimNetwork.a.runway.takeoffTime "truncnormal(5min, 0.5min)"
param SimNetwork.a.runway.throughputCheckInterval 14.286min
param SimNetwork.wg.interArrivalTime exponential(14.286min)

vector 0  SimNetwork.wg  responseTime:vector  ETV
attr source  responseTimeSignal
vector 2  SimNetwork.a.landingQueue  queueLength:vector  ETV
attr source  queueLengthSignal
vector 1  SimNetwork.a.landingQueue  queueTime:vector  ETV
attr source  queueTimeSignal
vector 7  SimNetwork.a.parkingLot  parkingOccupancy:vector  ETV
attr source  parkingOccupancy
vector 5  SimNetwork.a.runway  landedThroughput:vector  ETV
attr source  landedThroughputSignal
vector 6  SimNetwork.a.runway  tookoffThroughput:vector  ETV
attr source  tookoffThroughputSignal
vector 4  SimNetwork.a.takeoffQueue  queueLength:vector  ETV
attr source  queueLengthSignal
vector 3  SimNetwork.a.takeoffQueue  queueTime:vector  ETV
attr source  queueTimeSignal
0	2296	120970.805394474029	7179.5375809541
0	2403	124477.155313827751	8841.1865182539
0	2408	124755.922014360507	8490.9176666395
0	2419	125037.601064111681	8904.8585969878
0	2450	125892.585473401863	9476.135879125
0	2464	126464.02447431631	7404.0204379874
0	2472	126764.815212273961	8351.0364691685
0	2478	127059.13313594759	8559.1011246851
0	2492	127294.360199868923	8132.7148171796
0	2506	127909.286387403367	8471.6282615515
0	2517	128223.915470005575	8496.2813049788
0	2531	128854.118277755296	7686.0688175949
0	2539	129140.987945868356	8487.9221336032
0	2564	129996.045824016484	9973.8387599352
0	2570	130323.558479283017	8814.9770511879
0	2575	130643.180203063994	9022.2357953418
0	2580	130929.960013875264	9407.0843292993
0	2586	131260.043836019807	8852.3759781464
0	2591	131516.227485623101	9542.2575733137
0	2596	131815.614964812956	9196.7417008482
0	2608	132100.569116496324	8667.9160547
0	2613	132416.109291811539	8675.5623228208
0	2618	132760.479041563807	7684.1021100618
0	2633	133087.251958380308	8170.6798843581
0	2643	133700.344614911593	6592.8688254402
0	2649	133998.234399756711	8343.6679053517
0	2654	134310.36631942961	6169.56301193
0	2663	134620.34189747859	5619.5177705055
0	2719	137492.168437326621	8138.9437960864
0	2736	138275.022602105898	5393.5019523578
0	2781	139765.231581311979	5274.5140158547
0	2786	140085.645508040838	4108.0941932114
0	2806	140758.165876071712	5919.812994798
0	2814	141032.038370680373	4658.907148624
0	2819	141331.367759760847	5256.2422883679
0	2828	141938.403968574908	5145.5510884348
0	2840	142525.273235852939	4208.8124213484
0	2848	142786.978924074039	5087.6089936081
0	2853	143090.982261517011	4543.5442614037
0	2862	143523.652866297972	5020.1525169802
0	2887	144632.609454872037	5503.0196433173
0	2931	147769.30352971183	7650.9539326231
0	2940	148407.699839518542	4784.7263212642
0	2985	150567.788446334474	6571.3197511377
0	2993	150834.073994445478	4937.4518324515
0	3002	151199.806114375685	5114.0909262407
0	3010	151469.141339167193	5119.669945131
0	3028	153224.316279356452	4470.724378146
0	3037	153499.442954328585	7079.0019014696
0	3053	154110.040479127454	4790.4329623823
0	3059	154460.675043722788	5474.8597523033
0	3068	155613.798094638123	5891.7750934481
0	3106	158121.688361529839	6920.9536222001
0	3129	159869.206197835655	6623.8473106524
0	3158	161728.023711745461	4417.239852324
0	3167	162023.344624629654	6399.1734136039
0	3172	162341.573865251432	5023.6395702077
0	3184	162988.921162895951	4900.8175259867
0	3198	163902.308497196112	4875.0813685541
0	3215	165410.921416625953	5321.594689572
0	3250	167316.296712758088	6502.3453819769
0	3262	168378.754340909924	5618.7099197815
0	3279	169035.47404410989	4559.2180395015
0	3304	170259.599093364376	4774.1163818963
0	3318	170950.112549979278	4573.2060983779
0	3335	172228.708093292288	5735.920520373
0	3367	173595.242904212015	4843.5713809773
0	3381	174198.760076018828	6040.844710572
0	3386	174467.954025855476	5429.154567686
0	3396	175860.482924396104	5635.7081324459
0	3425	177512.976188375051	6216.5380150393
0	3433	177807.13612492959	5188.4525234273
0	3447	178364.722311018683	5674.0252703063
0	3493	181116.787680607319	7685.5373053267
0	3498	181361.523613636216	4759.7046548453
0	3510	181953.485496979627	5026.5276970271
0	3538	183369.903955584302	5838.6731271533
0	3567	184291.857640299057	5704.6780926695
0	3594	185496.547978456015	5566.5865682928
0	3605	185783.170596288519	5828.2868666399
0	3619	186363.902536447328	6171.0741035079
0	3633	186926.253302944623	5301.0942596934
0	3641	187545.014074010748	4793.3924281138
0	3693	189500.814418153225	6374.7474985853
0	3698	189838.124711209908	6765.5123659246
0	3703	190097.847116825969	5842.793205521
0	3718	190376.2102963084	6234.4052944743
0	3776	192594.64279404043	7948.484513195
0	3787	192859.817662439754	7303.193587375
0	3793	193153.127855156143	7029.7170002365
0	3798	193469.945897418185	5579.7132201365
0	3804	193757.467844467824	5852.8719016633
0	3812	194093.406785986114	5600.3952987998
0	3829	194729.577431078269	4368.4451248805
0	3834	195007.322283046184	6272.2822422383
0	3845	195387.889888020505	4751.4818465467
0	3862	195966.361842408058	5185.5859268564
0	3871	196294.486557087337	5467.8269750881
0	3884	196932.053003432421	5394.5986154164
0	3896	197838.55970642617	6117.9530780167
0	3917	199268.482339421045	5433.4539981064
0	3986	201883.661928391131	6539.5165497489
0	3997	202197.715265013876	5999.5171973642
0	4020	203541.577375044732	5923.6435223486
0	4035	204009.702607583253	4606.239850695
0	4046	204278.603636697465	5048.8286391487
0	4054	204560.023516035638	5435.4544381288
0	4060	204877.24254178474	4477.6653842409
0	4065	205181.362891298296	5100.2052182026
0	4070	205482.134998609114	5558.5755167464
0	4079	205870.438770364455	5467.345412
0	4098	206490.044629536167	5536.8308643366
0	4107	206744.763705266419	4595.6239355448
0	4131	209975.399376871579	7373.08959439
0	4152	210899.482458209359	5002.9497628326
0	4178	212911.969550963873	6336.0268165647
0	4209	214916.981775370743	5788.458243311
0	4226	215488.092990481068	5178.5976250351
0	4238	216474.28767815385	5699.8682649046
0	4260	217463.33914455335	5162.3513368761
0	4272	217883.423790711039	5170.8690429877
0	4280	218234.834615157044	4366.7138302121
0	4303	219496.116090176824	5272.0181867431
0	4323	221035.693760359022	6094.1858992103
0	4329	221307.664130567475	4898.7444793763
0	4360	222704.796006150116	5852.8787591148
0	4371	223317.258886865766	5397.0832145062
0	4383	224146.148010154934	5381.6375535355
0	4401	226029.615105014953	5741.5917299109
0	4410	226300.226501613738	4565.8115372286
0	4443	227489.611958670888	5285.8439911714
0	4457	228096.56236248048	5456.3239080229
0	4522	231166.70818152573	7027.3073887072
0	4531	231510.319168846156	5341.3090770695
0	4536	231787.560840312277	5350.5826523324
0	4541	232111.398154198566	5344.4511638317
0	4550	232511.581704061026	5042.0746179175
0	4558	232848.29765472486	4445.9991265028
0	4575	233572.903428703906	4024.0653963818
0	4606	234562.85818011312	4915.547539107
0	4631	235402.876071841435	5997.8819182943
0	4658	236542.376659129144	6421.0458065156
0	4670	237117.191465291302	6548.3524609232
0	4684	237774.845752644109	4777.0974599888
0	4699	238419.771357706894	4710.3326218654
0	4712	238965.769985928917	5334.6323424016
0	4724	239260.777131520164	4709.2081191671
0	4729	239510.705282510943	4735.8465938982
0	4737	239850.974550081681	4706.541835682
0	4754	240580.994802617947	4877.3184361521
0	4760	240890.571465571798	5221.2927424517
0	4834	244308.050500928709	7378.697930018
0	4861	245561.512124716115	7370.101425156
0	4873	246190.499680132975	6667.9194977419
0	4881	246484.922258928503	4447.0896458571
0	4892	246764.19882656759	4709.3614475597
0	4906	247389.785302778349	5489.5836367678
0	4917	247696.754202554205	5351.0303025879
0	4934	248301.573460579953	5909.225458859
0	4957	248953.533370284058	6480.8343164623
0	4968	249626.571529374955	6995.8482385827
0	4973	249879.746040261091	5698.2128628712
0	4978	250115.22086334032	5582.7346013193
0	4990	251135.751613311166	6580.9712808776
0	5004	251743.193149491236	4086.584399787
0	5024	252411.050797044116	5838.4947541658
0	5029	252693.858737800013	4454.9970511817
0	5040	255125.108339168375	6336.2946321064
0	5066	256506.110709071712	5424.6935854277
0	5105	260218.564573717029	4645.852123628
0	5110	260507.732175295915	8691.5154801754
0	5120	261506.756659742338	5686.1242581403
0	5132	262507.768294980175	5008.458006897
0	5163	264056.643148188235	6070.0165201678
0	5173	266079.335684888631	3675.7845923384
0	5193	266900.628625073028	7686.5617832205
0	5215	267991.312121927917	5342.9236722064
0	5250	270043.721332329199	6596.6022746413
0	5278	270989.09867742766	4800.2584279838
0	5317	272188.886908589069	5379.778985664
0	5334	272783.245400669497	5332.6931991806
0	5356	273741.144736239624	5721.1841915039
0	5364	274048.000427839743	5838.9536426309
0	5370	274337.410269848411	4901.8970480885
0	5381	274670.480283192233	4589.2863418442
0	5395	275309.815891434099	4891.6492798479
0	5403	275630.654688500106	4667.0211352796
0	5408	275914.626520228862	4699.489859414
0	5417	276205.587646723604	4903.4323723897
0	5429	277361.416181029252	5234.976329336
0	5437	277624.322449021757	5069.2100880507
0	5468	279171.831199360925	6460.1272044923
0	5506	281760.562303136329	7129.8957997651
0	5515	282069.522570360978	4489.3981197417
0	5528	282682.092290530645	4829.5886405394
0	5544	283823.698406287306	5234.3096832143
0	5574	285093.266630499678	5759.3182499803
0	5579	285406.892212298643	5706.2738005735
0	5597	286546.605133163425	6519.6252448475
0	5621	288431.93443502177	4815.9935227529
0	5626	288751.586560670154	6702.2041520846
0	5632	289094.647898428366	5102.7687506701
0	5644	289816.774385062351	5760.8410514691
0	5666	291139.308716762656	5163.3713661337
0	5676	292993.947292163105	3386.8031091964
0	5688	293349.702649616917	6498.0825490554
0	5741	297661.735582553024	4363.2224495043
0	5746	297981.413612112572	7869.0291513927
0	5772	299483.786605722324	5878.9189165779
0	5781	300079.842220108555	5556.0175197938
0	5789	300810.102755896565	4505.3116324872
0	5799	302231.236805099748	5544.8023908944
0	5828	303488.146360731617	5254.0511015305
0	5860	306081.523779706266	3517.5003895817
0	5868	306581.483276148596	8044.9694807171
0	5886	307835.079138227563	5019.862543915
0	5894	308384.237479736945	5075.0219389079
0	5912	308852.478965071102	4910.3908636178
0	5987	312074.946144968069	7505.7121883836
0	5995	312824.705653894547	5746.2704301026
0	6015	313481.901517168677	4847.8297705529
0	6030	313808.772046761207	5020.3593938274
0	6043	314376.181832403674	5590.7513619954
0	6052	314662.644266832852	5053.2102117731
0	6071	315340.813918419337	5643.5182466822
0	6096	316181.935714514726	6077.3817840023
0	6110	316759.916881072873	6685.3201616288
0	6115	317070.545136692812	6921.0840293002
0	6124	317355.392552001799	6219.626393364
0	6149	318551.755330400644	4757.7821787101
0	6154	318785.263626557648	5938.3529349868
0	6163	319257.837022600931	4806.3894132209
0	6183	320285.100347441119	5005.1807445283
0	6192	320617.108187144964	5516.7016867677
0	6209	321559.033920126972	5459.0156257812
0	6225	322156.3880598249	4908.4055443722
0	6256	323415.168185615917	5402.2680353552
0	6264	323935.415966778537	4324.4077734329
0	6277	325382.209753317682	5057.2818841555
0	6294	326223.025946494075	4068.8139036119
0	6299	326514.772072450062	5169.9710013413
0	6319	327411.585301667181	5208.0164558972
0	6371	330353.517214654207	8033.1203055094
0	6416	331888.101028322915	6674.1534567917
0	6427	332220.676361144314	5445.018181256
0	6485	334254.564466369646	7009.2924678418
0	6497	334538.199815503002	7001.7178672044
0	6502	334809.019163639406	6400.9416521422
0	6513	335103.030935406142	5815.0805912996
0	6541	335980.523721659113	5743.262092525
0	6555	336547.77968568601	6843.7192498267
0	6563	336820.597134503718	6332.6653613669
0	6569	337120.080844041431	6546.6840305018
0	6583	337371.585761527487	6672.4342524985
0	6600	337989.169961291746	5683.6476474491
0	6617	338584.893623763621	6539.5473169835
0	6636	339176.476130106384	6420.0968321654
0	6680	340813.343369964642	7852.5567514991
0	6685	341112.48054310679	8178.2529650918
0	6694	341468.273880410615	7966.7218126311
0	6702	341755.448940858267	6932.6360391019
0	6716	342347.208414089569	7217.3038896875
0	6727	342612.387616017221	5433.3103538925
0	6744	343204.452605923248	7296.5643071051
0	6761	343825.181707168296	6067.4452779083
0	6766	344144.437063035103	5680.9486267617
0	6774	344504.525970320754	5461.3126370172
0	6786	344827.664372809063	5804.7531825411
0	6796	345370.037104969857	5372.7030272048
0	6805	345665.046327566125	5944.5653818845
0	6810	345977.405563655139	5758.8913253614
0	6830	346576.038456153973	5065.644520987
0	6844	347221.378851023401	4851.4648004074
0	6901	350577.791415197382	7659.7849745916
0	6907	350846.89021737753	6120.9796471325
0	6915	351149.917896364858	5141.2428787307
0	6932	351790.914524977352	5395.4826987887
0	6940	352064.361032647055	4614.982517187
0	6961	353278.848918071484	5817.3534970506
0	6974	353854.069952744674	4455.4559809366
0	7005	355011.06309051222	5496.5685150823
0	7014	355740.065952033698	6083.9143465196
0	7022	356191.395427465188	5169.9599386222
0	7040	357555.833514095651	5493.2583513354
0	7051	357934.184674536265	4884.9987202105
0	7093	359548.282031594489	5472.4828908691
0	7098	359810.335171229422	6188.2413905245
0	7148	361702.381191323708	7624.5599779016
0	7160	362340.4696036371	4124.425522709
0	7172	362668.91100747922	6361.4622636527
0	7177	362941.290245395198	4778.4631181099
0	7182	363261.058075023339	5551.3165373839
0	7206	364370.358081442373	4451.5864598716
0	7211	364687.33484598332	4698.0425503616
0	7216	364986.432319234026	6522.9247949733
0	7231	365323.665803837933	5298.9568417788
0	7244	365947.53843013885	5425.5802265761
0	7333	369247.326877656184	8212.5442613456
0	7342	369881.395411110853	6191.897203046
0	7350	370276.59883268991	5202.2776421494
0	7365	370599.428993552066	4731.1427764823
0	7370	370908.578833920576	4584.8973580221
0	7376	371248.072834556136	4938.1012428428
0	7401	371863.583533748738	4975.7076641288
0	7410	372155.456669820278	5299.7511063533
0	7423	372690.313887039713	6344.5584431106
0	7432	372982.553755402936	5778.7860097592
0	7437	373257.246297171694	5801.2825128045
0	7442	373576.876205482459	5966.8469748491
0	7471	375177.56295963418	6769.7909048954
0	7491	375816.393650852069	4543.7786134307
0	7531	378786.803585288013	6814.3643492463
0	7540	379100.304527901674	5200.6260517499
0	7579	380259.856852519745	5751.9782329634
0	7601	381225.376647516591	6235.8219623153
0	7613	381507.312837706427	5898.0192491801
0	7632	382462.973422176933	6824.384829949
0	7637	382789.461141035335	6339.1940485458
0	7649	383372.022522341263	4274.3298716185
0	7654	383707.820357873939	5680.5010451481
0	7666	384070.498597001171	4823.6567429018
0	7674	384444.497585512758	4859.2361817487
0	7679	384746.243888171911	4522.0083598891
0	7691	385482.119559918472	4932.4967077198
0	7705	386049.276950162448	4732.0907305178
0	7757	389685.041309924757	8292.4225909141
0	7783	390996.469682267245	5677.7248592342
0	7792	391789.733035684315	5493.412702876
0	7803	392132.488982988214	4948.1487505126
0	7817	392938.080491324079	4775.3432696144
0	7825	393407.175069476733	4587.3877658509
0	7862	394978.455974781788	4870.32223115
0	7868	395287.841264433112	6203.6744538612
0	7877	396741.207615658032	6522.2938656208
0	7903	397444.379511768079	5395.7214849362
0	7972	400109.917348498741	6404.6415403314
0	7981	400409.909712062433	6631.0902425266
0	7986	400734.535427746817	6441.9202698046
0	7998	401346.119117076708	4577.0878124373
0	8017	401977.772637163227	4825.514688416
0	8031	402621.011886646543	5329.1573111915
0	8037	402934.913411507566	5495.0875015949
0	8051	403316.926293058533	5855.344053001
0	8059	403630.585556996519	4991.8849390272
0	8081	404528.647492755308	5734.9800395213
0	8090	404814.710377793408	6082.6494661857
0	8112	405779.700086120359	6912.3720548393
0	8124	406455.007458548762	5281.0257385819
0	8157	407703.136808388368	5751.8459400853
0	8174	408329.380908293703	4761.3682851583
0	8191	409037.756499668594	4301.5561113347
0	8202	409327.083703622578	5615.0503754903
0	8231	410614.788070812432	4396.9729393699
0	8256	411541.873198314316	6539.3606023032
0	8289	412852.021253337051	6360.6199232887
0	8314	413738.030670780208	6594.9820592941
0	8320	414011.164218635627	6466.1632311756
0	8325	414302.663898140187	5975.6677230219
0	8336	414680.157222217458	5385.3753613544
0	8350	415258.485196606619	5948.4054294995
0	8378	416193.923548076821	5887.1196708806
0	8386	416482.476892476338	5664.0417555532
0	8398	416831.151143542099	5434.0463600031
0	8411	417431.936638998564	4786.5328309956
0	8423	417725.528083118377	6073.6094638987
0	8434	418353.521902844791	6656.299736461
0	8439	418678.268200694938	5833.6355939273
0	8451	419336.210481565143	4700.9510559161
0	8465	420101.132185814752	4884.8530229304
0	8493	421549.781055605465	6053.0457258614
0	8499	421832.298099400816	5027.8925668836
0	8533	423536.79185087553	5840.7004700098
0	8553	424588.111090147246	3939.1392985246
0	8558	424914.069854789922	5619.359466074
0	8578	425858.539234158227	4924.7307279105
0	8592	426432.903423619705	4554.522784998
0	8600	426800.796174288919	4591.8282018714
0	8629	428317.589987199768	5627.6974642911
0	8643	429241.947860418297	5601.3305701921
0	8660	429866.098688285937	4713.2022829638
0	8678	431310.083253089825	5657.7888827157
0	8687	432254.644170182153	4891.5315487615
0	8707	432788.261583269734	5388.5330323154
0	8768	435180.312669125142	6981.9370035592
0	8779	435791.683178450965	6450.2943674142
0	8799	437134.958407932558	4415.443677277
0	8811	437464.509393232064	4830.1710301706
0	8828	438117.303861364352	7429.078957593
0	8839	438419.016050711393	5708.7818530078
0	8856	438917.314623789335	6143.4916139456
0	8861	439238.224745529193	5899.4600047831
0	8866	439547.275473156503	5532.8060422832
0	8872	439846.079583081522	6034.7499231578
0	8889	440687.268676735102	5604.0163765342
0	8910	442716.749565070242	5261.5678146728
0	8915	443003.214177026567	6544.9159914879
0	8936	444241.493088298298	5880.5143897942
0	8992	446609.78372997956	6570.9620075221
0	9040	448426.389651299344	6254.9842666462
0	9076	449695.849772453228	6529.6006417936
0	9084	449960.159245438645	5792.0682788588
0	9104	450619.889603633584	6307.5703489258
0	9113	450911.828251228647	6046.5776901345
0	9121	451239.729961217683	5827.4830295315
0	9126	451496.999058705645	6142.4216119666
0	9132	451796.56136979506	5993.2211820191
0	9140	452071.248775201272	5148.4685779805
0	9145	452383.972783531317	5202.4847565161
0	9160	452672.881868601964	5270.5475751402
0	9173	453258.207062282716	5588.0317858789
0	9193	453936.265685403864	5589.5188719832
0	9204	454601.996127645991	5895.5553872003
0	9215	454950.762761783575	5896.4551927949
0	9242	457000.346093589134	7196.1923594022
0	9261	457885.464397793033	5493.170565029
0	9272	458224.845625018238	5164.3523201263
0	9305	459355.312776404294	5578.8274911326
0	9311	459599.890593954989	4708.3740948924
0	9367	461747.848453121046	4892.8730909856
0	9381	462267.190511877038	7343.7726273929
0	9386	462539.06183166624	5264.0635471675
0	9398	462895.83900286879	4753.5745571233
0	9403	463204.946286169955	4973.3918934039
0	9414	463555.905858246453	4762.7519958343
0	9420	463916.007476283757	4184.0745321139
0	9434	464235.454184303391	4342.1297046245
0	9445	464865.206273026778	4646.2306044185
0	9454	465453.808122261516	5058.9886389616
0	9462	465902.244650343631	5344.6205737882
0	9491	467952.070482537042	6261.0735441909
0	9591	472958.684435579852	8814.0916237851
0	9597	473269.866953377308	6185.5928475133
0	9602	473517.160668067814	6144.765475734
0	9610	473830.727553005331	5966.843075235
0	9616	474075.219015389674	5736.676702223
0	9630	474783.192923779525	4931.0092523866
0	9647	475408.849976390309	4888.6801937646
0	9655	475690.69645229287	4482.3105017742
0	9664	476014.204885327028	5024.8564635225
0	9672	476385.788528474723	5745.1696363021
0	9678	476687.620266807301	4914.4870970258
0	9686	476977.598464769849	5673.2869806759
0	9729	479686.733538117367	7649.6420572608
0	9752	481307.005924068094	6783.0647842482
0	9772	482091.758265509292	5204.0431112052
0	9780	482482.777048105972	4682.5604786554
0	9786	482781.84486545121	4785.7340905486
0	9798	484272.411896625249	6192.1682867843
0	9804	484563.93998399954	5086.3591619741
0	9821	485802.80363580015	5830.5229870157
0	9864	489982.484316902971	8573.9773813231
0	9875	490496.744524195573	5399.1325133684
0	9884	491336.399396131818	4979.4329588727
0	9902	493281.933082783642	4107.7084914454
0	9910	493607.938191665821	6583.5313643468
0	9937	495746.475434470203	6023.3831421588
0	9974	497994.891517233115	6208.2736690751
0	10001	499990.538482615	6237.3260885094
0	10020	500581.290755312765	5457.5504234206
0	10031	501134.523902205706	4847.5042587176
0	10043	501829.888332619988	4512.8682297992
0	10051	502087.79751033727	5251.8152689487
0	10074	503564.152127787308	5664.5462002265
0	10092	504452.649498442044	5118.5666145627
0	10108	505318.873175514546	5503.0875144047
0	10129	506804.322263360175	6231.783147034
0	10142	507414.727459920902	5418.1144841438
0	10155	508513.365907502507	4342.8216911666
0	10163	508829.9763934251	6011.510610741
0	10177	509980.398103533324	5693.2349644854
0	10189	510728.837024612117	5271.8400926216
0	10216	512846.222615708324	6116.9194637207
0	10278	515485.74306362178	6795.0182818222
0	10297	516429.742029340888	6006.2527258395
0	10309	516962.57171156452	5441.8337790581
0	10325	517634.563549084762	4818.8761637012
0	10337	517945.151895748637	5051.6975325685
0	10347	518552.474285643283	5582.3479967356
0	10356	519090.530372369514	5959.39543616
0	10368	519451.329491262868	4144.5932197942
0	10376	519715.692863055403	5137.1778521417
0	10381	520028.197769745578	5405.1709946141
0	10399	521666.984823114537	6112.3749792218
0	10416	522724.150994913413	5994.4160144302
0	10443	525133.251860958516	7302.6222986138
0	10452	525898.615279643641	4803.9793914751
0	10470	527705.009078908459	5580.0897762138
0	10498	528836.861451725538	5026.7595479153
0	10554	531321.957308530081	6754.9966715106
0	10566	531851.57479889088	3857.9959442688
0	10571	532121.970942135425	5624.423793275
0	10580	532824.038832041944	3990.1196832663
0	10608	533863.909658142742	5668.344239144
0	10617	534182.075806881325	5016.6022177302
0	10633	534740.525336746601	4970.3447660468
0	10645	535053.083082430388	5033.3186240622
0	10655	535654.28021379607	5722.6855265339
0	10692	537425.344838803951	6981.8105810425
0	10698	537683.742573414053	4770.6174091897
0	10715	539041.445354432041	5745.5374164741
0	10724	539622.471100845072	5696.6643192296
0	10742	540556.260218561747	4261.3703922108
0	10764	541364.914466402957	6437.9983105999
0	10778	541956.084079958535	5495.029614519
0	10783	542264.504039727778	5650.5556957137
0	10802	544459.40148854343	6346.0794551107
0	10811	545154.414865215793	4923.9727566511
0	10819	546002.953322641494	5744.4382431945
0	10837	547454.65783886728	6125.5266481964
0	10881	550853.041287550097	7853.7210825378
0	10926	552504.01786956079	5674.07909919
0	10951	553397.522449622614	5268.9595015185
0	10968	554016.433814358136	5550.7356117778
0	10979	554343.842581591123	5281.5564596028
0	11013	555681.063475032839	6054.7713137948
0	11024	555974.297667736607	5077.4502935634
0	11038	556582.307847024952	5657.236404996
0	11046	556890.041545922025	5258.9876852517
0	11052	557171.900314625204	5435.8168837321
0	11057	557459.50839337327	5090.3062314091
0	11074	557860.909326927455	3682.5192411089
0	11090	558787.47791493501	6220.6392646915
0	11108	559374.143973556918	6174.4975967883
0	11127	560294.790015188622	6042.5939494191
0	11135	560550.560040071196	5849.4431330313
0	11158	562057.864126415379	6132.2694005444
0	11167	562515.000525734958	4987.5978573183
0	11188	564082.584935653855	6331.6538427173
0	11193	564387.299208154756	5193.3462564577
0	11204	564786.360161482243	4321.7046686109
0	11210	565127.380019277344	5853.4385085507
0	11223	567337.996469960372	6743.0071771191
0	11292	571468.67739134368	8042.8093397188
0	11312	572400.265831494163	5069.6623201463
0	11318	572668.071692317828	4549.3078594268
0	11323	572997.126394577675	4999.7505636478
0	11371	574649.00591072226	5766.9139108988
0	11385	575248.767095512877	6339.4861887165
0	11410	576198.624787888416	6154.6808616056
0	11415	576486.651225806276	5588.5745960182
0	11438	577409.57506607431	6061.8476991879
0	11443	577687.381942465597	4564.9478896631
0	11449	577968.354216400319	4790.9550619612
0	11460	578319.20692476811	4608.9624097049
0	11466	578642.897781769805	5101.8589383364
0	11477	579097.154891441186	3898.8954487037
0	11491	579610.471901863276	5063.5257427731
0	11500	580622.727397769027	5335.3679278496
0	11511	583116.584034009316	6602.4281212421
0	11540	587376.771844881709	8439.8379332126
0	11549	588075.152563680373	4690.278086699
0	11652	593920.387994711456	5323.2125931323
0	11661	594192.744207284611	10366.182746585
0	11669	594494.358622553318	5590.4252342432
0	11683	595138.509055401636	5874.1407035234
0	11688	595443.464248556945	5865.877349865
0	11694	595739.239786527214	5922.9751282415
0	11722	596539.485089571444	5458.2807664644
0	11744	597404.370200479942	4984.0723407359
0	11758	598012.180969066819	5535.6378748725
0	11769	598631.276254926175	5907.6209700327
0	11794	599713.23684751705	6817.2524377732
0	11803	600365.386140610059	5939.8126245698
0	11818	601175.696058321829	4654.3529199573
0	11826	601536.966512066936	5760.7308803746
0	11835	601835.049482334276	5553.5255796192
0	11848	602463.181006015542	5121.6361099602
0	11854	602792.847992217073	3937.366518012
0	11863	603447.813319345166	5640.3796953956
0	11881	605800.63350254103	6942.7892466086
0	11899	607526.265278890558	5758.5919509674
0	11969	612247.755580471622	8516.8473591369
0	11981	613275.029265255533	6821.4808210615
0	12006	614267.290003102899	5406.8437825952
0	12011	614509.166335271282	4420.4625759952
0	12020	614932.592855022417	4238.0865589583
0	12032	615888.116571314464	4900.5769003952
0	12040	616189.957342044506	5741.3091172792
0	12049	616548.036788159486	5417.8408249037
0	12065	617130.996159994187	5605.8384354863
0	12074	617439.849891419124	4184.0644376481
0	12142	621389.224229639136	7982.727242671
0	12154	621683.696678783755	5143.7648828495
0	12167	622263.407032078055	4938.8397739919
0	12187	622921.641293414975	4122.0203189457
0	12196	623235.591015751341	5570.0986635065
0	12201	623557.139884931604	5175.4267011846
0	12209	623869.013161925774	5009.9431691692
0	12234	624731.542224694366	5769.3726832659
0	12248	625568.658568324958	6281.190091667
0	12274	627091.849571377737	5512.3492295555
0	12283	627896.64881807516	5857.7853657374
0	12291	628261.84313008669	4506.3893510966
0	12300	628752.321369325988	4817.1571647154
0	12329	630617.583335043915	6034.9015308744
0	12335	630897.039788821781	5179.1234605678
0	12378	633470.023298827176	6993.0065697933
0	12421	635518.578498104635	5780.2583125557
0	12446	636446.847255432955	6563.9368834493
0	12451	636811.598848560871	5773.91745735
0	12463	637167.202998437632	5926.8929432537
0	12485	638015.242081568376	5895.4471978462
0	12510	638933.120756244815	6202.846892966
0	12518	639263.04911859726	5027.8944606301
0	12524	639551.525308611904	5054.7584503344
0	12532	639877.52589058814	5510.1434787695
0	12552	640517.320637339238	5167.48884083
0	12574	641491.97772380084	4559.6429060647
0	12588	641763.020850809979	6172.4840745172
0	12616	642883.57119818295	4907.7162163024
0	12621	643170.596042767266	6016.6003935903
0	12638	644073.686874525576	5753.0300481779
0	12647	644704.491245369193	5122.4693558535
0	12655	645175.130217451997	4861.4813894595
0	12670	646131.556650649054	4518.8046032475
0	12684	646714.399501229526	6221.2571988388
0	12692	647039.991892620224	5390.4503868127
0	12706	647626.759867557793	5917.7732346174
0	12733	650466.588697983268	6992.0631197244
0	12745	651400.05525332401	5395.3161159062
0	12762	652277.717896114497	5344.9628333798
0	12796	653690.095494212135	5553.0426521382
0	12819	655019.015565900683	6180.1375655077
0	12854	656737.16799106615	5443.292714515
0	12873	657666.710653209476	4837.5156579782
0	12881	657924.816548139487	5794.4230662303
0	12912	658805.545839440391	5683.9437535749
0	12945	660212.076122368485	6588.6339432776
0	12956	660551.890241067265	6294.4574416144
0	12964	660815.623076625115	4870.782420807
0	12973	661099.749091264657	4409.8557719908
0	12978	661365.455017832933	5221.127103001
0	12986	661689.185974967649	4725.7098677588
0	13004	662588.309962868629	4740.2538920114
0	13012	663088.673176646911	5040.5800224386
0	13024	663819.485995642587	5211.7791219243
0	13032	664097.212060450506	5475.988340344
0	13041	664425.159700018248	5472.5835202578
0	13072	666836.373594175045	7654.4466830949
0	13097	669046.432360095548	7013.056927173
0	13108	669705.378293810545	5313.7490142137
0	13133	670634.684032288689	6004.2445446085
0	13163	672882.806860778161	6703.5627374097
0	13179	673490.759576420747	5064.7066350488
0	13188	673812.366135632821	4997.2649241314
0	13193	674089.345218865328	4364.3247275788
0	13210	675179.135143261072	5211.8775422402
0	13219	675499.78468419111	4203.7189651218
0	13228	676736.84675940245	5423.027074328
0	13282	679568.22261341704	6883.0692257823
0	13308	681331.33274562981	6628.8971786416
0	13314	681615.715242121285	4489.8631477722
0	13337	682975.44729631728	4550.4221845103
0	13346	683319.732101343161	5529.6087977342
0	13351	683592.516431157559	5155.4908317759
0	13359	683886.840933758836	4963.7971539166
0	13373	684775.239159119637	5256.4526036772
0	13399	686434.782384375631	5724.9417860948
0	13437	689013.115159422417	6657.2071014427
0	13454	689613.843031119938	5981.3909321754
0	13484	690869.53615242053	6092.1040282288
0	13496	691570.787014568963	5750.469254328
0	13502	691867.976344948949	4227.2617894023
0	13533	693414.058453750375	5003.0752498829
0	13539	693703.564123016254	5895.557726616
0	13547	694022.14508833129	5082.8887300491
0	13556	694303.540314729406	4371.2768527073
0	13561	694587.512083358923	5081.2043976181
0	13591	697134.706552070161	4727.6743674833
0	13596	697485.996670576787	7365.0694384462
0	13610	699493.442200864906	6873.6927115702
0	13624	700620.258508815927	5325.2214733228
0	13655	703948.431662363894	7643.340137968
0	13679	706691.375830528149	7482.4700495715
0	13696	707582.747147607551	5133.8493328974
0	13705	708267.883454752029	4867.7942144994
0	13733	709660.44733122502	5727.1789518067
0	13781	711775.325732288728	6418.8925268625
0	13810	713609.154950285165	6780.0223990892
0	13824	713885.790347933233	5125.5997836095
0	13858	715120.748944633202	6119.6296350035
0	13866	715422.251116991431	5747.2820388333
0	13872	715745.450695037652	6377.4202212203
0	13877	716040.124363956927	5197.9691312165
0	13885	716328.603135693745	6071.3914688301
0	13899	716874.93637199285	5975.5438170215
0	13908	717498.480956372962	5260.9081749981
0	13920	718425.607348663615	4804.9992715325
0	13928	718716.688631750128	5792.1458243272
0	13933	719033.269592226289	5151.5034159163
0	13950	719934.600495706377	5963.4910652873
0	13978	723311.019321875428	7099.5001535906
0	14016	725504.518775625556	6187.735324158
0	14021	725760.291540442117	4729.0242898204
0	14076	728786.228110128142	7224.7452407815
0	14084	729100.137665916161	4813.5418107104
0	14089	729365.425491410671	5012.2597215215
0	14098	729835.643354823537	5135.5554136606
0	14123	730928.597932683631	4971.8110319914
0	14138	731268.876734483441	4761.7594712582
0	14143	731549.245928257553	4783.2325009068
0	14148	731865.01376535852	4950.6488091908
0	14203	735123.224912662695	7581.750287115
0	14209	735447.340289627018	5572.2516535449
0	14220	736296.279147697486	4271.814466484
0	14226	736626.563189022001	6422.8003215469
0	14270	738886.600554385442	6209.5938866811
0	14297	740073.414485645504	6095.5764154679
0	14311	740390.466008782333	6229.6308002685
0	14389	743086.921748615105	8552.0440023189
0	14414	743951.508912036739	6315.3955918339
0	14426	744265.776593567734	6459.0118629919
0	14451	745069.971453301017	6286.4120221421
0	14473	745625.041371664468	7459.3946590363
0	14479	745910.485657149451	6727.6070192665
0	14487	746198.807841116839	7010.2297459074
0	14535	747732.253358835356	7569.9652451241
0	14546	748090.975706411027	6954.036326055
0	14563	748680.535293861916	8439.607911073
0	14568	748982.704805575369	8761.4096858747
0	14574	749318.44730962533	8369.1326926803
0	14582	749604.544847669357	7739.1015153231
0	14599	750238.53235777568	9002.6336534618
0	14613	750922.100708507631	7964.4778200381
0	14621	751202.156317841473	8865.3989533416
0	14629	751545.470089608254	8290.0479224214
0	14635	751824.774611864273	7560.0239002097
0	14643	752165.817997989885	7876.2028188045
0	14660	752810.554976521385	7874.6678652003
0	14670	753355.653511587188	7276.061063977
0	14676	753614.10096364471	7398.6456035506
0	14684	753936.102379208856	7693.4190160343
0	14692	754224.769510954982	7359.2687644941
0	14698	754503.48027822607	6544.8711024079
0	14703	754863.869528224781	5490.4085345031
0	14716	756507.552338759697	6386.4548963701
0	14730	757163.239799481434	5012.7784403025
0	14759	761503.185887476611	8792.2722681195
0	14768	762672.783502035134	6212.0299780004
0	14777	763173.755479464193	5322.7297970037
0	14842	768015.723585332289	8772.6267069953
0	14858	768663.687016582429	4833.4712272785
0	14872	769294.418854804159	4773.0426411002
0	14881	770046.893312165646	5055.9348493216
0	14901	770716.612164334412	5270.0557033263
0	14917	771324.857362597765	4315.9562546625
0	14923	771636.546756238581	4732.0032338019
0	14940	772491.758928782675	4488.1716589993
0	14966	774364.559746276847	5848.1854865188
0	14975	774877.579974776324	4764.177288906
0	14992	776002.031961344589	5309.7962385471
0	15021	777505.722649001907	5761.8703516788
0	15046	778431.759863741653	5437.1814658613
0	15051	778739.04222410623	4931.6658135964
0	15064	780540.062155245159	5619.7622478915
0	15086	781373.695807799479	4927.3594957799
0	15106	782483.758127563932	5065.2605431183
0	15115	782733.169142828005	6032.1783487423
0	15171	785243.469057560596	7637.5161811094
0	15179	785536.934928554547	5092.3183780175
0	15191	786637.679208870156	5906.6146931017
0	15200	786937.015763073891	5103.9592523036
0	15208	787291.922072252204	4640.7148170402
0	15219	787633.398887952414	4804.4179087837
0	15233	788249.744151411622	4692.6009141548
0	15250	788872.028778802887	4884.141920536
0	15258	789128.590526098088	4973.4929070497
0	15283	792025.67730408768	4525.6577365502
0	15294	792359.474945918108	7985.8601838224
0	15325	793361.839456051576	5385.0617116997
0	15406	796508.642905428801	7434.0400221961
0	15422	797113.954705557185	5688.2509893177
0	15442	797687.275495041306	5542.0462252913
0	15459	798351.61083901785	5682.5479464298
0	15482	798982.693958665835	5869.6477792193
0	15493	799268.430559103518	6074.1251100814
0	15529	800436.721715817831	6462.6490486644
0	15543	801110.330539750571	7878.4442240199
0	15548	801365.887009066015	7801.5944613454
0	15557	801694.047486413701	7345.3122826886
0	15568	801949.281211499377	6543.4570567794
0	15579	802516.227046494016	7254.3199968492
0	15584	802857.764802071556	6513.8749773765
0	15593	803199.578097171329	7667.2362741773
0	15609	803738.228383933379	6912.8057535799
0	15618	804100.77820745853	6605.4253942863
0	15623	804422.642600049879	6186.8556625937
0	15628	804679.64457707554	5596.8772055076
0	15640	804935.630907174447	5838.1606672861
0	15650	805519.850757677186	6090.9636531533
0	15687	807010.613615035156	6829.8313180726
0	15709	807904.301436083061	6135.9166099876
0	15721	809039.144719847713	5845.7193366783
0	15736	810198.917036790682	4121.9230177121
0	15759	810465.050227779518	5651.466932821
0	15856	813941.623411704739	8122.9086253344
0	15867	814506.341589710617	8411.462125947
0	15887	814805.309937465047	7854.2339171674
0	15898	815442.746921211791	8179.9834813028
0	15903	815746.356117457666	5348.3537830137
0	15915	816029.752240706852	5613.6466413804
0	15934	816685.537594366876	7769.6213920103
0	15946	817005.67343111343	6551.8102670745
0	15957	817322.052958722227	6863.5987975264
0	15979	818278.417045985485	7822.2451502067
0	15985	818621.784530785247	7960.1932014405
0	15993	818886.735347015197	8215.5893230152
0	16001	819198.506402044092	7055.5005973941
0	16023	820190.797185340633	8844.6863328213
0	16029	820532.702285560223	7978.4922362928
0	16034	820856.326858321934	7769.3353542797
0	16046	821185.051212208974	7345.6228738067
0	16056	821752.665133541997	6997.1871718254
0	16068	822042.148537254735	6263.0877776093
0	16087	822951.430522287319	5880.5872714402
0	16098	823645.418913575504	6137.2776534138
0	16104	823946.292538264945	4978.6972902835
0	16133	825451.945848648277	6113.9292311768
0	16150	826319.36148897402	5341.7127510209
0	16155	826620.500164537603	4692.2591191335
0	16201	829278.663780388517	6978.9414999586
0	16206	829575.376651038637	5199.7762772315
0	16215	829883.043308620534	5008.0139632591
0	16235	831071.040168528865	5721.0506470648
0	16269	832318.159607404704	5679.3344115831
0	16277	832657.979910391138	4669.9266170123
0	16282	832945.897565873924	4484.2143601774
0	16295	834230.719153458964	5598.9113234044
0	16320	835334.562605880426	4918.2562935504
0	16325	835632.430616046904	4806.4624346413
0	16334	836042.522200792653	4712.4380417777
0	16363	837796.729155137839	6403.396802132
0	16385	838789.917483765725	4605.6420938148
0	16414	840607.151362844271	6192.5516845171
0	16420	840918.031597919184	4750.3030351641
0	16459	842489.498118022242	6109.6869185252
0	16484	843370.107743020649	5817.2443259472
0	16501	843965.401560023171	5937.2813813975
0	16515	844601.222745644147	5334.184651263
0	16537	845601.20552185587	5594.5792560367
0	16548	845957.61239790438	4577.3157876108
0	16554	846281.680879106274	5042.906441704
0	16566	847004.646565902448	5301.5403274643
0	16577	847271.520099319644	4992.4781179365
0	16591	847930.815089682853	5387.2949323064
0	16599	848219.30140445228	4861.0571066438
0	16604	848507.083667552326	4209.6176270332
0	16613	849060.606813899006	5360.1277401749
0	16639	850896.06151911043	5860.5213285685
0	16659	853921.127085619605	4556.2547035722
0	16667	854331.092686031635	7297.8681619045
0	16676	854683.839669070834	4678.0238063542
0	16737	859413.671131869766	8503.3273502572
0	16768	860575.960390773777	5594.8200222256
0	16788	861191.398324535239	5026.6775334175
0	16794	861522.459371403213	5250.1818773573
0	16802	861792.207657800836	5511.9657550561
0	16821	862635.819548551732	6343.1702347501
0	16830	863580.341470586104	7047.2327502243
0	16850	864365.534421175158	4686.8113053805
0	16855	864696.206719364531	4732.2630841227
0	16872	865651.513022797144	5277.6551859962
0	16884	866256.459858130373	4565.993445631
0	16907	867588.204606191969	5730.8107716003
0	16917	869188.810421789967	5390.8817011723
0	16945	870127.731252606197	5306.6159481533
0	16970	871058.051380602968	5047.9376649204
0	16996	873127.369560295286	3895.0261395621
0	17027	873990.422622527088	7578.500556827
0	17041	874578.727511913307	4507.5048574635
0	17046	874882.731109691002	5428.9012832666
0	17055	875201.665022733925	4205.2006538383
0	17063	875517.004504356406	5287.4388646975
0	17081	877330.383594357412	5985.1049927419
0	17095	877601.119635521496	4478.4756459096
0	17167	880249.850146309709	7105.2709938746
0	17178	880878.829154303632	6897.2888688066
0	17207	882023.359275393145	4625.0080260382
0	17212	882306.463994952113	7031.8223290071
0	17226	882858.852016679044	4967.5529728241
0	17238	883110.536173306585	5299.2903906656
0	17249	883430.826111859463	5612.6963913984
0	17279	884575.069333782499	6035.6988269285
0	17285	884854.751260191894	7344.4704559395
0	17296	885153.911515053129	5872.2590546175
0	17324	886053.329231486105	6575.3285350029
0	17343	886908.266247971581	6862.7925666205
0	17391	888467.17657846453	7537.6583765179
0	17405	889137.589051355938	7707.5461011556
0	17413	889453.558563849272	6273.5241559625
0	17422	889826.107548558387	6396.8491672086
0	17427	890117.511306700687	6484.9379857076
0	17432	890418.831132640263	5448.6318162034
0	17441	890690.523729066816	5347.4570700162
0	17449	890986.35160669667	5031.4230749673
0	17457	891304.966636439103	5311.4340054155
0	17472	891622.65013515125	4923.0602884521
0	17494	892498.327521192839	5001.0768951057
0	17508	893188.324409778527	6061.5117171977
0	17513	893492.094269855671	5692.1807986299
0	17527	896006.893565162256	7664.7521147942
0	17532	896343.536905404422	4907.657525994
0	17549	897205.496030748762	5577.6135268428
0	17601	900702.877179152276	8441.2654233242
0	17623	902859.041973024346	4266.9948760054
0	17634	903196.887429596435	6715.3395979096
0	17640	903476.31147536454	4664.7305308552
0	17648	903799.331512799264	5004.6441608583
0	17698	905531.975180482311	6626.3472941109
0	17703	905820.113871586823	6878.6776551768
0	17741	908138.15618832017	7333.2434444767
0	17749	908468.142923811909	4943.0657197017
0	17761	908763.502214392888	4620.804031055
0	17771	909412.338652822941	5166.1235007102
0	17783	910137.303005770979	5691.05353458
0	17792	910461.957506051091	5515.9644954245
0	17808	911151.645359128216	5195.741482583
0	17814	911511.730401029642	5039.1902600301
0	17823	912733.601471502083	5151.2349829429
0	17844	914331.561758418256	5725.6598185875
0	17902	918435.355507857877	8019.1735961172
0	17911	918915.453839426433	5201.9790819593
0	17919	919256.530493260048	5130.8560708423
0	17930	919630.433117843738	4795.1392262395
0	17936	919905.895536669448	4363.2218850813
0	17945	920854.330509399382	4712.7463839659
0	17971	922744.073501662762	6216.8873216875
0	18002	925758.79477736041	7914.6903727484
0	18007	926063.828712439084	4445.7015362453
0	18057	928214.737181189724	6055.6253570623
0	18066	929138.071996748526	5052.0367342825
0	18087	930302.540586584549	5191.049184595
0	18101	930880.157554557871	4665.098222133
0	18115	931529.213342285082	4587.7300685593
0	18124	931810.388528268286	5219.5757613197
0	18168	933591.607586952775	6808.113142002
0	18176	933989.766958020939	6359.3830872631
0	18184	934244.976858295142	4551.5312769802
0	18225	936242.070131675798	4481.5551316811
0	18241	936859.968726394439	6773.9187991138
0	18247	937178.078184207788	5070.9419438352
0	18252	937519.690480041366	5310.4008939133
0	18261	937833.289478595348	5375.8352810959
0	18270	938594.062917327352	5845.3720874492
0	18286	939403.689573785847	4899.4418471044
0	18304	940321.506550691334	5593.1837172107
0	18320	941114.409148895348	5862.5365629503
0	18339	942962.217641077793	6765.8493639027
0	18360	944701.074543723237	5921.8729296081
0	18368	945046.981144226786	5264.8091969837
0	18383	946305.018891178306	5698.3995374089
0	18409	948311.835180321952	6588.4888425244
0	18417	948736.064374617954	4678.9751289272
0	18472	951996.547613018852	7287.0839645039
0	18478	952319.692551200959	5213.8043566329
0	18495	953619.827537908881	5879.5631509688
0	18535	954894.147669713629	4247.7542069936
0	18551	955522.45140722322	5929.7413422363
0	18557	955789.442946175409	5219.4785955087
0	18562	956117.360089845597	5410.8796264811
0	18574	957102.969663289965	5710.1421344374
0	18611	958381.867912211729	5409.281627488
0	18619	958710.159811688986	5050.2736063901
0	18641	959616.870816538032	5899.9890954761
0	18646	959857.856243523865	5712.6697359068
0	18662	961722.885884700881	4790.2113342954
0	18676	962367.277711471365	4990.4290491806
0	18685	962676.090659648085	7859.4232641378
0	18693	962945.269919990126	5267.9425008822
0	18707	963524.694357763429	4970.0436764161
0	18726	966072.365332751269	7194.7356086659
0	18743	967346.269807638531	5723.5986527105
0	18752	968450.985081333546	5532.1081200467
0	18779	970633.309750460264	6412.4138312688
0	18831	973762.745153161294	7221.601191513
0	18842	974283.846100964189	4921.3283516948
0	18862	975350.151304930452	5454.115360683
0	18871	975674.894226169719	4440.5564204842
0	18904	976835.942467824997	6107.7276553733
0	18909	977140.313640773764	5780.1731640884
0	18915	977423.146089527869	5666.4397683244
0	18927	978743.524784756286	5927.4847070451
0	18952	979701.689951516936	5706.3701527761
0	18969	980293.72520133996	4463.8102938265
0	18974	980564.972032630161	5192.8880448952
0	18996	982603.579397298158	6458.1820303442
0	19001	982938.334758129503	4487.8509974709
0	19013	983790.420472558292	4730.6290974687
0	19055	985663.32257259578	6183.5886057645
0	19118	988838.465441682046	8117.1524851327
0	19138	989401.179084892571	5792.7889435478
0	19143	989672.226322316735	5174.3776737862
0	19151	989957.351715806897	4836.0164576787
0	19157	990232.32061183914	5479.1049651172
0	19162	990507.324426358878	4994.2279188114
0	19170	990806.175037790237	5110.1497656473
0	19230	993371.085012868398	7472.7353248762
0	19236	993648.401482853195	5650.3492139149
0	19241	993951.429369822144	5895.251358401
0	19246	994291.403057077734	6554.6563229778
0	19275	995746.994073383442	4403.5197686646
0	19287	996046.188420426723	7423.9031897805
0	19292	996319.865074685578	4852.7227031515
0	19300	996607.48317091118	5052.8542917543
0	19306	996916.574214378161	5216.5822801738
0	19324	999217.170946186129	7387.9094037279
0	19336	999619.936234866262	5055.9564858577
0	19381	1001841.515437962246	6604.3772090964
0	19421	1004107.194579128337	6809.8069371373
0	19426	1004381.60571482902	4925.1055255706
0	19438	1004691.602445726123	4703.8766580102
0	19451	1005338.15109172612	4615.836534763
0	19475	1006482.807317752052	4925.7794794775
0	19480	1006820.559347469513	5129.8524036433
0	19488	1007109.454437500554	5872.0149443585
0	19494	1007430.170453419362	5379.8046254949
0	19542	1009573.566977921141	6571.8361151923
0	19564	1010490.920428611887	5886.7386217936
0	19606	1012007.393353497292	6098.9941537964
0	19626	1012613.499534980188	4711.9894245038
0	19631	1012897.033830801227	4703.888747651
0	19637	1013232.502423224577	4628.418287978
0	19648	1013599.058825142114	4263.9325922918
0	19673	1014637.724828170811	5737.8794683328
0	19682	1014994.960266835956	4615.2342100179
0	19693	1015343.928977823861	4602.953296479
0	19710	1015907.77882844466	6491.0940969964
0	19715	1016178.954028035908	5032.5988246394
0	19720	1016450.586174385408	5372.5893086538
0	19730	1017494.974549154537	5628.343992874
0	19739	1018422.323942748844	4912.1292022883
0	19751	1019224.801126530402	5252.7837242119
0	19800	1022883.067892153439	7801.6219978831
0	19824	1024492.182866057305	5568.9237277045
0	19843	1025097.932660475087	5515.302748946
0	19863	1026059.894041947488	5405.8287677355
0	19868	1026382.417886521753	4893.9588933259
0	19885	1027715.50902722692	5810.192410277
0	19894	1027974.559991578338	4493.924568892
0	19906	1028856.97203558556	4364.9293490634
0	19920	1029822.648734055853	4899.0062978411
0	19938	1031646.424685407714	6716.8388481915
0	19967	1033355.735562894813	6225.7917683138
0	19981	1034478.35827633299	5685.9755625689
0	19991	1036089.381125814865	4402.4131158012
0	20008	1036773.238113841129	6421.9730575575
1	2298	120970.805394474029	317.73958220884
1	2306	121279.381078866792	111.33161870645
1	2317	121556.853645820145	48.272217725051
1	2326	121848.77780805785	325.90212348191
1	2337	122185.443164198512	564.49875647628
1	2345	122556.68047267844	582.71056036903
1	2357	122900.820915875888	493.15305800248
1	2368	123222.942889140245	604.0696251755
1	2380	123528.428064794424	95.775002998098
1	2391	123880.385901205266	139.83893221453
1	2421	125037.601064111681	121.02899008951
1	2430	125317.426713473567	241.04978197161
1	2452	125892.585473401863	238.01897899689
1	2494	127294.360199868923	186.88441039756
1	2519	128223.915470005575	83.112162505946
1	2541	129140.987945868356	140.1638188953
1	2556	129451.842109510501	98.617468270309
1	2635	133087.251958380308	205.7313086322
1	2665	134620.34189747859	129.62433202126
1	2673	134909.544196243724	71.191314969996
1	2682	135977.55131482946	0
1	2690	136288.251991058827	213.12651966589
1	2699	136635.305100695921	262.17387863953
1	2707	136910.392332340348	117.53945220022
1	2724	137699.369930465964	0
1	2741	138316.460814504548	0
1	2752	138643.887463229797	140.38711391199
1	2761	138931.338043137916	383.90004302463
1	2769	139210.347517943639	80.757706388948
1	2791	140118.349597088752	0
1	2867	143622.973518254342	0
1	2875	143996.468695196817	0
1	2894	145896.622161994026	0
1	2902	146251.778762131034	166.06357399602
1	2913	146496.748414494128	147.2770204579
1	2919	146788.984451046611	368.54339818758
1	2945	148753.591901210455	0
1	2953	149057.643582155284	71.828290735799
1	2962	149420.550332625589	100.9428158804
1	2970	149722.023001190024	0
1	3012	151469.141339167193	268.40659983748
1	3039	153499.442954328585	254.08406714538
1	3073	155624.171211025755	0
1	3083	157310.78385942144	0
1	3094	157560.519146977858	242.58485193409
1	3108	158121.688361529839	33.584724620544
1	3117	159027.227128641974	0
1	3134	160089.326727053947	0
1	3143	160813.951330781226	0
1	3186	162988.921162895951	228.8767417675
1	3203	164476.256004608368	0
1	3221	165485.482711468107	0
1	3230	166376.906451601347	0
1	3238	166731.885694839473	239.09812192015
1	3264	168378.754340909924	220.83897546307
1	3281	169035.47404410989	283.80252087515
1	3289	169328.600979584109	289.80152141465
1	3306	170259.599093364376	34.824301414206
1	3323	171296.43817333576	0
1	3341	172618.683601502314	0
1	3349	172952.377193034732	261.68015232233
1	3369	173595.242904212015	163.99252893138
1	3402	176601.818958790887	0
1	3416	176930.032274888757	3.074474936225
1	3435	177807.13612492959	275.90529649862
1	3452	178587.179547629562	0
1	3461	179929.961410163188	0
1	3470	180174.310128659345	219.4263990107
1	3478	180490.83019788307	298.00176494362
1	3512	181953.485496979627	328.32645372837
1	3521	182751.621645896909	0
1	3540	183369.903955584302	297.29161029895
1	3549	183685.812968015362	559.74604844742
1	3569	184291.857640299057	150.05263846491
1	3577	184609.971902682491	354.91799137748
1	3585	184907.418092452114	261.25981160673
1	3607	185783.170596288519	226.54652122377
1	3621	186363.902536447328	240.49168152769
1	3647	187890.232677281735	0
1	3661	188235.98543387763	331.38949107311
1	3669	188532.675273901887	39.663786715547
1	3684	188855.671015583877	120.63097477597
1	3720	190376.2102963084	15.077990110659
1	3728	190706.260118999114	69.85207752528
1	3739	190989.034716588982	208.25880103728
1	3745	191311.781190430187	485.121608431
1	3753	191622.606581566289	85.152193550274
1	3764	191935.632223113315	215.0255947038
1	3814	194093.406785986114	258.37844467142
1	3847	195387.889888020505	43.744509378317
1	3873	196294.486557087337	96.288489437687
1	3898	197838.55970642617	220.62585373001
1	3919	199268.482339421045	143.91326151423
1	3927	199535.209947016222	305.43494946743
1	3933	199816.766848050589	413.30409116233
1	3944	200135.167301067098	211.60781920438
1	3958	200456.442390689808	375.28471759412
1	3964	200718.761807565464	319.18465002163
1	3972	201003.368348561772	600.2749901973
1	3977	201295.612445717413	342.39868051785
1	3999	202197.715265013876	48.575495292225
1	4008	202602.309782481571	0
1	4084	205896.532695376808	0
1	4109	206744.763705266419	168.82097086721
1	4119	209128.523532059777	0
1	4137	210309.495365446013	0
1	4154	210899.482458209359	125.06304496016
1	4163	212300.987807677228	0
1	4180	212911.969550963873	199.41480324054
1	4189	213868.120784944919	0
1	4197	214224.097903433693	0
1	4214	214941.507861148722	0
1	4240	216474.28767815385	65.368026962628
1	4248	216851.91724703527	0
1	4282	218234.834615157044	314.65894279749
1	4291	218764.510456619482	0
1	4308	220288.023375104036	0
1	4334	221734.414964385185	0
1	4343	222203.76796749948	0
1	4362	222704.796006150116	64.557551692491
1	4385	224146.148010154934	6.747217336372
1	4412	226300.226501613738	131.21640983708
1	4423	226563.072528847094	126.09434086719
1	4431	226870.712840612132	103.76585024529
1	4445	227489.611958670888	20.104872527384
1	4462	228402.298528222084	0
1	4471	229404.994153547117	0
1	4483	229732.901313803568	184.06328148144
1	4488	230043.082859797159	395.77221879107
1	4499	230308.170813600149	186.83996098662
1	4514	230581.407261263103	12.568256894967
1	4563	232997.748292655267	0
1	4580	233631.137643527322	0
1	4591	233883.618572434454	174.17983659296
1	4608	234562.85818011312	11.289167760045
1	4616	234801.726582236909	26.867893624214
1	4633	235402.876071841435	258.44335744172
1	4641	235677.391959081061	8.113235960958
1	4650	236021.716112669141	318.03974620327
1	4672	237117.191465291302	187.83889438063
1	4701	238419.771357706894	228.36065814683
1	4739	239850.974550081681	328.39436769059
1	4766	241900.201666010557	0
1	4777	242216.955783102692	179.12317003131
1	4795	242596.149081243777	541.31170223592
1	4803	242843.552424149944	497.8285241836
1	4808	243134.818236793205	742.47023507225
1	4814	243439.264983060694	966.56592923889
1	4819	243708.263911366876	1077.5406205746
1	4836	244308.050500928709	126.51732353886
1	4847	244557.022448218577	24.536186197595
1	4852	244909.899873187637	355.11954075408
1	4894	246764.19882656759	191.64278368929
1	4919	247696.754202554205	40.145452849954
1	4936	248301.573460579953	62.711773961688
1	4959	248953.533370284058	164.71966322211
1	4992	251135.751613311166	54.334489667136
1	5009	251816.216695120565	0
1	5046	255572.712450088993	0
1	5057	255927.871992957402	107.23959135541
1	5072	257499.310288083216	0
1	5080	257986.626628020422	0
1	5090	259214.066841852569	0
1	5134	262507.768294980175	104.21720242996
1	5142	262771.330831558625	122.94238183713
1	5151	263447.119057687941	0
1	5178	266188.840249443865	0
1	5195	266900.628625073028	91.520702147991
1	5204	267450.552201488892	0
1	5220	268019.960544735767	0
1	5229	268293.873447322611	84.826662113818
1	5238	269435.513221759898	0
1	5255	270081.193941348008	0
1	5263	270418.16661158622	0
1	5280	270989.09867742766	25.465124207166
1	5288	271300.700311264777	85.563650449884
1	5299	271619.740782238448	317.5855079045
1	5319	272188.886908589069	62.447056895837
1	5336	272783.245400669497	228.13303969841
1	5341	273123.213935630096	411.50994076148
1	5383	274670.480283192233	39.813779820972
1	5439	277624.322449021757	44.197998402519
1	5448	277932.44817173551	79.944521744238
1	5457	278589.388723072994	0
1	5473	279333.948380519329	0
1	5482	279700.61841172511	0
1	5490	280026.97988831588	0
1	5517	282069.522570360978	20.140161775403
1	5546	283823.698406287306	207.75749401846
1	5560	284143.301585222386	151.42243746416
1	5565	284478.03621942194	422.1028858287
1	5585	285975.937350628958	0
1	5602	286851.620100561482	0
1	5646	289816.774385062351	209.63020209561
1	5654	290112.384460719919	0
1	5690	293349.702649616917	51.189516568151
1	5698	293662.499073899219	57.631384754771
1	5707	294523.824700314783	0
1	5717	296304.791123409321	0
1	5726	296686.434414205326	0
1	5751	298234.095259201133	0
1	5760	298536.513795431454	0
1	5804	302564.023390124593	0
1	5816	302863.899074932843	48.68248062031
1	5830	303488.146360731617	178.93081990254
1	5838	303942.088101453288	0
1	5847	304569.233956584423	0
1	5874	307078.435223791977	0
1	5914	308852.478965071102	218.40721845532
1	5919	309170.124869445819	384.69439903752
1	5925	309521.757983595501	733.34533066174
1	5936	309755.491875224844	146.05782016506
1	5941	310009.679128570078	312.3834568329
1	5956	310362.721999565745	288.12528012163
1	5961	310676.789057938274	572.23512742588
1	5966	310979.551018911761	830.08991151919
1	5975	311300.18583462219	164.41967598443
1	6000	312846.910691570886	0
1	6032	313808.772046761207	14.798895070681
1	6054	314662.644266832852	211.19665745277
1	6073	315340.813918419337	240.4074180421
1	6082	315593.538579699699	313.6189767869
1	6098	316181.935714514726	81.917420168985
1	6126	317355.392552001799	107.41003654906
1	6135	318012.900150260748	0
1	6168	319611.008193345636	0
1	6194	320617.108187144964	292.18031798279
1	6211	321559.033920126972	214.23284901824
1	6227	322156.3880598249	2.176016942734
1	6239	322444.795009322691	241.22616355267
1	6244	322758.496838470205	438.09992932538
1	6279	325382.209753317682	168.26218178642
1	6305	326775.658179888301	0
1	6321	327411.585301667181	166.31330313937
1	6330	327741.977145563946	205.49519726535
1	6339	328408.077511497195	0
1	6348	329287.950344106543	0
1	6356	329704.060435859354	0
1	6373	330353.517214654207	116.2555855201
1	6384	330659.073316383407	171.14154324661
1	6396	330999.039137800179	425.64232426057
1	6404	331329.027426317249	629.87591728831
1	6429	332220.676361144314	175.3300543642
1	6437	332534.49996926489	228.97765542223
1	6446	332836.053416996226	79.674119055217
1	6460	333135.714525698862	201.48694768386
1	6468	333415.352430952882	454.56581248736
1	6477	333716.824805483792	215.27273770423
1	6515	335103.030935406142	280.21803364979
1	6524	335395.836355720215	265.93183131819
1	6543	335980.523721659113	72.635422840968
1	6585	337371.585761527487	192.5084994028
1	6602	337989.169961291746	231.43353203174
1	6619	338584.893623763621	121.40518749019
1	6638	339176.476130106384	153.5649398384
1	6644	339459.695199338993	416.48186603548
1	6652	339722.876943742603	2.39599806101
1	6660	340022.166289094413	24.832211329309
1	6669	340302.330326113444	83.816087819692
1	6704	341755.448940858267	245.0550056913
1	6729	342612.387616017221	242.47356540125
1	6746	343204.452605923248	286.44616531743
1	6788	344827.664372809063	101.753802564
1	6815	346008.675017634118	0
1	6832	346576.038456153973	180.60662996536
1	6849	347449.378515460055	0
1	6857	347728.844916141368	267.34949512052
1	6867	349398.613971808066	0
1	6884	349676.765596630853	162.27102120095
1	6890	349947.669348445316	291.51774293118
1	6917	351149.917896364858	128.48240752185
1	6942	352064.361032647055	1.785869886832
1	6963	353278.848918071484	229.66296374568
1	6976	353854.069952744674	231.97617203976
1	6991	354203.517211095022	127.71807036968
1	6996	354427.367011469811	349.54579804767
1	7027	356307.448743826538	0
1	7053	357934.184674536265	224.44313689682
1	7070	358257.087747452631	94.260620167338
1	7079	358526.045230623595	310.0011496955
1	7084	358876.008254780906	412.50073052018
1	7103	359918.771621570726	0
1	7118	360213.000799885207	223.70850426349
1	7126	360544.516524151496	519.80756209241
1	7131	360850.890673320652	328.93246975787
1	7140	361146.929671945288	112.14705563475
1	7188	363689.498208064885	0
1	7233	365323.665803837933	249.34461329745
1	7246	365947.53843013885	79.252213069091
1	7255	366309.971591713323	0
1	7266	366611.792866039051	288.11139014056
1	7278	366935.734430887988	589.97898695892
1	7286	367265.711923791597	410.00636032466
1	7294	367572.207033584036	684.33116396411
1	7303	367850.25114813026	646.48340248651
1	7311	368145.557917254003	689.59413288676
1	7319	368439.709318358128	829.68008772474
1	7325	368737.942819771142	330.17076503241
1	7381	371272.615037421414	0
1	7412	372155.456669820278	183.01743377858
1	7448	373899.678476151755	0
1	7456	374507.878619556329	0
1	7473	375177.56295963418	188.0082744329
1	7493	375816.393650852069	207.10006232579
1	7498	376036.542705154779	397.95411292685
1	7507	376450.267092489561	0
1	7517	378027.319312725829	0
1	7542	379100.304527901674	2.611877178899
1	7556	379345.300258507781	98.458404408427
1	7564	379691.932157561638	106.67075379762
1	7581	380259.856852519745	35.621324236965
1	7589	380571.385870719318	21.763018520637
1	7615	381507.312837706427	190.12661806174
1	7620	381845.081988476071	452.46326946546
1	7693	385482.119559918472	163.3747368854
1	7710	386296.320332808295	0
1	7719	387184.340232475623	0
1	7728	388162.737221709706	0
1	7737	388819.787303625794	0
1	7745	389092.10834494889	7.941534377026
1	7763	390108.133743631775	0
1	7771	390398.721943373215	179.80819333603
1	7805	392132.488982988214	83.830956156374
1	7831	393705.2758081673	0
1	7839	393996.53601509766	217.71654556185
1	7847	394292.615157942204	0
1	7882	396769.031304639449	0
1	7905	397444.379511768079	292.12156302085
1	7914	397791.434161352291	499.57958589724
1	7922	398105.405812990095	665.57990307743
1	7927	398415.234565480075	953.65232542252
1	7942	398732.403559917545	93.702941948186
1	7953	398998.904519883103	266.84360827541
1	7958	399249.851554073233	456.18410083925
1	7964	399547.748916561678	680.42088528065
1	8000	401346.119117076708	172.13739710984
1	8019	401977.772637163227	26.481768860179
1	8061	403630.585556996519	62.572933861127
1	8073	403957.976847927562	245.94351979524
1	8092	404814.710377793408	78.509989459472
1	8100	405122.539963216758	120.02736720565
1	8126	406455.007458548762	237.19232710618
1	8134	406712.670299750537	221.26896970218
1	8142	407143.048611486094	0
1	8159	407703.136808388368	158.13582092833
1	8176	408329.380908293703	2.384733175447
1	8204	409327.083703622578	32.301842759504
1	8209	409627.959214160236	317.87944705314
1	8233	410614.788070812432	307.98419361619
1	8241	410941.525676067618	123.09053914448
1	8258	411541.873198314316	144.76841477534
1	8269	411911.87148505375	259.95286583409
1	8274	412201.782196860457	504.5600304767
1	8291	412852.021253337051	206.61744533405
1	8299	413119.473877316161	274.84127054848
1	8338	414680.157222217458	44.897796568462
1	8352	415258.485196606619	42.206033722281
1	8366	415544.365498775409	47.630169031384
1	8400	416831.151143542099	26.745611024851
1	8425	417725.528083118377	29.436702252613
1	8453	419336.210481565143	41.500092849178
1	8470	420648.971791622603	0
1	8479	421013.478944996583	79.670438748865
1	8504	421878.380638621705	0
1	8512	422208.967972417551	0
1	8521	422689.892522908636	0
1	8538	423640.617290226165	0
1	8564	425152.896405322121	0
1	8580	425858.539234158227	206.24486378408
1	8606	427363.112621420638	0
1	8614	427697.27718871086	297.54863775656
1	8631	428317.589987199768	119.21432163383
1	8648	429341.388811036722	0
1	8666	430688.224903771354	0
1	8709	432788.261583269734	153.92322020824
1	8715	433067.157063811684	356.92286610811
1	8723	433412.883588567007	693.3688579114
1	8731	433698.273609211119	924.45059936742
1	8740	433994.928619385078	656.16387863897
1	8748	434313.782095229108	502.45243530542
1	8754	434600.567122804972	586.09769193164
1	8770	435180.312669125142	97.060368924288
1	8785	436458.298185538633	0
1	8813	437464.509393232064	9.327642834603
1	8841	438419.016050711393	58.037352207307
1	8877	440038.821722457446	0
1	8895	442171.405384653099	0
1	8921	443166.249130659677	0
1	8938	444241.493088298298	73.402121718483
1	8946	444557.455090491545	245.13583578376
1	8954	444865.250561094127	0
1	8963	445354.577446739044	0
1	8971	445668.274172012205	256.02724032599
1	8980	445982.449079247281	179.10889147135
1	8997	446922.780197220747	0
1	9005	447190.246674103147	8.758647087908
1	9014	447470.217737967908	67.883444506172
1	9022	447809.998914834235	139.82363843039
1	9042	448426.389651299344	79.642837878687
1	9053	448770.452266571368	64.011526125699
1	9064	449114.878002187438	60.570433198768
1	9086	449960.159245438645	156.00551125173
1	9162	452672.881868601964	280.58803583795
1	9175	453258.207062282716	197.71375739075
1	9195	453936.265685403864	159.78040013212
1	9217	454950.762761783575	59.246262720989
1	9223	455201.813942149706	278.39605766553
1	9244	457000.346093589134	145.37073145371
1	9252	457312.005102763543	37.006818264819
1	9274	458224.845625018238	82.581179272782
1	9285	458517.139699957238	285.58530719121
1	9297	458794.273659422121	1.119797009986
1	9316	459731.932944169876	0
1	9324	460024.062535842533	130.73805616368
1	9333	460312.349654141513	93.373985533186
1	9344	460631.360343546891	236.54086024698
1	9349	460952.409138170015	394.78506161457
1	9369	461747.848453121046	56.851514774923
1	9436	464235.454184303391	90.861372508667
1	9468	467084.274105864053	0
1	9477	467372.395192333849	0
1	9493	467952.070482537042	88.186004766732
1	9502	468338.542313166721	0
1	9512	469852.183671392958	0
1	9520	470520.169782625749	0
1	9529	470794.551141460095	153.93224928745
1	9540	471149.504193437671	160.15577163316
1	9555	471451.027970588653	242.64202007001
1	9563	471762.93818865482	458.6267045609
1	9577	472094.550376167422	321.41720638594
1	9583	472405.355471834785	368.26399097824
1	9632	474783.192923779525	259.25178395964
1	9688	476977.598464769849	89.883310465713
1	9697	477800.216569450608	0
1	9708	478087.18373232607	91.07295742345
1	9714	478373.185599546844	292.94198970593
1	9731	479686.733538117367	209.15271609193
1	9740	480022.128741929172	49.848093144715
1	9757	481408.506935579852	0
1	9809	485097.612010827187	0
1	9827	486356.966437259154	0
1	9836	487024.406827318977	0
1	9846	489174.2245913382	0
1	9866	489982.484316902971	259.39202459154
1	9889	491786.617848158058	0
1	9916	493753.212394105621	0
1	9925	495123.740331892154	0
1	9942	496287.019643488097	0
1	9951	496835.98224138859	0
1	9960	497317.020102820802	0
1	9976	497994.891517233115	95.285589672339
1	9986	499334.082883879381	0
1	10003	499990.538482615	174.75282150511
1	10022	500581.290755312765	8.751638986632
1	10053	502087.79751033727	91.184534560194
1	10062	502818.465782684094	0
1	10094	504452.649498442044	282.10528210617
1	10099	504741.032038438596	453.86889939071
1	10113	505456.996931990522	0
1	10131	506804.322263360175	75.019111372524
1	10165	508829.9763934251	139.25161162548
1	10191	510728.837024612117	305.34772111075
1	10200	511520.737932506451	0
1	10218	512846.222615708324	30.535230324777
1	10229	513106.647431215424	213.19306803531
1	10237	513431.289008879153	461.16271997145
1	10243	513735.242163114048	604.10722690452
1	10252	514578.51501091366	0
1	10263	514881.186313182019	258.15953805059
1	10280	515485.74306362178	179.00679215309
1	10288	515820.572686951272	265.96284305858
1	10311	516962.57171156452	232.83673108133
1	10339	517945.151895748637	114.52233340389
1	10387	521094.635888168506	0
1	10405	522124.919302694637	0
1	10423	523810.101903810261	0
1	10431	524566.960637019518	0
1	10458	526497.547148860456	0
1	10475	527993.578854622129	0
1	10484	528283.601065206151	88.035646207452
1	10500	528836.861451725538	2.942302949917
1	10509	529165.473589151122	0
1	10518	529770.180570699757	0
1	10529	530080.736106517481	149.14141925531
1	10534	530362.88622577339	343.12176740518
1	10546	530697.85021814969	254.31596038826
1	10585	532913.125164224401	0
1	10594	533295.907937957981	0
1	10619	534182.075806881325	256.26902526588
1	10647	535053.083082430388	126.16692662728
1	10661	536294.889826350942	0
1	10670	536590.183892574232	129.12942713467
1	10678	536850.978803410409	237.03045939632
1	10703	538113.322033432701	0
1	10744	540556.260218561747	325.81810999703
1	10749	540802.276218266936	543.76113881996
1	10766	541364.914466402957	35.783275732048
1	10789	542999.320205012278	0
1	10825	546829.938770370819	0
1	10843	548128.56294810411	0
1	10851	548465.698202580299	0
1	10860	549062.28612198833	0
1	10869	549626.292161238089	0
1	10886	550896.847374173251	0
1	10895	551218.367580698178	293.29613866923
1	10903	551631.053860670368	0
1	10911	551925.82880129776	189.74537040469
1	10928	552504.01786956079	134.81570759664
1	10939	552813.832329436476	246.99367919299
1	10953	553397.522449622614	197.876072854
1	10981	554343.842581591123	165.45249577253
1	10993	554722.962016732251	470.76595096274
1	10998	555048.547206610042	347.43029957016
1	11026	555974.297667736607	48.702941865635
1	11076	557860.909326927455	333.50665851079
1	11082	558151.859103760848	400.92801082427
1	11110	559374.143973556918	180.19102185982
1	11118	559689.276722563896	415.33521183727
1	11137	560550.560040071196	85.904547199877
1	11146	560889.999636601033	295.01034375979
1	11173	563425.868051624856	0
1	11225	567337.996469960372	7.392958612538
1	11234	567997.375830929903	0
1	11242	568273.584789526124	154.82095663506
1	11251	568882.091999823475	0
1	11260	569199.61521994587	290.33431314951
1	11269	570043.943926282855	0
1	11278	570898.0766297881	0
1	11294	571468.67739134368	120.95002445731
1	11328	573122.434052802515	0
1	11339	573396.614576068837	219.21542162968
1	11351	573731.962260177468	190.92341674404
1	11356	574016.784170316239	306.53965525301
1	11373	574649.00591072226	102.05975163209
1	11387	575248.767095512877	50.507652775381
1	11401	575568.973259797898	281.61378987851
1	11420	576514.155912767228	0
1	11479	579097.154891441186	160.22097977208
1	11516	583384.874476981373	0
1	11525	583826.561460699686	0
1	11554	588597.175401579182	0
1	11563	588903.933388310084	0
1	11571	589264.368351878249	0
1	11579	589577.586898691985	0
1	11588	589943.276218276668	127.01155999094
1	11597	591081.204323107018	0
1	11607	592420.297859744085	0
1	11615	592713.213862196244	236.67076800196
1	11629	592998.372000859671	274.71671596619
1	11641	593278.259635765571	382.27522602175
1	11671	594494.358622553318	68.785106513063
1	11699	595776.235631692324	0
1	11724	596539.485089571444	257.96118685638
1	11733	596868.042943110078	346.69980474556
1	11746	597404.370200479942	62.825304424575
1	11760	598012.180969066819	204.74734511726
1	11774	598855.48147420503	0
1	11785	599068.888528445404	211.04427251297
1	11837	601835.049482334276	67.376154411119
1	11868	603730.908221334694	0
1	11887	606453.548444194081	0
1	11906	608860.446220507698	0
1	11915	610088.703759276124	0
1	11924	610448.648224765352	0
1	11935	610777.344868985712	82.838572921559
1	11943	611106.813903655101	119.27423273583
1	11952	611400.029549642183	269.83358638644
1	11960	611638.679393096915	113.52166858899
1	11983	613275.029265255533	19.243811484495
1	11991	613642.963028313509	236.46604134538
1	12051	616548.036788159486	8.104992225185
1	12076	617439.849891419124	115.28263333294
1	12084	617698.285442245971	32.793090001141
1	12093	618381.713183746999	0
1	12101	618799.620974469243	0
1	12113	619160.656722382847	301.58672962631
1	12121	619507.488125103117	545.31858367461
1	12127	619827.3750639545	539.9065872965
1	12156	621683.696678783755	104.19633696154
1	12169	622263.407032078055	224.54357974025
1	12211	623869.013161925774	113.55938293565
1	12220	624172.829995829184	237.66579121855
1	12236	624731.542224694366	148.8604205249
1	12253	625717.91632825401	0
1	12262	626477.016729033843	0
1	12306	629738.320185548955	0
1	12318	630013.752086963002	130.84171497939
1	12340	631037.68139121083	0
1	12348	631361.470275917571	121.16022073364
1	12357	632119.79488372222	0
1	12366	632730.273863278767	0
1	12383	634235.154657967127	0
1	12398	634568.410417467199	201.02800564859
1	12403	634902.589405472057	405.82254719451
1	12423	635518.578498104635	168.74670159538
1	12431	635772.209435784211	181.67265949148
1	12465	637167.202998437632	234.86818070149
1	12470	637479.840919968927	325.84527079193
1	12487	638015.242081568376	39.387099687859
1	12495	638351.399435299231	30.742608951594
1	12534	639877.52589058814	295.50400107247
1	12554	640517.320637339238	203.67180934677
1	12562	640826.970893675563	333.82859128487
1	12590	641763.020850809979	150.26880340847
1	12598	642010.665045153822	361.12353934627
1	12607	642328.529116749996	619.54248380956
1	12626	643474.525578258863	0
1	12672	646131.556650649054	126.81751323124
1	12694	647039.991892620224	107.23682988548
1	12712	648137.052842073976	0
1	12720	648838.878000393011	0
1	12747	651400.05525332401	106.17997677285
1	12764	652277.717896114497	147.32441420529
1	12773	652829.194995231308	0
1	12781	653148.411981416456	26.809895550937
1	12798	653690.095494212135	66.653315121253
1	12807	654257.432799452873	0
1	12825	655944.84065581809	0
1	12836	656207.012516697605	62.684601865627
1	12856	656737.16799106615	47.274671792283
1	12864	657002.134957357526	38.658850148657
1	12883	657924.816548139487	76.760477282305
1	12891	658218.363300649821	170.27014644152
1	12914	658805.545839440391	197.83896572213
1	12922	659090.777803470141	469.55408336368
1	12931	659381.222694259463	428.64651449906
1	12936	659637.443093219415	455.51618213931
1	12992	662033.375432922526	0
1	13043	664425.159700018248	33.530420421445
1	13051	664695.955460438544	65.515972758308
1	13061	666179.244123368478	0
1	13079	668426.052941371904	0
1	13099	669046.432360095548	231.33114859408
1	13113	669725.020491286537	0
1	13121	670046.995745336839	79.738144315927
1	13139	671296.06571906929	0
1	13147	671575.239245408716	261.41956033428
1	13165	672882.806860778161	197.65347314345
1	13199	674702.435566988186	0
1	13233	677125.852094349044	0
1	13242	677790.123303609004	0
1	13251	678425.025111806989	0
1	13259	678751.149581879349	314.12398249765
1	13271	679014.692736157286	91.648956315051
1	13284	679568.22261341704	49.436057974628
1	13294	680709.840598280818	0
1	13320	682355.908057979694	0
1	13361	683886.840933758836	254.38883481432
1	13378	684777.432124191776	0
1	13388	685820.317760240952	0
1	13406	687640.71455554667	0
1	13414	687962.165001023511	154.15860462328
1	13423	688410.983203867444	0
1	13439	689013.115159422417	73.858801140225
1	13456	689613.843031119938	107.53534537915
1	13464	689932.26346202212	0
1	13476	690222.915913192626	101.98868106204
1	13507	692407.032184586839	0
1	13522	692726.034828243408	106.2853389487
1	13567	695295.037035493155	0
1	13576	696305.091524395849	0
1	13612	699493.442200864906	284.53641990829
1	13631	702448.897814710146	0
1	13640	703400.089240252617	0
1	13657	703948.431662363894	15.163282945535
1	13666	705356.433205426228	0
1	13684	706829.13255119595	0
1	13710	708760.190564323689	0
1	13719	709026.164539159043	25.045229529334
1	13735	709660.44733122502	292.41685740769
1	13744	709976.601306548915	301.63222839075
1	13752	710293.577906055734	36.366239192039
1	13761	710842.155232740466	0
1	13772	711158.198861359944	258.80630638863
1	13786	712237.572781374812	0
1	13795	712924.542807422968	0
1	13826	713885.790347933233	265.18227080214
1	13838	714194.008770110872	312.24259380091
1	13846	714522.743676198863	551.63424577976
1	13887	716328.603135693745	117.0839674089
1	13939	719316.783451467522	0
1	13957	721031.267250621718	0
1	13965	721561.482869346596	0
1	13984	724286.595855205756	0
1	13996	724599.955523116989	246.78975322778
1	14004	724858.818656294445	158.73071513149
1	14026	725956.78690069226	0
1	14035	726507.11726322521	0
1	14043	726828.212798669451	62.199371318659
1	14052	727122.690733128367	208.32577696062
1	14060	727541.474625547654	0
1	14103	729875.088636082117	0
1	14111	730203.762867475148	0
1	14154	732024.464681213533	0
1	14162	732677.006667704388	0
1	14172	733977.838070177575	0
1	14186	734258.678581171146	97.843372657266
1	14194	734544.653212782533	9.775466486341
1	14232	737636.113320202791	0
1	14243	737974.221602206613	167.45687163074
1	14252	738264.867382143692	99.220669515482
1	14272	738886.600554385442	103.04112322656
1	14283	739256.387130910471	73.508493027504
1	14288	739525.775765328323	337.19767011892
1	14313	740390.466008782333	228.17789507104
1	14319	740695.34614362546	474.05102392484
1	14330	740992.745794549858	751.81841176094
1	14341	741279.089801166184	329.77518422114
1	14347	741644.65428527123	507.71490491516
1	14358	741927.329887984873	691.43118367101
1	14366	742232.996414031326	367.55308168512
1	14375	742544.983859041508	208.22649454161
1	14391	743086.921748615105	129.29886014562
1	14406	743361.113895085529	105.69172789865
1	14428	744265.776593567734	1.02588191321
1	14436	744531.283001802542	241.66782261718
1	14453	745069.971453301017	134.08434197996
1	14489	746198.807841116839	119.21539350668
1	14503	746517.046692951636	301.59133285748
1	14512	746824.834647655252	582.15128448071
1	14523	747099.473728857882	233.97298239697
1	14548	748090.975706411027	132.36653059286
1	14584	749604.544847669357	231.0838539477
1	14601	750238.53235777568	117.43491538606
1	14645	752165.817997989885	15.356638810902
1	14662	752810.554976521385	99.641357164318
1	14718	756507.552338759697	46.798814724933
1	14736	757851.025682460507	0
1	14745	759243.096878336979	0
1	14783	763830.215789303907	0
1	14791	764521.376213703944	0
1	14800	764990.958462844024	0
1	14809	765446.556461008119	0
1	14818	766904.543522436725	0
1	14827	767225.540970626663	216.63986269135
1	14844	768015.723585332289	12.136315548962
1	14860	768663.687016582429	147.31275682442
1	14886	770113.402685870315	0
1	14903	770716.612164334412	24.376441536906
1	14928	771743.852297323059	0
1	14945	772994.578397880398	0
1	14954	773807.376410509866	0
1	14980	774920.299907353637	0
1	14997	776446.336312019623	0
1	15006	776770.446908288321	69.456114202632
1	15023	777505.722649001907	87.225064556301
1	15034	777847.861765420731	241.90888896954
1	15066	780540.062155245159	95.445604708113
1	15074	780820.965276842543	89.900761074105
1	15092	781833.056510770242	0
1	15117	782733.169142828005	81.961887616048
1	15125	783061.202906914173	232.22192774547
1	15134	783557.143237256774	0
1	15142	783987.886858266859	0
1	15151	784310.505764139915	155.40814509151
1	15159	784592.887618859545	219.27285676381
1	15221	787633.398887952414	133.37932041498
1	15235	788249.744151411622	272.96640705976
1	15260	789128.590526098088	53.987642865429
1	15271	791425.703716239523	0
1	15296	792359.474945918108	214.24567616811
1	15304	792691.730232801178	22.667340213168
1	15327	793361.839456051576	248.79327660508
1	15335	793663.254890417763	468.94944139566
1	15344	793986.114855480569	754.22853974986
1	15349	794240.225833115026	675.93328539437
1	15357	794553.045389655959	578.97272250256
1	15363	794846.056885346261	497.32168162118
1	15371	795261.907049644829	0
1	15389	795568.899760111792	163.0756053918
1	15394	795864.355641720574	332.01381872655
1	15408	796508.642905428801	164.75308073379
1	15424	797113.954705557185	288.53207520375
1	15444	797687.275495041306	191.9226818691
1	15461	798351.61083901785	115.8239015617
1	15495	799268.430559103518	185.6631875356
1	15503	799576.035141783135	478.56490189476
1	15509	799850.044185168851	421.15708064499
1	15531	800436.721715817831	255.93941885529
1	15570	801949.281211499377	180.89638540391
1	15595	803199.578097171329	6.152714001936
1	15642	804935.630907174447	122.04761221594
1	15656	805818.714786370352	0
1	15670	806109.464843349358	32.470824270743
1	15675	806386.973652779394	292.09418901578
1	15689	807010.613615035156	59.537594737498
1	15697	807280.601950360322	17.838510451358
1	15723	809039.144719847713	123.22851749117
1	15761	810465.050227779518	67.047893335589
1	15778	810759.487565464245	343.38196613782
1	15784	811066.486148024333	612.62298398543
1	15792	811339.002521005367	882.83062522658
1	15800	811591.884223928693	1133.4300627329
1	15806	811899.465543869833	1237.8742145251
1	15814	812186.058137801044	1514.9121138011
1	15819	812507.531447388541	1161.4205948692
1	15828	812822.23664589343	679.23084124344
1	15836	813114.093758714918	559.88370944753
1	15841	813405.633830352763	318.64232631056
1	15858	813941.623411704739	102.19507330241
1	15889	814805.309937465047	49.831975748479
1	15917	816029.752240706852	250.69148106139
1	15959	817322.052958722227	251.20970787511
1	15967	817626.380686191385	118.23942602964
1	16003	819198.506402044092	230.91115406263
1	16012	819558.501681427908	220.48506395646
1	16048	821185.051212208974	207.40247425585
1	16070	822042.148537254735	113.90749185062
1	16078	822338.03155849766	38.309278067698
1	16109	824375.600373807115	0
1	16118	824875.029345361386	0
1	16135	825451.945848648277	101.95632718424
1	16160	826638.825195821582	0
1	16169	827988.05329337886	0
1	16178	828461.683205696492	0
1	16186	828767.446002091121	135.63817203655
1	16220	830416.306312330029	0
1	16237	831071.040168528865	245.07198712323
1	16245	831347.852084983079	17.767925968114
1	16254	831601.427781660121	208.09542865428
1	16297	834230.719153458964	46.443763508077
1	16305	834508.353443789655	93.75376546245
1	16339	836167.728562755082	0
1	16347	836506.47912275892	126.66792326187
1	16365	837796.729155137839	243.86573806436
1	16373	838089.456912439265	61.336733813564
1	16391	839267.038094381123	0
1	16399	840006.626265819131	0
1	16425	841238.774437402301	0
1	16433	841535.772653849812	155.47604355619
1	16445	841891.426787915791	188.32054947765
1	16461	842489.498118022242	210.45613663907
1	16470	842734.279035304877	190.75887792838
1	16486	843370.107743020649	11.863445212165
1	16503	843965.401560023171	264.92248629911
1	16517	844601.222745644147	303.75670512502
1	16525	845035.540190541959	0
1	16579	847271.520099319644	238.29557519248
1	16618	849364.872382047449	0
1	16627	850005.815862716643	0
1	16644	850910.343781612562	0
1	16681	854981.140368548156	0
1	16690	856164.72079111776	0
1	16705	856427.509815332319	155.23232128639
1	16713	856722.612371459033	442.37046871433
1	16718	856984.454426629489	691.80511282782
1	16724	857264.064833045884	730.95611268403
1	16742	859678.723115794684	0
1	16751	859963.94363524185	0
1	16770	860575.960390773777	202.10255397284
1	16804	861792.207657800836	101.7412453015
1	16812	862077.898361183214	220.50452659156
1	16835	863797.928720617667	0
1	16860	864821.115304452849	0
[...]
7	14352	741879.620449850607	8
7	14356	741927.329887984873	9
7	14360	742142.817887645199	8
7	14364	742232.996414031326	9
7	14373	742544.983859041508	10
7	14377	742642.571877378216	9
7	14381	742821.892722540593	10
7	14394	743183.756820745473	9
7	14400	743308.985137271381	8
7	14404	743361.113895085529	9
7	14409	743674.976551544307	10
7	14419	744155.057651057325	9
7	14434	744531.283001802542	10
7	14438	744711.626825859423	9
7	14442	744793.980898696438	10
7	14456	745317.780919460438	11
7	14460	745417.159432843644	10
7	14463	745453.271219468424	9
7	14466	745516.49303929595	8
7	14469	745582.575751014242	7
7	14494	746230.410519007452	6
7	14501	746517.046692951636	7
7	14505	746520.531294529418	6
7	14510	746824.834647655252	7
7	14517	746942.516661979851	6
7	14521	747099.473728857882	7
7	14526	747426.766457823931	8
7	14531	747680.032281736499	7
7	14542	748055.915263352452	6
7	14550	748147.363791449836	5
7	14555	748407.240071563143	6
7	14559	748603.974586548892	5
7	14587	749886.751820111371	6
7	14591	750004.734562281978	5
7	14604	750604.611414110525	6
7	14608	750635.929765930693	5
7	14617	751178.997798871794	4
7	14625	751232.645082911628	3
7	14647	752234.983258560184	2
7	14651	752468.652038846647	3
7	14665	753062.620275934874	4
7	14680	753721.888949103366	3
7	14688	754024.882881758393	2
7	14707	756242.283090496851	1
7	14721	756821.287755276745	2
7	14724	756931.740652082618	1
7	14739	758121.402607278283	2
7	14749	759575.382269385356	3
7	14753	761190.451294768675	2
7	14762	762369.923148579622	1
7	14771	762885.430941660848	0
7	14786	764087.385308093297	1
7	14795	764871.441979727563	2
7	14803	765282.665311841321	3
7	14812	765768.360583785526	4
7	14825	767225.540970626663	5
7	14830	767536.825461552036	6
7	14832	767693.875819507319	5
7	14847	768309.546367871766	6
7	14849	768345.361229784548	5
7	14862	768850.386788324819	4
7	14867	768983.256696092217	5
7	14874	769724.077375858142	4
7	14888	770269.849533279025	3
7	14892	770417.479107942434	4
7	14906	770953.993424821912	5
7	14908	770992.623350858258	4
7	14913	771001.674489398124	3
7	14931	772053.463341383312	4
7	14933	772205.03358127191	3
7	14949	773306.697279918446	4
7	14956	773818.534247355406	3
7	14961	774081.953493439382	4
7	14968	774591.961627037236	3
7	14983	775242.113395977002	4
7	14985	775709.753874197235	3
7	15004	776770.446908288321	4
7	15009	777054.122319763808	5
7	15011	777207.619656543218	4
7	15025	777562.45178171944	3
7	15032	777847.861765420731	4
7	15037	778124.338450870939	5
7	15042	778329.64738990745	4
7	15055	780259.089129165357	3
7	15072	780820.965276842543	4
7	15077	781010.591603893856	3
7	15081	781104.325249184469	4
7	15094	781919.962864170402	3
7	15097	781985.553802529723	2
7	15101	782166.866086467681	3
7	15123	783061.202906914173	4
7	15128	783368.316208606891	5
7	15137	783839.707048967306	6
7	15149	784310.505764139915	7
7	15157	784592.887618859545	8
7	15161	784861.291453505519	7
7	15165	784923.381387361578	8
7	15173	785251.646635476	7
7	15182	786328.617050654646	6
7	15187	786404.312712888616	5
7	15196	786907.064486730375	4
7	15204	787142.060401569395	3
7	15212	787348.466177409696	2
7	15225	787910.269051443432	3
7	15237	788430.202376821671	2
7	15240	788482.350199705568	1
7	15244	788551.092878282908	2
7	15263	789417.413662113786	3
7	15274	791676.074491911571	4
7	15276	791794.16791157629	3
7	15285	792058.375619243354	2
7	15302	792691.730232801178	3
7	15308	792992.745841562887	4
7	15310	793049.711966768074	3
7	15333	793663.254890417763	4
7	15342	793986.114855480569	5
7	15347	794240.225833115026	6
7	15355	794553.045389655959	7
7	15361	794846.056885346261	8
7	15366	795170.670961762181	9
7	15373	795286.719676892972	8
7	15383	795553.320744362236	7
7	15387	795568.899760111792	8
7	15392	795864.355641720574	9
7	15397	796148.887771928293	10
7	15411	796771.536549373591	11
7	15418	796838.519494616077	10
7	15427	797227.120915280562	9
7	15431	797371.860919424441	10
7	15435	797373.713755066564	9
7	15447	797998.572205480931	10
7	15455	798243.977707667328	9
7	15463	798418.826037107873	8
7	15466	798525.528543108865	7
7	15469	798579.272449856924	6
7	15473	798639.906165478567	7
7	15477	798850.630726403999	6
7	15501	799576.035141783135	7
7	15507	799850.044185168851	8
7	15511	800043.932127396663	7
7	15515	800137.040383340308	8
7	15522	800206.309297440542	7
7	15525	800330.801947625875	6
7	15534	800611.106370612805	5
7	15538	800805.603891462174	6
7	15553	801585.136656255983	5
7	15564	801939.605493817991	4
7	15573	802206.437784332146	5
7	15597	803352.032511986321	4
7	15600	803465.130048508692	3
7	15604	803478.156539337856	4
7	15613	803843.466578956315	3
7	15635	804850.376590934929	2
7	15645	805238.941600880577	3
7	15658	805876.184718856978	2
7	15668	806109.464843349358	3
7	15673	806386.973652779394	4
7	15679	806712.732279662979	5
7	15695	807280.601950360322	6
7	15699	807352.508899244275	5
7	15704	807572.171473058498	6
7	15712	808758.575248201829	5
7	15727	809289.689935608157	6
7	15729	809905.918305489113	5
7	15738	810204.512651180087	4
7	15763	810637.64318212046	3
7	15772	810694.940982541516	2
7	15776	810759.487565464245	3
7	15782	811066.486148024333	4
7	15786	811246.269677115353	3
7	15790	811339.002521005367	4
7	15798	811591.884223928693	5
7	15804	811899.465543869833	6
7	15812	812186.058137801044	7
7	15817	812507.531447388541	8
7	15826	812822.23664589343	9
7	15834	813114.093758714918	10
7	15839	813405.633830352763	11
7	15845	813658.312760245288	12
7	15849	813830.190370987869	11
7	15861	814236.442887452571	12
7	15871	814588.553020755257	11
7	15874	814718.774472326173	10
7	15880	814762.583828554165	9
7	15883	814768.242435694917	8
7	15892	815151.147879587452	9
7	15907	815768.116561431612	8
7	15919	816048.446261946288	7
7	15922	816158.764146003646	6
7	15925	816209.108158177433	5
7	15929	816355.942355787963	6
7	15938	816731.941246727906	5
7	15941	816775.883131965229	4
7	15953	817213.502318875459	3
7	15965	817626.380686191385	4
7	15970	817832.816958049946	3
7	15974	817940.643611326194	4
7	15989	818849.461803531394	3
7	16010	819558.501681427908	4
7	16015	819859.89032804864	5
7	16019	820043.805438663851	4
7	16041	821125.756471660916	3
7	16051	821484.933188168788	4
7	16060	821825.367053314434	3
7	16076	822338.03155849766	4
7	16081	822657.006257830783	5
7	16089	823305.529004106829	4
7	16094	823537.351046075037	3
7	16113	824685.27231211492	4
7	16120	824953.098803886309	3
7	16124	825177.467782216538	4
7	16138	825752.892163280948	5
7	16140	826061.552937324153	4
7	16145	826252.057336493454	3
7	16163	826929.086032810738	4
7	16173	828318.566369049764	5
7	16184	828767.446002091121	6
7	16188	828852.788360529575	5
7	16192	828911.359206972482	4
7	16196	829026.449109355909	5
7	16208	829584.33253058561	4
7	16224	830734.996231628269	5
7	16226	830808.524927502337	4
7	16243	831347.852084983079	5
7	16252	831601.427781660121	6
7	16257	831864.116603712859	7
7	16259	832025.906985002305	6
7	16264	832200.70624548625	5
7	16273	832559.120299125381	4
7	16285	833911.596923717911	3
7	16303	834508.353443789655	4
7	16308	834848.888871254077	5
7	16311	835132.344897491331	4
7	16316	835235.432621552951	3
7	16328	835772.311917073824	2
7	16345	836506.47912275892	3
7	16351	836788.338203879063	4
7	16354	837549.293093254571	3
7	16371	838089.456912439265	4
7	16377	838341.667092802436	5
7	16379	838512.669162388125	4
7	16394	839606.601784612896	5
7	16402	840144.948157510233	4
7	16406	840303.133979148738	5
7	16410	840407.59419556346	4
7	16431	841535.772653849812	5
7	16435	841654.649216920482	4
7	16443	841891.426787915791	5
7	16447	842017.675214594347	4
7	16451	842204.455564742412	5
7	16468	842734.279035304877	6
7	16473	843014.35667083118	7
7	16477	843046.281730555682	6
7	16490	843670.855619665829	7
7	16497	843794.437601789628	6
7	16506	844280.157553255998	7
7	16520	844917.689823770165	8
7	16528	845165.251027686126	7
7	16532	845353.346963853592	8
7	16539	845666.88595791433	7
7	16544	845714.734888480585	6
7	16556	846700.720775132894	5
7	16561	846740.829419373608	4
7	16573	847113.433621405887	3
7	16581	847540.745578712907	2
7	16585	847605.007075396055	3
7	16595	848190.968075629244	2
7	16607	848779.046615259501	1
7	16622	849702.773571030037	2
7	16630	850264.755505729517	3
7	16633	850628.341912261262	2
7	16648	851239.901912696531	3
7	16652	853594.939772808793	2
7	16661	853991.57157526778	1
7	16669	854409.011855891192	0
7	16684	855303.197695165867	1
7	16703	856427.509815332319	2
7	16711	856722.612371459033	3
7	16716	856984.454426629489	4
7	16722	857264.064833045884	5
7	16727	857568.217545157155	6
7	16731	859090.314251927272	5
7	16746	859955.446265860306	6
7	16753	860042.807337328591	5
7	16756	860120.069952496175	4
7	16760	860298.748217439727	5
7	16773	860663.47499714512	4
7	16777	860865.956084632989	5
7	16781	861069.265551612201	4
7	16784	861138.17128683127	3
7	16810	862077.898361183214	4
7	16816	862341.11172108932	5
7	16824	863283.378716645151	4
7	16838	864051.791753543823	3
7	16842	864057.357213258488	4
7	16846	864058.835174363862	3
7	16864	865160.934991103561	4
7	16866	865355.921321072655	3
7	16875	865928.094589168813	2
7	16892	866527.655594285131	3
7	16898	866863.168215514097	4
7	16900	867298.875156888874	3
7	16910	868889.378975020477	2
7	16928	869517.375341386109	3
7	16932	869711.843499973445	2
7	16936	869823.638022430647	3
7	16952	870230.056493413522	2
7	16956	870397.631136584872	3
7	16961	870741.345852015252	4
7	16975	871323.711534536126	5
7	16983	871693.794254191479	6
7	16987	872843.249964197864	5
7	17003	873393.08992093642	4
7	17007	873426.446178747611	5
7	17013	873712.777825527404	6
7	17017	873920.815275352107	5
7	17020	873976.348899222765	4
7	17032	874236.491756659752	5
7	17037	874516.136649090013	4
7	17050	875114.228703421908	3
7	17068	875810.277577040962	4
7	17072	877045.39167505639	3
7	17077	877146.13536812893	2
7	17088	877504.756024873875	1
7	17110	877892.088815676841	2
7	17115	878165.598745300611	3
7	17120	878519.206328600435	4
7	17129	878839.54945538491	5
7	17134	879105.053139837453	6
7	17138	879208.891916814262	5
7	17145	879355.471162603817	6
7	17154	879662.427886720043	7
7	17159	879946.458892075947	8
7	17173	880553.900515094285	9
7	17187	881269.589229946668	10
7	17194	881624.497609587875	9
7	17198	881724.787335245414	10
7	17202	881942.00225426149	9
7	17214	882587.808382860697	8
7	17219	882756.445192994801	7
7	17222	882854.201362793737	6
7	17230	882866.692773288939	5
7	17234	883023.174825831827	4
7	17253	883514.34087546882	3
7	17260	883697.112557048155	4
7	17266	883955.783537531704	5
7	17271	884245.155274923211	6
7	17275	884261.54577803827	5
7	17289	884914.296748270273	4
7	17303	885369.724526077363	3
7	17308	885463.564527658655	4
7	17313	885780.336705196059	5
7	17329	886284.338583273592	6
7	17335	886602.363521283796	7
7	17351	887179.161037146366	6
7	17355	887179.594651114806	7
7	17359	887259.092366816087	6
7	17366	887542.248937915996	7
7	17370	887780.35953377835	6
7	17377	887860.607946003327	7
7	17383	888108.60181710881	8
7	17396	888808.083915313072	9
7	17401	888924.735043152052	8
7	17409	889232.4997923316	7
7	17417	889704.746170138715	6
7	17436	890419.182899021176	5
7	17445	890757.946493408574	4
7	17453	891180.933257342496	3
7	17461	891408.030638890167	2
7	17468	891545.286154342818	1
7	17480	891928.205331963306	2
7	17485	892181.274577901776	3
7	17498	892523.261304288665	2
7	17502	892851.018070843144	3
7	17518	895741.337736343198	2
7	17523	895988.76156337711	1
7	17541	896850.01046447937	2
7	17543	896936.844533649885	1
7	17565	898893.797165177553	2
7	17577	899171.787200520608	3
7	17582	899454.81105099847	4
7	17587	899772.20227126695	5
7	17593	900107.46694212166	6
7	17595	900407.102492598752	5
7	17610	901121.234929513188	6
7	17614	902601.472995305583	5
7	17619	902667.199363755164	4
7	17627	903042.494070137278	3
7	17630	903099.045479948243	2
7	17653	904090.59477535367	3
7	17664	904414.920722961578	2
7	17668	904427.285863299497	3
7	17676	904693.589701067449	4
7	17684	904951.684847967065	5
7	17688	904979.598296463911	4
7	17693	905264.642786465514	5
7	17712	906267.384953304321	6
7	17720	906826.045581374585	7
7	17729	907836.293229155498	6
7	17733	907839.398996816958	7
7	17737	908000.115456761428	6
7	17745	908209.700344963833	5
7	17757	908676.223965614991	4
7	17766	909084.92052920755	5
7	17774	909826.109367712626	4
7	17779	909944.771426988564	3
7	17797	910724.074748259112	4
7	17799	910861.069604998944	3
7	17804	910882.451213327042	2
7	17817	912421.373178975514	1
7	17832	913893.703284955104	0
7	17836	914019.304263283315	1
7	17850	914612.623293227269	2
7	17858	915221.491178710228	3
7	17867	915814.413370617337	4
7	17876	916492.488256240088	5
7	17884	916803.073492550387	6
7	17892	917970.542245037845	5
7	17897	918112.012753795713	6
7	17904	918609.659437249177	5
7	17913	918976.643023719383	4
7	17921	919334.558981651968	3
7	17926	919387.586245578002	2
7	17938	920498.638633045763	1
7	17954	921927.266356935319	2
7	17961	922180.142572212347	1
7	17966	922456.746429059761	2
7	17981	924427.829985293519	3
7	17989	925240.349386716335	2
7	17993	925427.485536735459	3
7	17997	925711.799615953741	2
7	18015	926545.553241489506	3
7	18027	926906.415627867614	4
7	18035	927197.913449445138	5
7	18041	927526.76249255566	6
7	18048	927680.655602504342	5
7	18052	927918.644457587481	6
7	18060	928858.720888212671	5
7	18074	929736.909429809165	4
7	18078	929982.695909484669	5
7	18091	930414.257214662614	4
7	18095	930595.180501417881	5
7	18103	931180.065486963074	4
7	18108	931275.708168586915	3
7	18111	931393.536428217715	2
7	18132	932117.729366655514	3
7	18140	932435.168302556787	4
7	18149	932700.98464671944	5
7	18157	932990.551552029135	6
7	18162	933299.456643199794	7
7	18170	933699.800019181759	6
7	18178	934000.164330708516	5
7	18196	934821.121222664613	6
7	18201	935108.459803754146	7
7	18210	935565.736864354873	8
7	18212	935957.722098767147	7
7	18221	936231.398130152193	6
7	18229	936345.046798791591	5
7	18232	936427.768360105904	4
7	18236	936538.527757789697	5
7	18254	937569.445722809977	4
7	18263	938304.914555472437	3
7	18277	938850.1027577896	2
7	18281	939116.104215549465	3
7	18294	939988.601610015501	2
7	18298	940069.954690413063	3
7	18311	940652.054290870407	2
7	18315	940887.610125193993	3
7	18329	942009.340661913509	4
7	18332	942640.146920393285	3
7	18347	944192.262799687161	2
7	18350	944205.472383818065	1
7	18354	944374.966987712246	2
7	18373	945357.378678678372	3
7	18376	945968.69558765994	2
7	18392	947450.719989603745	3
7	18400	948000.604453726492	4
7	18403	948019.120710042395	3
7	18411	948424.289140953296	2
7	18427	949825.476001870348	3
7	18442	950856.475159077554	4
7	18446	950974.763453434963	3
7	18450	951153.070720605206	4
7	18454	951254.756968273852	3
7	18461	951445.573503241066	4
7	18467	951741.843007316564	5
7	18487	953284.442947572777	6
7	18489	953364.243828564326	5
7	18506	953980.297801669101	6
7	18515	954280.264244649402	7
7	18520	954568.010042855024	8
7	18522	954585.606366091854	7
7	18527	954637.080419306944	6
7	18539	955043.907526935456	5
7	18543	955182.093334528426	6
7	18547	955344.322567263968	5
7	18565	956856.574973574945	4
7	18581	957421.472806409841	3
7	18585	957424.459242513605	4
7	18593	957728.825205928716	3
7	18597	957763.867019135946	4
7	18602	958080.721715014935	5
7	18607	958312.506308258573	4
7	18626	958899.595000347229	3
7	18630	959031.674597706301	4
7	18636	959316.216301276472	5
7	18650	961455.6855101945	4
7	18655	961534.515398719391	3
7	18667	961980.622184701695	2
7	18671	962075.794419391857	3
7	18680	962589.51799854999	2
7	18697	963267.397751435169	1
7	18701	963275.743044462307	2
7	18716	964501.178526546269	3
7	18719	965771.864964212321	2
7	18735	966889.37960958271	3
7	18737	967070.618453316026	2
7	18746	968144.607168851868	1
7	18762	969649.643303152441	2
7	18770	970214.436294474915	3
7	18772	970295.995595196306	2
7	18787	970986.199855222812	3
7	18799	971535.958734359242	4
7	18807	971838.431470137084	5
7	18813	972109.380415085556	6
7	18822	973083.121127969663	7
7	18824	973405.361539116436	6
7	18833	973943.230883237038	5
7	18848	974635.04352959512	6
7	18850	975048.756333209686	5
7	18855	975054.599961150545	4
7	18858	975124.598819853549	3
7	18875	975816.385165574516	2
7	18882	975974.82844553028	3
7	18890	976228.873195973012	4
7	18896	976523.389576723627	5
7	18900	976630.051961320155	4
7	18918	978409.973847463513	3
7	18936	979069.793629144198	4
7	18940	979332.573590674804	3
7	18944	979386.822371550284	4
7	18957	979907.206465551124	3
7	18960	979954.914227694568	2
7	18964	980012.249352120308	3
7	18983	981033.343861790378	4
7	18986	982255.718885964844	3
7	18992	982413.111290627969	2
7	19004	983510.631793114012	1
7	19019	984043.124692177423	2
7	19030	984790.619858079436	3
7	19036	985103.897777912453	4
7	19043	985379.445435770117	3
7	19047	985417.338563156022	4
7	19064	985873.845908576386	5
7	19072	986208.401266201149	6
7	19077	986547.797853352664	7
7	19086	987958.576207325791	6
7	19093	988001.230280056777	7
7	19101	988298.754024061189	8
7	19107	988588.269551176207	9
7	19111	988591.792934636008	8
7	19122	988891.804852634202	7
7	19126	989138.306433530254	8
7	19131	989304.986471400685	7
7	19134	989334.312236667395	6
7	19147	989679.727247987152	5
7	19164	990513.425588300183	4
7	19184	991619.820188318138	3
7	19188	991670.60986861921	4
7	19200	991992.680840016392	5
7	19204	992202.824681450573	4
7	19208	992315.007180418415	5
7	19212	992460.59986852287	4
7	19216	992621.724159915745	3
7	19220	992691.886031701424	4
7	19225	993041.049310214815	5
7	19255	994822.552921735974	6
7	19263	995462.464975864314	5
7	19267	995492.896919958816	6
7	19271	995591.199139983393	5
7	19279	995774.411765695507	4
7	19282	995925.03462913187	3
7	19296	996475.513246421777	2
7	19314	997572.930943074697	3
7	19318	998911.027960793456	2
7	19326	999298.974381138561	1
7	19341	999938.485047503197	2
7	19349	1000284.468383970394	3
7	19358	1001040.457279326902	4
7	19367	1001468.702689060446	5
7	19369	1001483.338558345713	4
7	19390	1002125.094931543687	5
7	19395	1002436.560455710815	6
7	19400	1002734.580051524919	7
7	19409	1003339.121542194936	8
7	19412	1003839.73494267761	7
7	19417	1003989.845223711307	6
7	19428	1004426.304918576367	5
7	19443	1005024.643199354933	6
7	19445	1005034.865601375072	5
7	19459	1006008.724563027661	4
7	19462	1006118.480791215469	3
7	19466	1006198.986667330303	4
7	19471	1006389.21382022383	3
7	19484	1006823.796178019244	2
7	19506	1008207.873690996945	3
7	19511	1008507.076704238116	4
7	19520	1008897.342513096425	5
7	19527	1009084.059193777198	4
7	19531	1009231.218280823511	5
7	19546	1009700.920008463609	4
7	19551	1009848.390754531924	5
7	19556	1010220.993517267949	6
7	19573	1010828.871847363693	7
7	19578	1011076.431942222235	8
7	19589	1011350.193154555018	9
7	19595	1011652.895162716564	10
7	19597	1011748.020967348245	9
7	19610	1012140.081234583407	8
7	19615	1012362.707548931908	9
7	19619	1012424.315057184971	8
7	19622	1012575.371342187645	7
7	19639	1013291.374719698705	6
7	19653	1013901.053624206802	7
7	19662	1014308.400728154012	8
7	19664	1014373.529667936566	7
7	19669	1014390.507907863434	6
7	19677	1014778.343375625891	5
7	19686	1015076.582233798029	4
7	19697	1015579.767392158702	3
7	19700	1015589.733950809079	2
7	19704	1015616.586261590378	3
7	19723	1017223.001528778608	2
7	19732	1018140.795163813938	1
7	19741	1018892.774822247204	0
7	19759	1019584.340248577521	1
7	19764	1019885.055009968753	2
7	19774	1020992.541744503506	3
7	19783	1021785.007915653715	4
7	19791	1022156.419369487988	5
7	19794	1022610.255659619027	4
7	19809	1023807.933693027886	5
7	19811	1024176.475484455697	4
7	19817	1024361.004321243114	3
7	19829	1024778.528278662769	4
7	19839	1024955.260701702431	3
7	19849	1025420.54066577724	4
7	19853	1025528.957548589568	3
7	19857	1025758.632065500295	4
7	19876	1027134.00512361714	3
7	19880	1027428.325314604922	4
7	19887	1027725.927404466042	3
7	19896	1028551.46647152627	2
7	19911	1029116.78578735648	3
7	19914	1029525.447636472593	2
7	19929	1030664.689588178066	3
7	19932	1031327.858531757461	2
7	19946	1031947.30966453667	3
7	19955	1032292.815853976164	4
7	19958	1033070.145246721373	3
7	19972	1033649.931171780295	4
7	19975	1034162.461286263743	3
7	19985	1035780.637848078465	2
7	19998	1036273.144641457458	1
7	20003	1036440.43088198631	2
