version 2
run ParkingMeasurement-42-20170108-17:29:36-5057
attr configname ParkingMeasurement
attr datetime 20170108-17:29:36
attr experiment ParkingMeasurement
attr inifile parkingStudy.ini
attr iterationvars ""
attr iterationvars2 $repetition=42
attr measurement ""
attr network controltower.SimNetwork
attr processid 5057
attr repetition 42
attr replication #42
attr resultdir results
attr runnumber 42
attr seedset 42
param SimNetwork.a.parkingLot.parkingDelay "truncnormal(60min, 6min)"
param SimNetwork.a.runway.landingTime "truncnormal(5min, 0.5min)"
param SimNetwork.a.runway.takeoffTime "truncnormal(5min, 0.5min)"
param SimNetwork.a.runway.throughputCheckInterval 14.286min
param SimNetwork.wg.interArrivalTime exponential(14.286min)

vector 7  SimNetwork.a.parkingLot  parkingOccupancy:vector  ETV
attr source  parkingOccupancy
vector 4  SimNetwork.a.takeoffQueue  queueLength:vector  ETV
attr source  queueLengthSignal
vector 3  SimNetwork.a.takeoffQueue  queueTime:vector  ETV
attr source  queueTimeSignal
vector 2  SimNetwork.a.landingQueue  queueLength:vector  ETV
attr source  queueLengthSignal
vector 5  SimNetwork.a.runway  landedThroughput:vector  ETV
attr source  landedThroughputSignal
vector 6  SimNetwork.a.runway  tookoffThroughput:vector  ETV
attr source  tookoffThroughputSignal
vector 0  SimNetwork.wg  responseTime:vector  ETV
attr source  responseTimeSignal
vector 1  SimNetwork.a.landingQueue  queueTime:vector  ETV
attr source  queueTimeSignal
0	2344	121737.179660677062	5793.8712850145
0	2360	125048.792328048523	7365.8755475152
0	2369	125575.041871820017	4624.4531128117
0	2438	130220.470525728434	8635.2028400664
0	2450	130658.925028485262	4093.5486237584
0	2455	130964.182337857714	4681.5339186003
0	2468	132734.244458835906	6117.7765786156
0	2477	133029.511186447318	4518.9975833392
0	2496	133715.450366481864	4783.6755152202
0	2507	134329.887567289279	5328.7493673555
0	2543	137655.329049311161	8396.1536888565
0	2555	138197.879900469964	5266.7460845223
0	2625	140751.673968270765	4062.791082773
0	2630	141045.830150363936	5645.5055898739
0	2635	141363.773307470067	7686.6766784913
0	2648	142486.571893383318	5657.9637754236
0	2656	142751.629437493776	4736.1898742497
0	2676	143400.647031332496	4925.9111948447
0	2695	143883.971133004466	5347.6969874187
0	2704	144210.64770676662	5724.1119561725
0	2717	144777.540616741284	5586.1279516099
0	2728	145431.455515660541	5545.1847308081
0	2746	146793.778917280821	6710.8154694465
0	2755	147665.363580367848	4942.1554717509
0	2764	148525.192957728107	5247.6888202866
0	2787	149453.118794535949	4926.9305442378
0	2806	150286.41290242663	6320.8200487674
0	2833	153174.572140653145	7604.6498775361
0	2845	154143.210039910822	5199.9937557793
0	2851	154467.579058126427	5157.4103365606
0	2863	155942.834150829382	6329.4329776181
0	2880	156564.018062514101	5250.748061433
0	2977	161189.695999015052	8620.7024198722
0	2985	161506.043097377736	5582.4228176749
0	2999	162128.099454632011	5676.1198911443
0	3004	162402.548252591265	5072.7648031955
0	3015	162805.25193367928	5020.7859658842
0	3024	163089.036863447345	4360.5899465936
0	3041	163762.547018575297	4816.8886604184
0	3055	164067.461751912301	4963.1882140073
0	3063	164382.797370160298	4489.1958357017
0	3074	164970.059226781554	5838.0810424219
0	3082	165275.893527788644	6064.2972581128
0	3096	165917.751781725372	5424.1338021577
0	3109	167185.034247906646	5693.6285985376
0	3134	168123.025142930398	5225.0754946919
0	3148	169108.343748796106	4987.2862747108
0	3177	171372.366917100817	4449.668504797
0	3186	171699.270401844463	6507.198483354
0	3211	172584.536037938883	5255.8309478493
0	3281	175202.011067282271	7161.8349146032
0	3289	175556.629443199908	5620.3468743225
0	3311	176421.007307933214	5587.7372718962
0	3320	176733.852971321736	5240.3482807326
0	3334	177048.167684372455	5146.6050137184
0	3359	177934.707032117192	5646.4667851133
0	3364	178239.300427845853	5607.3408909761
0	3373	178560.428085724417	5696.3543106486
0	3378	178820.874173018749	5950.3177879335
0	3383	179136.685448903726	6174.1189309103
0	3395	179552.935705282547	6016.8783651783
0	3403	179822.188698992333	4415.1605291524
0	3412	180115.523575062868	6291.7983252055
0	3445	181523.769743240652	4761.0249077275
0	3451	181811.442791404636	6148.7451508835
0	3488	184261.81224330074	7321.5684509881
0	3497	184581.568747271497	4691.1224565361
0	3519	185553.527635493756	5311.316936258
0	3528	186622.376855038144	5698.3739577438
0	3557	187810.286200502557	5463.337177811
0	3562	188098.858101892026	5202.5808199573
0	3574	188651.057395440931	5387.0213491756
0	3599	189568.49043132413	5129.870276429
0	3628	191241.810298979289	4394.7953520518
0	3638	191856.070649847878	7246.0563733864
0	3650	192763.435345952613	5723.405307889
0	3656	193038.728571266033	4504.0448629018
0	3673	193747.235123210654	4785.4176576113
0	3693	194778.373331384343	5301.0716704331
0	3707	195791.542587544721	5134.1224787421
0	3741	197758.803923657586	6725.0330968599
0	3750	198398.005913891326	5333.1982318338
0	3767	199037.231317017601	4958.1909897761
0	3783	199681.79834865986	4949.247360875
0	3801	200808.396365349017	4879.290001879
0	3843	202161.949459367158	6203.6074723958
0	3865	203099.379964981305	6067.8843399942
0	3876	203768.81738154957	5261.456856119
0	3885	204145.055902952074	5039.6253804477
0	3908	205111.458973135438	4021.6834277675
0	3922	205770.654491028922	5567.1650767914
0	3927	206114.612996274819	5196.6134023259
0	3939	206590.451975271509	4609.8686887464
0	3950	206898.540034479188	5449.3166678478
0	3961	207498.878322813559	5427.2271030702
0	3970	208364.613626382813	5482.6510629005
0	3995	209816.887617679462	5596.8547203631
0	4007	210777.965152665786	5758.0126539671
0	4042	213261.263716485099	6668.137257276
0	4051	213544.753818749093	4777.6056111522
0	4081	214946.361136488126	5770.4191039398
0	4098	215722.092030656479	5154.2868153444
0	4108	217185.923200922347	4911.0293611899
0	4120	217851.090082721259	5210.9548069916
0	4128	218140.225903458207	4741.9558327296
0	4139	218425.384428731586	4435.7699229542
0	4206	220736.820136609321	6427.3126697946
0	4229	222709.870882681532	7542.8684537209
0	4244	223056.222499933138	4708.4966301688
0	4260	223681.481134132923	4643.4100335531
0	4266	223980.961864634842	5139.6851280228
0	4274	224288.185413080399	5880.9451667809
0	4282	224543.424436187383	5098.7383270714
0	4297	224838.47449200966	5335.5298388283
0	4333	226363.878074584528	5925.4624549021
0	4346	226989.60833659305	7188.1977253643
0	4355	227302.359693591221	6796.6519870178
0	4389	228954.135215975509	5944.7388957404
0	4397	229240.039418180836	4566.7251531475
0	4402	229550.608907794316	4971.5274370113
0	4425	230447.061889865433	5249.9460790385
0	4444	231342.159013610471	6313.6274618037
0	4459	231676.590136737578	5385.846323273
0	4478	232582.600613867837	5346.5149413354
0	4490	233232.888054096416	5137.0282898819
0	4507	234081.116552200788	5962.2072939287
0	4512	234371.047384155664	4459.7639386168
0	4529	235205.950010413252	4885.3385463722
0	4541	235938.444049069002	4566.5422942156
0	4555	236668.954039901965	5985.4095166789
0	4566	236964.330620545401	5488.4494426414
0	4613	238807.022122612412	5592.3876746793
0	4622	239306.841856800167	4931.9701816542
0	4656	241259.021408019019	5340.0727814659
0	4667	241650.710363673909	4746.5131771229
0	4676	241927.851233753011	4303.7320164976
0	4681	242252.108315784735	5073.378784825
0	4689	242554.860495516912	4921.2638909784
0	4718	243981.552614606581	6085.5830750224
0	4746	244960.591774776453	5090.7785606366
0	4760	245578.478953137387	5264.5240650566
0	4782	246454.478101529026	6099.2898152834
0	4811	248180.569556087101	5095.2143340295
0	4822	248502.446082377853	5114.8806432745
0	4839	249140.726668972172	5320.0753277705
0	4847	249408.41330899625	5380.333010142
0	4853	249724.83109852548	5031.4342943935
0	4861	250061.029937691121	4588.9642655853
0	4879	251163.668021033564	5329.726865365
0	4884	251446.586871945782	4496.0684600872
0	4913	253061.800478573465	6043.5911668063
0	4936	254648.998632352526	6253.7432929159
0	4945	256083.102505291876	6275.8501905382
0	4993	257730.359909452751	5285.5127924604
0	4998	257994.594301895327	6418.8993687474
0	5004	258298.174226170225	5277.12901315
0	5034	260626.145153252551	6655.0130259197
0	5053	261206.868155944137	5012.6200158457
0	5062	261504.864449944261	5200.5334923216
0	5075	262138.841855851968	5532.0234497266
0	5137	264376.984710309274	7300.6390256053
0	5142	264665.544651197657	5891.3272216967
0	5151	264941.62713706894	5462.377762584
0	5167	265521.961232355518	5021.2531950376
0	5202	267063.180862283681	5834.2022436683
0	5211	267448.625670490222	5376.8795511852
0	5227	268040.8946989794	5505.9079964473
0	5238	268651.673809188241	6098.2591343407
0	5243	268982.674982749291	6253.4159997457
0	5252	269328.729143662556	5954.2312101428
0	5260	269570.536382871071	6149.646906821
0	5268	269898.235325535492	5228.0134759546
0	5274	270239.50059179576	4935.6392329386
0	5352	273148.04350584079	7468.8152116333
0	5358	273494.32844700401	6172.6861559509
0	5399	275242.66932807695	7442.5433972094
0	5418	275889.684820783935	5404.0267182983
0	5440	276797.0164167805	5421.7684754392
0	5446	277031.049930507757	6388.7352183958
0	5451	277372.832157837403	6222.3615950861
0	5456	277652.368427864457	6726.563146863
0	5468	277936.415800154994	7236.5048960957
0	5518	279844.410721412752	8427.9479212398
0	5526	280100.943873480067	8517.9985150103
0	5535	280426.475308515786	6141.0243145815
0	5540	280724.088767705562	6295.3952947904
0	5545	280963.025645513821	6000.7788199975
0	5551	281299.269776094064	5593.2602149266
0	5563	282373.739172022419	4512.202751124
0	5574	282705.903875969318	6726.6549105677
0	5583	283038.082718299027	4914.3688976323
0	5596	283622.735707607704	5456.1521670817
0	5605	283912.307311896313	6046.4035776216
0	5638	287406.553228688954	8652.8729570982
0	5647	288328.27417815242	5490.4055213579
0	5675	289593.697384160362	5699.5973299348
0	5706	291122.066388060452	6198.847827116
0	5735	292826.760603873968	6079.8944757299
0	5741	293175.604102127301	4617.9397640185
0	5749	293501.267419478514	4793.3785543314
0	5769	294652.261816239273	5248.0675109339
0	5778	294949.37850364062	4722.7138956158
0	5783	295210.289925053465	4878.0904072343
0	5803	295931.445279471006	4737.682063637
0	5819	298368.912789905426	7159.2067224017
0	5828	299187.881423772117	3889.5069826705
0	5836	299589.265454543939	5553.8274703919
0	5897	303750.779233830836	8088.5668325285
0	5905	304143.823807651078	4521.4308853466
0	5923	305333.118840422318	5689.3875857482
0	5948	306698.965296529832	5578.1423280006
0	5957	307033.266142500979	4926.8928245769
0	5965	307463.333270662729	4815.1266319058
0	6005	309256.316724822553	4594.9783121262
0	6011	309598.844803810889	4026.5209382758
0	6016	309904.357248445435	6741.5442818394
0	6041	312199.430401409004	3803.5131162661
0	6060	312845.510501785482	7245.9266311211
0	6077	313747.434665594588	5683.0285892984
0	6085	314555.169791271847	5953.825465299
0	6134	317046.937227832609	6709.0860128559
0	6173	318543.855130543085	6466.2386684583
0	6181	318861.691135268203	6136.2529504953
0	6187	319082.142628311557	6328.360809985
0	6199	319754.523505289208	3927.3638555774
0	6204	320019.474323294858	5184.0306365551
0	6224	321058.468565070979	5012.2278620637
0	6238	321325.45894872799	4318.739638964
0	6269	322567.814831370824	6464.6903737937
0	6274	322851.784494910391	5349.0837680914
0	6280	323175.162725409222	6103.9805083201
0	6305	324347.434921893783	6549.1556678907
0	6322	325194.740395867037	4781.9862481695
0	6331	325826.291160467381	4588.3126997607
0	6339	326329.913321806049	5027.5002480346
0	6357	327729.991136175208	5802.5257737775
0	6388	328750.505516187016	5139.9827801766
0	6402	329393.203080129386	5974.1110647985
0	6425	330864.965699501073	6303.1399078762
0	6436	331646.638864190615	4725.7424629444
0	6445	331961.65029515785	4199.3296275209
0	6484	333323.404676889588	5489.5056240639
0	6520	334872.01061441006	6347.926387266
0	6526	335175.221234370287	6010.4974958536
0	6537	335813.194820224557	3629.3693173585
0	6543	336104.926597286231	6169.0786057083
0	6551	336513.492997287896	4817.0078996609
0	6571	337318.81013064481	4197.6944674436
0	6582	337647.482034769116	4872.6060414084
0	6596	338288.798085576334	4976.9027977162
0	6605	338580.313452793693	4825.8869852254
0	6631	341018.460827642378	7008.6188992642
0	6645	341656.22940819401	4870.4041038803
0	6665	342586.96010667785	5060.2470579759
0	6705	344682.585808813872	6375.3293471368
0	6722	345480.680312935239	5086.6198604857
0	6736	345965.485164378108	5033.977719147
0	6781	347450.525250607648	5040.6463039551
0	6786	347761.922964649943	5751.966890104
0	6792	348075.928831068446	4639.9866971279
0	6800	348404.456374428996	5413.5764294392
0	6814	348997.942713037757	5180.4872688174
0	6831	350109.980034611022	4470.9186688937
0	6846	350597.049772210395	4726.0976882418
0	6857	350925.56329858978	4536.242911807
0	6912	353149.314879953208	8426.7781761062
0	6918	353432.307486064408	6698.5751923859
0	6923	353786.75742533839	5539.786367003
0	6955	355542.570285708106	6498.2408295787
0	6980	356452.079338117426	5784.4788557625
0	6992	356729.363693517243	6091.5802424972
0	7017	357702.599599171922	6765.5356124421
0	7022	357990.76911773858	6941.2328823149
0	7027	358285.130131720093	6586.2831497188
0	7036	358568.56115924365	6699.5990663677
0	7050	359416.567506535014	5219.379952093
0	7062	360032.371694704161	5091.36828233
0	7070	360372.395525682381	4856.1644641929
0	7090	361297.459875703154	5659.1801654491
0	7101	361882.646086872339	5198.8897512272
0	7118	362812.598956473937	5983.2994792184
0	7127	364182.619543850167	5616.6868419194
0	7137	365369.843911825221	5280.62633425
0	7146	366537.975215123346	5481.3689786937
0	7196	372206.904367331191	10207.82734985
0	7204	372482.702700049495	4104.8792761492
0	7263	375319.34027406044	6649.5332260672
0	7269	375643.85035209314	5167.176538791
0	7286	376465.826313475199	5494.9482113592
0	7298	377271.513638169393	4930.4091543839
0	7303	377588.911255549172	4350.2044328325
0	7318	378323.525467557007	4050.7766652486
0	7332	378904.283479615809	5274.3392098781
0	7340	379218.886664924521	5178.6087819005
0	7357	380298.482159341988	5521.9446997564
0	7380	382132.325860300297	6410.1167992917
0	7392	382521.805195620082	4206.0447241665
0	7413	384722.204703808518	4484.8751898792
0	7424	385322.568747611274	6262.869638211
0	7442	386881.719609137285	6457.6321489036
0	7471	388751.016384184466	6380.9560913307
0	7485	389501.504960239394	4795.9160095434
0	7527	391589.551541022115	6060.541149108
0	7544	392441.899348148311	5520.275661913
0	7556	393099.234506595837	5093.6827076189
0	7582	394541.51413001624	6078.5249041662
0	7593	394837.564673694934	4692.8715496458
0	7604	395486.95931589334	5245.3806402597
0	7615	395919.049022462135	4935.4990351639
0	7624	396243.771265164426	5826.6054951156
0	7654	397569.8633671508	4479.4964892801
0	7663	397895.728298445541	6271.3640719165
0	7716	399975.114782313934	6720.0897670285
0	7747	400950.654346822099	6125.5565186527
0	7769	401759.634479701414	5805.9896436797
0	7797	402671.225671979436	6202.3795616801
0	7806	402919.650052521202	6308.48498837
0	7811	403201.151773518011	4689.4910900322
0	7819	403505.600072476157	5191.8630382273
0	7859	404632.770437153938	5894.9080898587
0	7870	404896.219476586676	5518.114792339
0	7895	405871.421600128566	7081.9301676051
0	7900	406141.491763169718	6262.2210322194
0	7906	406443.649026787288	6446.5889763686
0	7911	406742.790312674927	5953.3957217721
0	7916	407029.858068304028	6163.7040557392
0	7925	407353.68921045855	5599.128072487
0	7936	407684.237336582353	4339.7059241775
0	7961	408556.556076661494	4875.9699029287
0	7989	409490.579158558827	7674.3441946153
0	8000	410077.985605728372	6216.4339468862
0	8008	410384.00266207004	5593.0892280865
0	8046	412437.438894748281	7566.8463678575
0	8051	412679.610848127381	4686.1083900453
0	8059	412918.921307096923	5338.6717812702
0	8068	413234.505852002001	4804.1208296174
0	8081	413928.158009016571	5258.4025550705
0	8090	414312.395351037198	5011.7984545943
0	8104	414568.54294083043	4464.1570650918
0	8126	415457.945592129199	5043.9929215035
0	8140	416357.066402028671	5584.7730285869
0	8178	418599.29086098445	5457.8489323785
0	8183	418846.005393645631	4381.9059102352
0	8196	420254.370832459592	5684.2297048326
0	8212	420834.110348380574	5416.4718424
0	8221	421074.502268137891	4319.0146891321
0	8235	421741.836015098925	4966.4966469574
0	8270	424711.339810964532	6918.3088211584
0	8282	425533.664457876763	5427.1141803941
0	8299	426381.584909087581	3958.7186291034
0	8307	426652.870892844483	5747.4076026939
0	8313	426939.843443012754	4539.3926481896
0	8405	430350.719693096872	7700.977121597
0	8413	430993.156446791045	3826.1034691405
0	8425	431523.79990648215	6045.4693277008
0	8505	433724.520644284756	6611.736359645
0	8515	434357.438944649855	7007.876018628
0	8521	434634.916155539276	6323.4808149544
0	8526	434893.440728449239	7016.0244258139
0	8537	435213.157667611643	6835.2397760879
0	8562	436051.014443019784	7871.1033281196
0	8582	436603.097050272073	7966.099182873
0	8590	436953.721433731369	8484.4961103182
0	8599	437296.136451792699	7649.2502745736
0	8612	437872.135691746701	6610.3778532353
0	8618	438121.698575807864	6401.6541952702
0	8623	438421.347583705231	6534.4467604735
0	8628	438734.471852153051	6838.0629259263
0	8634	439101.708497776902	6960.3310652415
0	8645	439420.396624244105	6817.7659452863
0	8650	439669.623565768008	6087.7002036176
0	8659	439933.158950875648	4965.0765728312
0	8675	440506.044814353255	5272.8663997542
0	8692	441324.897445986036	5517.5060515125
0	8733	443381.709915998528	6147.706097768
0	8757	444602.37436507877	4703.838896408
0	8766	445421.327147264936	4936.4149465969
0	8781	445994.443130091984	4693.7324520179
0	8792	446594.880529281037	5198.4193415226
0	8826	447557.051473745854	4369.8698630681
0	8893	450062.444940841411	8050.6331101266
0	8915	450919.782354658185	7722.1584907148
0	8923	451236.584540346723	8007.9152658888
0	8934	451537.987066483534	4938.3807442041
0	8940	451887.748575650627	4650.3568909743
0	8948	452202.345432109044	6286.456911039
0	8968	452853.120255846585	6235.3700686868
0	8985	453490.242605481371	5831.4268383387
0	8993	453789.713228735582	6019.972307879
0	9004	454091.064280537007	6441.2336488228
0	9013	454370.506938893237	6347.9670571896
0	9023	454991.786730769533	6084.1814749307
0	9029	455333.137254491399	5532.3754038087
0	9034	455625.147357567473	6613.8348449746
0	9044	456983.629257438124	7082.2007811802
0	9052	457481.381320951275	5323.6921771722
0	9069	458128.700945861723	5383.6224014139
0	9116	462002.241980679955	7806.3933807018
0	9171	464956.051971301577	5098.0312031508
0	9179	465248.481239613739	7765.4788867901
0	9188	465546.64626907663	4697.6378228611
0	9201	466077.378173612989	5022.4995992733
0	9207	466383.510171766531	5188.6447987435
0	9218	466715.072096240319	4850.4183525465
0	9268	468547.341260445779	6541.7987371334
0	9279	468827.013262292596	5050.4804180062
0	9290	469453.767352046423	5526.9198220869
0	9305	469856.604212572875	5921.7204393905
0	9338	471229.56995830803	5863.2322530951
0	9355	471853.865925899075	5355.4138472604
0	9366	472110.477215018933	4944.6217169024
0	9391	472963.524334481525	5828.4836320334
0	9402	473569.954287959882	6200.6587376345
0	9413	473922.20943002425	6746.8455286355
0	9427	474493.330127726147	5937.3154633673
0	9435	474810.755280530017	5157.2420670038
0	9483	476320.958346212763	6665.8322554899
0	9503	476974.663635549774	6299.969494093
0	9517	477474.973313256378	6379.850934689
0	9522	477783.059014743303	5806.6630197406
0	9527	478057.94985350392	6035.0536167958
0	9533	478315.551100631522	5499.7405997329
0	9575	479540.804212656242	5857.5904091394
0	9606	480467.312216862691	5729.8692869094
0	9625	481444.606153745291	6107.3798162924
0	9637	481793.071983821331	6943.7371952882
0	9647	482409.154661788161	7016.5698771354
0	9653	482709.416149651487	6535.2182067637
0	9667	482971.960066677839	6210.1710666734
0	9690	483656.727378779395	5149.3221541733
0	9748	485683.72302336745	7352.1770608688
0	9753	485987.949559159011	6725.0170868758
0	9762	486311.676955299712	7825.2628853215
0	9776	486970.351481481641	7226.1090813816
0	9781	487255.759389791536	7106.0194652148
0	9786	487612.974062684918	6897.8066676297
0	9798	487941.370367891356	6371.2534074202
0	9809	488192.261491555715	5378.9584946222
0	9826	488859.66739311007	5498.8333392453
0	9834	489173.829001257839	5528.8067186352
0	9843	489467.032227287426	5547.1836283896
0	9876	490746.71125111229	7070.006281436
0	9890	491329.085476873624	7132.8639930586
0	9906	491987.133870636442	7518.8625088021
0	9923	492561.534276970385	6496.3973152344
0	9985	494658.579366644373	5292.7453426132
0	9990	494905.884787943053	6868.4912483249
0	9995	495195.12884269213	5640.0609592453
0	10013	495511.241789633127	5602.2634773788
0	10066	497353.317882499251	6176.5082376985
0	10071	497640.317707294741	6927.4609508808
0	10076	497963.490192426309	5408.0279161355
0	10088	498239.767617573423	6427.7521512471
0	10104	498808.430977939558	6033.2156677538
0	10115	499417.922973942125	6935.5410834319
0	10123	499723.592506990373	6380.0811349243
0	10132	500004.511253295533	6573.0073901843
0	10143	500301.428298550713	6338.1027465116
0	10168	501228.683041313507	5939.9113447467
0	10177	501466.096691120868	6023.0602431605
0	10193	502076.266418522454	5958.5393387677
0	10224	503348.311154874926	7034.0682817351
0	10229	503620.742871847666	7155.3967540396
0	10234	503952.821269590443	5734.8570595781
0	10246	504287.645235335748	5644.965895826
0	10251	504547.426083510126	4424.8158899195
0	10260	505198.291160822004	4697.5885638885
0	10284	506870.228516877722	5001.3673966098
0	10289	507248.424792935863	6009.0329901847
0	10295	507517.354583815074	5321.9913277917
0	10314	510318.648090960066	7736.5824393421
0	10326	511652.101033651588	5550.7961484312
0	10377	516170.8305065349	8403.1813340857
0	10391	518805.525377378061	7487.44607654
0	10416	519619.440118925997	4946.5287837907
0	10421	519960.446889343307	5298.410917486
0	10429	520295.033123172236	5538.4231672173
0	10464	522530.337701070893	7131.2819414321
0	10481	523193.380806174793	4683.6880834746
0	10505	525000.768947808317	4019.1211383603
0	10527	525910.196421275502	7077.0216773986
0	10538	526221.382950182603	5403.3429189243
0	10549	526864.379249374615	5780.0040091812
0	10606	529300.137551832824	6716.9539357928
0	10611	529636.462643878601	6237.8272042865
0	10617	529907.279314598486	4930.0381780746
0	10625	530353.768668631201	4382.9334398403
0	10653	531277.396546304218	6273.0606066974
0	10709	533152.726329368402	6268.9901710023
0	10715	533397.061316765438	5630.7171235563
0	10720	533652.04476955582	5677.6277442969
0	10728	533934.329553545366	5754.9867712351
0	10734	534179.095279854054	5549.9438599322
0	10742	534534.879254824893	4148.9533236726
0	10751	535082.660477085354	4537.9687540255
0	10796	536560.480512838194	5051.6369387121
0	10824	537782.934492506175	6730.3774169524
0	10835	538146.11787519776	6536.6918903066
0	10854	539018.024425730239	6939.5433455405
0	10871	539794.802124330334	7434.696051145
0	10883	540105.995976523463	4656.969785305
0	10888	540388.797609991098	4837.39450494
0	10893	540714.859929403782	5053.6423273245
0	10902	541186.686600714562	4792.4346923439
0	10910	541650.810146264133	5322.6805913104
0	10922	542470.547927852109	5773.9442141021
0	10931	542799.425348826689	4979.7317031178
0	10936	543107.37485352476	5111.9870834912
0	10981	547684.09806200825	8845.2900038805
0	11003	549662.213774695791	6203.4089737974
0	11025	550807.210563269497	4674.4225917813
0	11033	551121.366600498411	4506.1097969047
0	11055	552941.280737238129	5790.7877581331
0	11068	553651.198712251099	4588.8265120164
0	11077	554383.183045777377	4815.7458559049
0	11105	555428.076593071139	5245.0394362269
0	11148	557674.250220231544	6166.6508647585
0	11153	557981.933426478871	5307.745467347
0	11171	558940.46983610977	4362.6829805468
0	11187	559716.336631705413	5009.246409815
0	11196	560267.463741630785	5016.7604240742
0	11219	561052.565393157472	4226.9790456157
0	11246	562160.031545425806	6100.5028650249
0	11255	562639.715418685635	5807.5344635838
0	11264	563381.108005363619	5013.1861266613
0	11281	564625.54189845899	5641.4856040775
0	11304	565619.662594914382	5181.405292487
0	11310	565929.833428563318	4845.3009400654
0	11315	566258.075744668581	5212.8788546676
0	11341	568233.691626940723	7028.3208693031
0	11354	569155.20226491507	5677.4117301008
0	11371	570473.263066053138	5507.3733589735
0	11394	572175.708224610153	5506.725172351
0	11420	573765.260583333163	6101.7638366507
0	11437	574381.834487040695	5337.269662439
0	11451	574977.125260446818	4740.2357207863
0	11491	577211.559478721792	4813.7832260175
0	11499	577467.489054219445	6042.8349800044
0	11513	578012.538166122178	5016.9239284645
0	11533	579079.089812052189	5270.6915573122
0	11541	579338.987456764166	4372.6904852332
0	11555	580292.55801733343	5316.1674115236
0	11567	580745.255268406131	4751.3661023668
0	11581	581484.120639547996	5451.8954508735
0	11590	582101.977348103509	4655.1143316771
0	11636	584685.962338964662	6228.2875129661
0	11641	584965.326330729495	5837.3065106882
0	11671	587194.109780385669	6584.6196875671
0	11705	588160.917213491442	5662.1465773057
0	11721	589056.722502667249	5558.4595415193
0	11726	589331.214826391333	5677.740458925
0	11735	590282.653843334867	3985.1658152867
0	11744	590700.20488228787	6914.8616814305
0	11764	591922.739949551236	5561.4679621811
0	11769	592265.222190815923	5127.095138311
0	11784	592703.716880770868	4651.8265244729
0	11803	593620.085161906906	6271.2997683024
0	11821	595491.790359180379	7415.9655581109
0	11849	596567.673703982064	5241.400284861
0	11864	597669.618967635017	5133.4959881667
0	11888	599401.477805496701	6462.7558655907
0	11924	600454.746611002833	5636.3866632458
0	11943	601304.145497266648	5685.5121686095
0	11948	601614.197221466126	5638.8977874686
0	11957	602116.152392589824	5583.8233704994
0	11966	603396.688273650341	5326.9047489062
0	11975	603907.599683631016	4509.6216345093
0	11983	604183.454446141266	5055.5247474343
0	11992	604662.107874343932	4335.2127328656
0	12003	605104.700261824949	5477.0649712366
0	12048	608910.046745234934	8384.0146548706
0	12062	610021.70264431193	5131.8338676754
0	12071	610638.093325609191	4977.656806651
0	12083	611910.100551984963	5596.2901700395
0	12100	612736.845013601241	5248.8367503729
0	12149	616113.210070328113	7270.1156253782
0	12214	618362.46837479283	6524.8281452628
0	12222	618651.622365316264	6052.3877112633
0	12231	618936.044849406689	5627.7995215084
0	12256	619838.363579023021	4807.6131031581
0	12269	620425.852552165769	6503.9181595556
0	12281	620727.887924958552	4481.1859775574
0	12286	621027.201357564481	5547.6877283135
0	12294	621341.04085677643	4995.1591291792
0	12300	621638.500854502746	5289.8994642086
0	12308	622039.987997060226	5195.6897272396
0	12317	622408.028136169661	5328.0621957648
0	12325	623132.108243725729	5542.3160419491
0	12334	623647.671984636735	4825.2891783982
0	12343	624586.066387393231	5382.8627206063
0	12452	630766.717156718374	11215.869882469
0	12469	631347.071507748756	6542.8412555859
0	12486	632008.126040540995	5354.2908376284
0	12494	632317.120581718185	5583.7592989553
0	12503	632592.717410820662	4758.5247579764
0	12517	632895.333234542454	5002.6056572706
0	12559	634349.469221593238	5709.6053211017
0	12567	634636.010791871718	6060.4892930035
0	12584	635208.312580703365	6477.2409924244
0	12597	635806.966558932924	6204.3959469371
0	12606	636114.157119279461	6749.3429576814
0	12617	636406.684526970125	6739.2304871009
0	12659	637815.6917879169	7086.855998558
0	12664	638136.716997287991	6962.7010254801
0	12672	638479.511933239798	5722.6456780708
0	12697	639389.857165976503	6520.5676496176
0	12703	639734.029368131453	6686.3979193173
0	12711	640093.289289593399	6446.216555468
0	12734	640788.442016525895	6272.5495799822
0	12748	641365.958776231932	6160.8403514819
0	12756	641692.85666012628	5075.1349448456
0	12767	642284.501981906547	5986.2403627776
0	12775	642579.214446553105	6233.0686468609
0	12792	643232.269424789552	6287.0097849882
0	12797	643499.302844466799	5244.3587602323
0	12806	644112.31566987155	5531.4858727582
0	12843	645614.531205065365	5531.2579064915
0	12874	646543.250119846422	5972.3910652498
0	12910	648041.352695462967	6506.7362308655
0	12915	648361.005599821192	5967.8502504226
0	12926	648790.245710230991	4611.1634552286
0	12932	649089.132491785896	4606.7045221899
0	12949	649833.896196355112	4798.4870488405
0	12957	650116.121639358649	4698.1054504061
0	13008	651906.098268411885	5934.1835655111
0	13013	652220.429942067737	5216.0428422557
0	13022	652518.933690312337	6152.7378605836
0	13061	654031.56699064727	7488.9477737778
0	13072	654306.662517560622	6904.6551886037
0	13086	654925.809031976526	5705.2762957657
0	13097	655267.511874046923	4901.8404478559
0	13108	655606.554021411248	5050.4532497753
0	13130	656507.806410804832	5875.2432544718
0	13136	656811.782006075288	5888.7714685335
0	13150	657062.921559982771	4654.1482074333
0	13180	658273.796322351154	5723.8179535541
0	13189	658604.63099216205	6082.0183777054
0	13200	659196.017514434727	6064.0470322253
0	13240	660907.224086018941	6669.1207605629
0	13251	661282.560886849209	5769.7045099771
0	13265	661845.587195668696	5004.2836830443
0	13270	662187.563609518097	5129.6952268052
0	13278	662521.810072780426	6940.8438503087
0	13284	662787.277899359432	5362.6673169119
0	13324	664470.494383589205	4803.1531043569
0	13329	664805.980395693088	6449.0418981746
0	13334	665121.297685777574	5312.3010631309
0	13352	666034.327072783673	6167.0845548398
0	13380	667608.724431443514	4228.6510997144
0	13386	667977.939251145733	7049.2399434271
0	13394	668302.15926288423	4725.46240045
0	13428	669811.982175041859	6048.4686432101
0	13439	670158.989249094587	4785.2243634866
0	13454	671376.959249002177	5042.0971461247
0	13491	673182.324908860589	4601.6587919761
0	13496	673436.561865121866	6748.9840348068
0	13578	676311.850258625695	7383.281336074
0	13583	676572.391931117604	7767.4150254946
0	13591	676883.242725444557	6727.5110286756
0	13600	677188.179910036131	5622.5174738048
0	13616	677832.535410530084	5740.925499291
0	13631	678159.812129273137	4264.7158350343
0	13644	678734.98464310257	6137.8529878775
0	13656	679037.378151387402	5241.1047950489
0	13664	679338.245670981791	5779.4413992363
0	13669	679618.061336777516	5087.5356650562
0	13675	679853.189853567894	4830.2528988883
0	13683	680160.481349320568	6077.4029709855
0	13688	680501.267829830093	5271.9748977095
0	13750	682703.749025672159	7293.720535186
0	13755	682984.681808301352	6058.8648207381
0	13765	684280.178765034001	6268.3200887746
0	13777	685212.08817821004	4222.2794732155
0	13785	685574.887740514673	4800.3344367206
0	13791	685805.680813488436	4647.97264884
0	13802	686239.088427613915	4744.4722427973
0	13824	687139.469153688414	5895.8207322937
0	13839	690260.245050003774	8203.640703341
0	13844	690574.283786280031	4562.8759405359
0	13898	695472.401670569984	9082.3013955728
0	13927	697199.201335105987	6621.7140989775
0	13955	698400.476374980363	5676.698276318
0	13964	698709.473594731916	4415.8642449951
0	13983	699648.929162165764	5323.876179919
0	13995	700537.154667813032	6074.6324150318
0	14006	700809.101452832994	4280.2164236975
0	14028	701705.407495077447	5515.124162952
0	14034	702037.863444784788	5135.6964839145
0	14054	702905.782377670449	5564.4096694225
0	14079	703852.025733439224	5211.3780686622
0	14121	705490.777730034151	6549.6583559563
0	14126	705762.708104137958	5166.2157490565
0	14138	706637.241079052476	5955.1364850968
0	14155	707163.405015231973	5053.8152686523
0	14160	707450.517726856127	4719.5153524011
0	14178	708464.024468328007	4832.0842987921
0	14220	709983.506135314712	6777.8238462816
0	14233	710578.33168888085	6120.8979618525
0	14239	710873.639032395709	6608.0755230558
0	14250	711122.462970778083	6354.144873873
0	14293	713192.902244792546	4698.7888286395
0	14298	713523.329268271607	6917.8483761781
0	14309	713843.022444010512	5620.3573258482
0	14323	714424.551430743607	5533.1184283212
0	14328	714722.50880789393	5384.9607735416
0	14348	715390.92417624872	4386.5186096802
0	14356	715703.319183770215	4736.0701394269
0	14362	716009.614821956359	6243.8741177245
0	14396	717667.757185525418	6099.7481383581
0	14416	718641.49620240831	5999.2533769672
0	14433	719262.250090261381	5563.4033259988
0	14453	720486.220429425097	4084.5979562614
0	14478	721329.797697166529	6557.0098317721
0	14495	721931.199193347126	5179.0954559298
0	14505	722523.656864542395	5663.0751694152
0	14514	723191.831081189477	5218.2344852217
0	14526	723976.970574769065	5438.7227647521
0	14534	724269.215242076647	3946.0739030835
0	14543	724550.951664612343	5596.9085253546
0	14565	725831.852960413549	5279.1258784963
0	14577	726578.806615878633	5430.0744892237
0	14637	729661.588285564044	7910.4572560731
0	14642	729945.592618765425	5402.3113182246
0	14660	731510.102984499013	6673.1977163786
0	14678	732213.551948583853	4390.4719911798
0	14694	732854.512918531961	4787.6843709218
0	14700	733158.380459797184	6868.5422391763
0	14705	733465.244655624014	5352.7915476487
0	14710	733724.98142449216	5435.1656857596
0	14720	735268.80623373009	6664.9245288061
0	14746	736403.165618464829	5456.4236329654
0	14785	739806.438533954035	4422.4090421842
0	14793	740105.384422512128	8167.2573660162
0	14844	742591.153342311242	6928.0957655354
0	14852	742926.266095311998	4833.2916118801
0	14858	743185.301160700091	4922.886319147
0	14873	744244.712288215563	5302.0579418227
0	14895	745011.861984351971	5024.0976044137
0	14903	745286.210906859858	4501.208691671
0	14936	746570.871322617963	4834.1323656917
0	14942	746871.890031300187	5818.8502803498
0	14962	748181.382778438675	6375.9820491751
0	14974	748459.998053680952	4428.3348812635
0	15038	750676.644591210228	6631.9302930922
0	15057	751534.065331903666	6446.4492525598
0	15063	751794.492106396688	6435.8303867282
0	15071	752074.056954527646	6713.6632989627
0	15079	752367.271440839176	5283.446640346
0	15096	753049.702462163693	4697.5116360916
0	15104	753349.022079110272	4983.5327376475
0	15122	753714.843886077749	4931.8052608259
0	15189	756236.811910776589	7203.6316839702
0	15202	756857.70931153849	7431.9475784058
0	15208	757122.200258459553	7875.5171870839
0	15219	757450.039011347553	7086.8799200194
0	15250	758227.306219833348	7376.2531518294
0	15269	759026.251209905714	6718.3271642862
0	15283	759293.232691617343	5912.1890330745
0	15295	759571.282479023916	6164.5685410969
0	15345	761419.426609438013	7767.9768349651
0	15379	762332.968238171722	6858.0134467045
0	15398	763262.501926265066	8963.1870642703
0	15403	763587.258468734976	9558.6483762344
0	15412	763910.244561116896	9235.2457134633
0	15417	764188.919397713978	8130.8961721416
0	15425	764454.840030655893	7034.6491221794
0	15434	764753.700462597576	7531.466942805
0	15445	765052.378067717083	6879.4723625291
0	15470	765980.289531552991	7776.8386061258
0	15481	766262.294567965244	6598.0547428415
0	15487	766542.634233138877	7012.0580880208
0	15492	766837.838643570414	6650.8838633457
0	15500	767145.993145990336	7425.0551128077
0	15511	767755.610688104037	6522.2130433687
0	15516	767999.251306991276	7309.2789305661
0	15522	768308.851711373343	6173.1750328659
0	15527	768631.863807638945	6946.6782423719
0	15544	769499.860470280341	7188.1565761896
0	15553	769810.946847446968	5050.7525719446
0	15573	770743.297273180834	5608.8416908504
0	15604	772626.259700472942	5725.45056671
0	15636	774452.276432754755	5759.9573909105
0	15706	776692.677378067347	6644.126082212
0	15716	777268.368323191111	6724.027234287
0	15725	777514.390346094372	6516.1932863545
0	15736	777856.366803389665	5843.2876285067
0	15759	778536.474311996787	5366.6707140846
0	15772	779065.324781515832	4912.4099495298
0	15784	779380.680435975613	4784.3457316018
0	15789	779683.458938816271	5893.5266715258
0	15797	779955.90184891255	5566.0156582007
0	15803	780258.821132647981	4914.513227123
0	15811	780592.892372460535	6091.9747080376
0	15823	780898.074025961362	5502.7944870556
0	15845	781810.21170309977	6064.3691190383
0	15855	782401.156961612704	5834.2446422724
0	15872	783203.572719622764	5435.9701640424
0	15890	785074.496873508777	6655.1401794646
0	15907	785701.666007755381	4963.7227606604
0	15919	786034.368448429476	4470.6956248488
0	15941	787024.308808826546	6270.6878546365
0	15969	788153.586438859794	5589.7976686709
0	15995	789538.608263231382	5950.5717054239
0	16011	790128.021593653145	4951.1625608161
0	16025	790685.210551001687	4858.2947561617
0	16045	791801.155099161171	5435.9945310492
0	16062	792422.542360069974	5103.5300919994
0	16067	792698.411361996918	5438.8189705894
0	16076	793070.391728444065	5192.0786419275
0	16085	793852.616768997506	5078.5475359369
0	16096	794310.036224437635	4918.5996324515
0	16121	795318.162179829292	5224.8445288775
0	16135	796119.300090694705	4906.1002901876
0	16176	798517.161742493095	4498.2955425256
0	16187	799047.3974473397	7299.2730434454
0	16207	799829.937154332122	5129.6279935685
0	16224	800915.29487977371	5739.0480229805
0	16257	802160.648989345508	5591.8925263564
0	16266	802432.991471502691	5665.1701829394
0	16283	803171.102905720632	5241.1633446175
0	16288	803457.682846430463	5102.9904737911
0	16300	804125.564640469193	4991.5388307971
0	16313	804698.634338735854	4895.9256871294
0	16344	805647.386917322697	4764.5021266276
0	16355	806270.276931403849	5211.6531922765
0	16372	807053.019240794157	5786.9968310386
0	16382	808421.562552509353	6051.0011649358
0	16390	808845.476716323673	4996.2950812727
0	16399	809434.823612947209	4717.5992900615
0	16410	809983.061927640455	4996.6531223865
0	16433	810888.763820668596	5369.226502084
0	16472	814326.970913864866	7877.7428629034
0	16477	814578.314370161486	4620.999954618
0	16486	815728.533097631731	3861.7529928579
0	16495	816341.163398344788	6354.4856699204
0	16504	817186.440552451118	4985.2614200328
0	16553	822111.457427914835	9291.4427110877
0	16571	823877.394872241477	6290.1336403354
0	16608	825462.899770157695	5875.0176388915
0	16646	826921.69023280127	5925.2103909324
0	16652	827189.733551702785	5655.7859352194
0	16669	828124.014053946775	6136.0679464138
0	16677	828783.009558697931	5173.6067902981
0	16689	829168.808316123113	4648.8398070663
0	16709	829821.021471490878	4448.3659451552
0	16717	830113.76424855282	4736.5139123146
0	16722	830354.459954368381	5819.6638253359
0	16731	830688.009322385308	4600.4072041439
0	16736	830917.709887410988	4768.5219195251
0	16746	833127.118806150153	5766.2631473528
0	16795	837834.594030014089	4078.1962165595
0	16809	838445.060092249927	9345.8237593383
0	16835	840263.754454188048	6121.5546847638
0	16844	841322.119494300923	4743.8575349519
0	16853	842019.547261130356	5393.3479013612
0	16870	843397.330954864099	5747.2790236196
0	16882	843741.593635718936	4666.8619826568
0	16907	846913.381575970317	7318.1094125911
0	16924	847781.758956440978	5639.9241442058
0	16987	851267.512186386711	7564.6895559613
0	16995	851544.400746620013	5210.9042711494
0	17000	851810.993291451116	4748.8663749217
0	17009	852381.693391785085	4163.0450469817
0	17083	854738.73904897722	6492.4399888461
0	17158	857563.658112602093	9016.7070524172
0	17175	857923.449009163504	9452.2334606215
0	17214	859431.853071305592	10642.54660728
0	17251	860334.360368236386	7855.7860902505
0	17260	860632.313237350454	10004.524120668
0	17268	860911.827027965443	7779.7541065726
0	17273	861223.916999555891	8209.183731212
0	17282	861496.306891289116	8304.7746650237
0	17298	862106.256390101278	8424.7487888709
0	17332	863020.505099730324	8483.4832037634
0	17396	865241.376272822685	11483.629158455
0	17401	865565.132269382051	10961.450518885
0	17410	865829.777298521572	11383.998279119
0	17418	866151.079930576256	11390.271019213
0	17426	866485.743664645582	11077.976122204
0	17506	868733.180762206931	13045.772793986
0	17520	869414.769843632969	13582.420288585
0	17534	870031.059651259905	13893.737336608
0	17565	870915.548637245769	13276.259123814
0	17578	871526.341168606838	13742.765679035
0	17587	871838.927201113359	13783.988838287
0	17595	872116.169836775193	13493.198680375
0	17603	872393.515272909932	13212.499901972
0	17612	872710.15415107462	13255.096072884
0	17637	873599.443591677926	12359.185362816
0	17642	873943.630611413393	11780.903085414
0	17647	874204.376055823806	12232.110714377
0	17656	874501.043262939925	11676.382885978
0	17664	874804.471204107519	11780.032907164
0	17672	875130.85117647027	12292.519355294
0	17683	875721.614546516164	12151.580084428
0	17692	876129.875858929806	12062.691652692
0	17702	876722.834468402817	12768.37838894
0	17714	877066.95536007755	12658.755291975
0	17727	877691.646191285303	11392.363959102
0	17733	877971.681308996697	11273.3987814
0	17738	878207.054574486028	11052.2554177
0	17746	878512.3369812448	11533.169009619
0	17769	879507.203924510108	11773.954035389
0	17780	879812.265657970527	11790.613287826
0	17799	880722.521635805887	11607.062723369
0	17810	881037.848711149474	12314.885336371
0	17829	881940.479275343495	12095.15367379
0	17838	882231.467742772914	12172.616676576
0	17851	882779.024259943659	10337.69351955
0	17860	883130.428455304607	12442.316109477
0	17865	883378.237126792082	10638.556460949
0	17876	883704.432813345476	8791.8367696496
0	17898	884588.865241696596	8857.5348190149
0	17907	884913.377554699626	7924.3510563412
0	17912	885239.551432092754	7016.8615179355
0	17924	885527.204536237966	6708.1869168582
0	17946	886418.607409274331	6755.8342511246
0	17951	886758.041034505459	7073.5913811522
0	17956	887088.464518345094	6202.8394348717
0	17965	887386.017805658768	6217.5615428867
0	17973	887681.232798290581	5493.1901652549
0	17987	888266.305660009279	4808.1243540207
0	17996	889305.920053563755	5519.6193462014
0	18008	889880.343633087073	4590.8873132018
0	18064	892394.024375321746	7068.2374642095
0	18073	893863.811984067347	6218.4400903995
0	18082	894488.925921042145	4751.1797995167
0	18102	895635.132115608824	4782.5671407843
0	18114	895932.17036478522	5358.9615886927
0	18119	896226.618481174762	5303.5697116043
0	18124	896527.099658100908	5524.1626410872
0	18143	898481.875912498771	7118.3659558722
0	18179	902352.765842407909	7398.2064051678
0	18216	903785.654665665515	5878.6854901307
0	18246	904978.896137233371	6178.122203208
0	18258	905240.961653125138	4982.586892623
0	18280	906486.82429953336	4914.0530901054
0	18308	907378.317087342866	4871.9038428938
0	18313	907653.405571144248	4768.7696939226
0	18328	908277.433557653551	4572.8194798729
0	18334	908649.001913104179	4462.6257132664
0	18342	908954.770132647939	5747.2421346492
0	18406	911005.423034820917	6655.8731556883
0	18412	911291.115810961948	6291.7332677044
0	18417	911626.768144822575	5091.7737730662
0	18422	911936.21076183618	6079.3941748701
0	18435	913160.683103314276	4062.8119932594
0	18455	913785.471382045051	4938.7020896922
0	18460	914102.557773694105	7554.4546568426
0	18477	914409.763035162709	5128.2191086575
0	18505	915520.359022861919	6327.9240761981
0	18515	916177.286438459984	6787.4253329803
0	18544	917552.758888228713	8080.0139316169
0	18581	918975.95949899123	6125.2792492916
0	18586	919294.444749571167	5044.8747148668
0	18591	919598.497148660078	5395.3923356995
0	18611	920324.68931149099	6051.4375061488
0	18617	920631.82449303089	5349.1021807332
0	18636	921220.969318729769	4766.3413911718
0	18653	921898.831791086127	5058.2291679777
0	18661	922200.670386260666	4097.5380149623
0	18690	923178.176435455855	5639.0854126238
0	18706	923793.221454074783	5517.1868251592
0	18726	924969.783290002783	5277.398582102
0	18743	925790.121236874006	5123.2015486676
0	18782	927388.227906418862	6168.0172133338
0	18791	927644.016587254669	5596.1463645803
0	18796	927945.587475968217	5434.23984215
0	18804	928219.358856628378	5092.5227491213
0	18821	928826.538348301291	5283.2053952539
0	18827	929185.994546961014	5683.7329983353
0	18836	930077.767493858867	5089.5862075721
0	18848	931038.074741653223	4799.2155959462
0	18861	931620.332445664036	5443.7776724173
0	18876	932040.06643836928	5510.0429979216
0	18913	935021.92941909097	6986.5515244591
0	18934	936117.903801006242	5113.9012919652
0	18982	937801.840402277465	5932.9687729326
0	19001	938684.221585250926	6777.6292199332
0	19006	938961.593510314384	6085.1587895398
0	19024	939590.968130291298	5794.7104506827
0	19040	940486.868005581862	5094.4266179093
0	19051	940814.897330585322	4208.8499549698
0	19062	941146.685293394832	5159.2872066874
0	19068	941428.035345930291	4579.9316981294
0	19073	941702.336778460866	4888.5720394977
0	19082	942086.472963584868	4535.815118967
0	19091	943299.295768795702	5384.9008117083
0	19100	944015.04433649058	4628.7578301955
0	19203	949679.097847653186	10270.433084157
0	19231	950528.12058776485	5940.6320725949
0	19240	950909.024805806165	5660.4028407357
0	19254	951502.112437392085	6753.9420723124
0	19267	952158.971114383098	6436.1585412704
0	19273	952467.025988831435	6790.3402996917
0	19281	952740.278600932028	6226.7932137146
0	19301	953350.342989324317	4911.0269260262
0	19312	953659.88423738011	5626.7867191307
0	19317	953971.520642970104	5813.6573380786
0	19329	954282.274928474965	4909.6666610877
0	19376	956061.275836676968	7155.5919347845
0	19381	956371.330885154247	6988.9793735205
0	19387	956655.731311492239	5969.2126497889
0	19401	957030.3152261939	5670.3274719943
0	19432	958645.485913803611	4561.374527078
0	19446	958936.612794250436	6383.3528272179
0	19460	959523.984329329564	4743.2724215213
0	19465	959791.375172985222	5523.1966307744
0	19474	960067.183118005881	5005.1930319602
0	19504	961265.855521345749	6158.7306768376
0	19532	962374.164516225541	5514.0542364561
0	19541	962681.563640566415	5678.2068295083
0	19563	963662.251865543881	5979.3563090334
0	19571	964071.504911961632	5412.7425184411
0	19583	964867.125542531822	4816.5097025746
0	19591	965081.848196947144	4728.8202991951
0	19597	965344.330726668616	4890.3188137613
0	19605	965855.3432516115	4444.8156929542
0	19626	967087.790395208696	4489.6024328231
0	19639	967688.863025142235	6238.6039462662
0	19683	970364.391612000889	7262.2471138029
0	19692	971371.717278249973	5025.6448918254
0	19737	973535.725008795466	6682.7379688237
0	19755	973832.945301109398	5350.5335160189
0	19790	975326.629877163237	6563.9008360072
0	19815	976235.73185547277	6776.6800539268
0	19824	976572.062009233861	6862.3146053964
0	19832	976856.848504966231	4349.6773359075
0	19846	977141.621701989286	4749.8445374411
0	19888	978667.173807474511	7066.113404844
0	19908	979290.335509543544	5738.9069014642
0	19925	979915.506913572442	6362.9235569513
0	19935	980587.467551375268	7996.3700018614
0	19941	980905.375362629042	6872.3749889584
0	19949	981215.316807176441	6039.2204493516
0	19961	981562.763619997426	7397.0930420682
0	19989	982387.82415554794	7007.1399043193
0	19994	982653.773844411137	5650.1118645247
0	20002	982890.535669544513	5850.8594408898
0	20024	983861.715813657554	6833.8485744882
0	20033	984124.075265044221	6248.8392789972
0	20041	984429.312494415779	5873.1534064328
0	20052	984955.404110224716	5964.4030805463
0	20066	985728.635464251487	4456.3992164889
0	20097	986906.555110367165	7204.1724928355
0	20105	987190.807078177595	4304.306083924
0	20111	987502.474213657224	5932.6109103748
0	20122	988213.872693936681	5026.742466789
0	20143	989332.369572745934	4934.9654662652
0	20173	990504.00881624602	4988.1670915965
0	20178	990844.916762124661	5213.371141189
0	20202	992370.934869106742	6615.4987458
0	20233	993566.778797318258	4532.1536494761
0	20238	993843.399269181198	4725.95560549
0	20258	994472.772792540769	6505.5439479958
0	20289	996830.282697704504	7046.6715249787
0	20301	997244.253263291952	5075.3823413662
0	20318	997802.963498347504	6055.9957729975
0	20326	998123.21265692685	5739.9167602603
0	20334	998467.527781611038	6171.3531905231
0	20340	998756.493400023777	4855.7432096008
0	20368	999972.319534398132	4049.638969147
0	20373	1000300.751586639921	6060.6326156483
0	20399	1001882.439563681847	5837.2207246416
0	20417	1003295.010572511585	6100.0457423734
0	20425	1003654.552775864309	4691.728130581
0	20435	1004863.477268112595	5585.6548325966
0	20480	1006631.728553437833	5728.0031039149
0	20485	1006967.65259291645	5779.6488848135
0	20498	1008874.826383733826	6931.8052337724
0	20510	1009168.859492286019	4047.504598516
0	20521	1009781.285697119943	4623.5288505308
0	20541	1010673.754464554106	5244.1398734898
0	20564	1013092.051715590816	7347.1408377908
0	20577	1014482.836503045102	5503.3132106084
0	20582	1014761.659515568872	4745.1578531579
0	20600	1016383.906376627282	5720.7510485817
0	20680	1020368.291153004268	8458.2335799658
0	20697	1021465.090701986178	6642.7212553022
0	20717	1022034.446002573809	4074.7623625601
0	20731	1022612.978486951103	5451.229553377
0	20739	1022930.344959149615	5025.5577249422
0	20747	1023194.729581826377	4562.254879201
0	20756	1023488.163630409944	4751.8042899661
0	20764	1023790.442584023532	5762.3354702457
0	20784	1024371.083400266878	5259.2158000637
0	20814	1025668.247512369656	6040.6798657322
0	20825	1025952.661135792455	5824.978156165
0	20844	1026768.973274828135	5517.4172781296
0	20865	1028194.655121908609	6386.8280811268
0	20876	1028458.317503159391	4913.6813725599
0	20887	1029030.612671577961	4797.0087745294
0	20895	1029389.132123209239	5049.3784614734
0	20904	1029759.096281558009	5056.0315413126
0	20912	1030120.540211345482	4445.0947343187
0	20931	1032031.931841027203	6215.7227024167
0	20939	1032357.095650367762	4792.5006109341
0	20966	1034623.371871129667	6301.5638432697
1	2346	121737.179660677062	151.91197501503
1	2375	126282.648419257415	0
1	2386	126654.74148632937	89.365081602458
1	2392	126944.357993272199	327.89011305186
1	2401	128510.513603108108	0
1	2410	128931.774851261648	0
1	2421	129259.768585603218	258.63038566942
1	2427	129552.275946681215	293.10058622651
1	2479	133029.511186447318	98.377370499658
1	2498	133715.450366481864	38.353737503092
1	2513	135400.32456049004	0
1	2523	136688.882885497755	0
1	2531	136964.665862431446	136.0577444717
1	2557	138197.879900469964	182.44033722585
1	2568	138495.523092072542	20.787255584779
1	2576	138813.242388088938	326.70663749483
1	2585	139199.789393862384	663.51524827661
1	2590	139545.192597192697	353.77993206126
1	2599	139886.270784852394	0
1	2607	140186.127793096991	103.16434526267
1	2658	142751.629437493776	28.421328876851
1	2678	143400.647031332496	123.14289389099
1	2706	144210.64770676662	245.05485310742
1	2719	144777.540616741284	251.35236644317
1	2733	145569.922263117056	0
1	2769	148943.21628413152	0
1	2789	149453.118794535949	142.95007297008
1	2797	149711.726478639587	98.325305428303
1	2812	151313.270001081126	0
1	2821	152568.993579142891	0
1	2865	155942.834150829382	19.213871126555
1	2882	156564.018062514101	112.0384990264
1	2891	157329.783449395741	0
1	2900	157784.465967795034	0
1	2909	158728.446916853772	0
1	2917	159032.224942907677	86.566584750743
1	2931	159344.49999552162	240.22645761666
1	2937	159623.900316623316	491.92213226364
1	2948	159943.610382588142	732.01411291227
1	2956	160269.235307973636	375.63377351508
1	2965	160545.381580044097	51.763600476462
1	2987	161506.043097377736	14.637448008707
1	3026	163089.036863447345	191.0872152089
1	3065	164382.797370160298	261.73989607499
1	3084	165275.893527788644	83.821609298177
1	3111	167185.034247906646	262.33583560282
1	3119	167503.915498615606	175.21040852598
1	3136	168123.025142930398	82.84899025137
1	3154	169936.28256887741	0
1	3163	170833.270036037007	0
1	3188	171699.270401844463	205.76571125529
1	3199	171986.470605066392	84.907934412366
1	3213	172584.536037938883	296.29579093503
1	3227	172921.967476783602	290.00793991387
1	3236	173222.694006842898	358.62023176707
1	3244	173539.107591103226	668.55120601794
1	3255	173847.198111271842	884.63159327846
1	3261	174183.53870358178	647.48136347749
1	3266	174568.787714099148	745.06246424176
1	3291	175556.629443199908	149.60127335995
1	3303	175873.24895899129	210.55131847014
1	3336	177048.167684372455	285.42284885931
1	3341	177341.723305562384	401.47951324973
1	3414	180115.523575062868	225.07728432747
1	3422	180437.449112156975	195.23841292125
1	3431	180924.002897294327	0
1	3456	182346.949022691524	0
1	3465	182896.27728193474	0
1	3473	183264.036046265362	0
1	3499	184581.568747271497	142.94859237641
1	3510	184908.344259531331	298.32998306984
1	3533	186847.014946927476	0
1	3545	187174.783722935016	134.75368487139
1	3576	188651.057395440931	116.37368707667
1	3584	188969.535563426762	7.718097827377
1	3601	189568.49043132413	91.188770372933
1	3610	190657.420108802579	0
1	3630	191241.810298979289	208.03947218164
1	3661	193064.807682057564	0
1	3678	194079.0403272415	0
1	3695	194778.373331384343	45.822343599517
1	3712	195929.106363470013	0
1	3720	196210.736336973638	252.39435000227
1	3729	197031.495624987107	0
1	3755	198507.360525430538	0
1	3772	199105.430522504387	0
1	3789	200203.489414237512	0
1	3806	200917.999593948885	0
1	3817	201281.640921316265	191.86537594829
1	3826	201554.707961761982	105.48459513063
1	3845	202161.949459367158	181.36617284206
1	3851	202484.872381313368	413.22116156999
1	3867	203099.379964981305	217.41740149902
1	3890	204220.032897316346	0
1	3910	205111.458973135438	91.506474436702
1	3952	206898.540034479188	305.41357527007
1	3975	208767.148207596906	0
1	3984	209175.942032548333	0
1	4009	210777.965152665786	210.15993735367
1	4019	212274.893839732454	0
1	4028	212640.135275729642	0
1	4053	213544.753818749093	146.48374802045
1	4061	213989.614505777427	0
1	4070	214309.507466814726	0
1	4087	215167.00242896064	0
1	4141	218425.384428731586	77.658558967217
1	4147	218680.626197497695	273.38595119816
1	4158	218943.143901088774	101.86716447673
1	4166	219284.057218519272	245.98611793945
1	4178	219551.05426849525	106.36815937924
1	4186	219818.582260161047	315.63760697966
1	4191	220090.685232917082	289.27462168834
1	4208	220736.820136609321	298.40451692688
1	4213	221001.710701364088	496.00299479064
1	4246	223056.222499933138	46.826179698021
1	4299	224838.47449200966	259.39302122664
1	4307	225089.69989925062	416.38563421727
1	4315	225392.53864448438	364.00709267759
1	4321	225714.877043181169	517.76123235428
1	4335	226363.878074584528	73.134261119931
1	4357	227302.359693591221	66.27402105877
1	4366	228095.859764214494	0
1	4377	228402.272210210156	283.36295193803
1	4408	229911.28344553885	0
1	4427	230447.061889865433	126.45042582439
1	4436	230751.655492127548	68.110968904467
1	4461	231676.590136737578	304.68838188422
1	4469	231937.961028515176	462.07985061118
1	4492	233232.888054096416	18.253606163282
1	4517	234374.871675145945	0
1	4543	235938.444049069002	19.495422515902
1	4568	236964.330620545401	60.133433994428
1	4576	237253.784730990585	75.055200030828
1	4585	237624.119217255401	0
1	4596	237934.86902179347	301.27241725498
1	4604	238195.012090096326	299.04255051211
1	4627	239869.813214139818	0
1	4636	240313.954888080758	0
1	4647	240628.032617500124	272.84433125451
1	4695	243085.355222057566	0
1	4703	243387.565439103356	0
1	4720	243981.552614606581	160.90127340488
1	4729	244304.893553128063	276.81325427378
1	4748	244960.591774776453	267.1949706445
1	4762	245578.478953137387	106.41328103153
1	4770	245871.416820809373	37.475665140835
1	4788	246950.51841185858	0
1	4796	247299.503611996046	281.29430022891
1	4824	248502.446082377853	107.19074294124
1	4863	250061.029937691121	253.77762293742
1	4889	251575.694933147898	0
1	4898	252444.847116992359	0
1	4915	253061.800478573465	40.755265553236
1	4924	253971.132127332894	0
1	4950	256194.248140098447	0
1	4959	256488.730449261124	184.39949163846
1	4970	256803.334035360332	196.51562923495
1	4981	257102.279327796006	25.933643091988
1	5009	258774.21742950091	0
1	5018	259479.24937448492	0
1	5036	260626.145153252551	125.43711593464
1	5064	261504.864449944261	275.8858313289
1	5077	262138.841855851968	67.09573654695
1	5086	262534.986702532114	0
1	5100	262835.4482160272	282.03354117963
1	5106	263156.471579825852	427.21259682228
1	5120	263454.022074216019	79.524140696286
1	5125	263745.783010199625	324.89353414951
1	5153	264941.62713706894	271.40528748805
1	5169	265521.961232355518	218.09987349834
1	5178	265816.12189474755	136.8936005401
1	5213	267448.625670490222	126.98337943715
1	5229	268040.8946989794	240.76876811188
1	5279	270485.65810248566	0
1	5290	270835.060180157769	192.74546804579
1	5299	271101.323270343146	401.4123662838
1	5316	271427.492734802562	501.6874538011
1	5325	271730.684108144232	580.21354539293
1	5333	272039.418975864448	664.17103452313
1	5338	272356.033903085847	939.57110291294
1	5344	272599.710899873974	1016.7655414043
1	5363	274285.450993934257	0
1	5372	274611.185263326059	182.49179041091
1	5401	275242.66932807695	280.42250256063
1	5420	275889.684820783935	183.67525961645
1	5432	276174.053281657068	194.80431625546
1	5470	277936.415800154994	74.879379256572
1	5484	278228.72301946336	362.81928518868
1	5489	278543.019596705957	419.30577603927
1	5498	278899.501801101705	732.91826057575
1	5506	279225.504757347123	471.8244857564
1	5585	283038.082718299027	200.21406150447
1	5607	283912.307311896313	18.207257670776
1	5616	284923.218560944455	0
1	5626	286746.866128144027	0
1	5652	288557.664338108822	0
1	5660	288858.252618782276	150.36375363512
1	5677	289593.697384160362	189.50307885503
1	5686	290226.664608024799	0
1	5694	290510.035608986829	177.83609116771
1	5711	291193.763215834028	0
1	5720	291459.65372749957	249.9476599958
1	5755	294035.437984152067	0
1	5788	295298.374441101568	0
1	5805	295931.445279471006	269.23287816865
1	5841	299622.392922304502	0
1	5849	299933.339878900068	289.60862422594
1	5859	301120.822968529188	0
1	5868	302106.373317924047	0
1	5877	302648.206638756913	0
1	5885	303162.812966606069	0
1	5911	304661.338412696338	0
1	5928	305572.3238655351	0
1	5936	305868.575487596564	268.99161693223
1	5971	308064.406076296238	0
1	5979	308395.91728514286	0
1	5988	308715.596224389526	114.25189841667
1	6022	310337.851214976659	0
1	6043	312199.430401409004	121.81393932421
1	6062	312845.510501785482	120.07231701259
1	6068	313211.675999005263	457.89418067871
1	6091	314835.443686739731	0
1	6100	315827.159649711818	0
1	6111	316145.704230823553	99.463527816245
1	6120	316425.673700978647	322.54924340153
1	6136	317046.937227832609	40.217918068591
1	6145	317311.572284546758	240.39006745764
1	6156	317604.435842144061	101.73511532511
1	6164	317936.634421668264	138.35516766522
1	6209	320412.754147697571	0
1	6240	321325.45894872799	87.480488021325
1	6246	321657.035139489627	354.6220657182
1	6257	321969.215156324105	41.74979392641
1	6285	323419.092015330847	0
1	6293	323723.40361795418	112.88088194379
1	6310	324561.825791624824	0
1	6345	326920.896401246202	0
1	6362	327762.320667636991	0
1	6373	328097.147822116714	263.24876929106
1	6390	328750.505516187016	226.42128904297
1	6404	329393.203080129386	228.47934161274
1	6412	329935.847991577918	0
1	6447	331961.65029515785	265.16519753089
1	6455	332303.994327519954	120.16882465387
1	6464	332774.875993360694	0
1	6486	333323.404676889588	202.28901368843
1	6492	333631.736470566048	319.84118270594
1	6500	333933.889084768657	179.46261720035
1	6511	334246.44734863914	236.60542026092
1	6556	336785.825304313713	0
1	6584	337647.482034769116	120.76898606712
1	6607	338580.313452793693	273.05699111663
1	6617	340394.060452449587	0
1	6633	341018.460827642378	86.953382411223
1	6651	342009.956074545933	0
1	6667	342586.96010667785	177.08116002527
1	6676	342990.879944989836	0
1	6684	343435.942133940593	0
1	6693	343817.455444220322	0
1	6710	344722.536703847011	0
1	6738	345965.485164378108	326.42379866083
1	6743	346267.40579543081	396.45371146218
1	6755	346583.061004957284	193.74061817447
1	6766	346869.866701709833	136.13440803136
1	6802	348404.456374428996	157.48531609357
1	6819	349044.329456129402	0
1	6859	350925.56329858978	287.7798475697
1	6870	351308.127789148434	640.52730679352
1	6876	351617.605400184386	680.5414134546
1	6890	351897.159970499452	847.62373507576
1	6895	352183.164481247032	484.31749924574
1	6901	352510.470039020958	641.50794614504
1	6929	354197.187554441979	0
1	6938	354941.003412374163	0
1	6957	355542.570285708106	26.339224218608
1	6969	355858.531820725908	220.25211047187
1	6994	356729.363693517243	45.607357872077
1	7005	357032.510672822772	203.21119556728
1	7038	358568.56115924365	2.628457312878
1	7072	360372.395525682381	283.17794810712
1	7092	361297.459875703154	240.85363927351
1	7106	361999.077017481293	0
1	7153	368377.823423900303	0
1	7162	368715.855480604041	46.048432610828
1	7172	370476.673813302151	0
1	7180	370970.878102115992	0
1	7206	372482.702700049495	141.598216264
1	7215	373238.70682271665	0
1	7223	373629.944269737665	0
1	7232	374040.277883023989	0
1	7240	374313.925013333982	41.176211025565
1	7249	374776.537459585576	0
1	7274	375722.20906100862	0
1	7320	378323.525467557007	7.764996103403
1	7342	379218.886664924521	159.18755552429
1	7359	380298.482159341988	61.152645412646
1	7368	380630.298025838244	206.2105656046
1	7394	382521.805195620082	151.74490276634
1	7415	384722.204703808518	16.615753112528
1	7429	385529.010391914106	0
1	7447	386921.623686235331	0
1	7456	388005.551798976982	0
1	7473	388751.016384184466	288.02715833439
1	7491	390144.693124049089	0
1	7499	390396.108987781626	154.53031214797
1	7507	390627.595457653015	210.42968760421
1	7516	390983.549987298282	0
1	7532	391624.364226529028	0
1	7558	393099.234506595837	8.867628725098
1	7566	393379.442812185286	124.41779689986
1	7595	394837.564673694934	12.466845525534
1	7626	396243.771265164426	290.12642914275
1	7634	396516.813948936256	47.967838636922
1	7642	396850.205644770524	239.04058061936
1	7668	398313.737034248888	0
1	7677	398589.311391119085	77.650707633246
1	7691	398854.148083248791	116.28573595359
1	7696	399169.879356921883	380.38792439838
1	7704	399432.744244383814	54.639560136168
1	7718	399975.114782313934	95.844051363642
1	7730	400319.111527411175	322.05147699248
1	7749	400950.654346822099	161.25975591923
1	7758	401198.233850102697	332.07983753792
1	7771	401759.634479701414	5.073341729866
1	7783	402027.440862963267	211.20589901977
1	7821	403505.600072476157	161.06866007128
1	7833	403789.086606369877	108.50043263705
1	7844	404019.605999459225	158.05434061702
1	7872	404896.219476586676	105.30604260317
1	7880	405230.873971674757	360.28144478403
1	7938	407684.237336582353	103.98781075567
1	7949	408000.24666025877	6.744202176695
1	7963	408556.556076661494	126.17105427694
1	7974	408829.286596280598	159.53114233449
1	7991	409490.579158558827	189.98226211595
1	8010	410384.00266207004	279.61678633138
1	8019	410682.229409126017	268.27673850034
1	8027	410974.919065226751	202.62569178494
1	8070	413234.505852002001	93.063923396069
1	8106	414568.54294083043	104.44345742
1	8115	414883.911508594943	313.77038096792
1	8128	415457.945592129199	40.307086148631
1	8146	416755.487579005835	0
1	8154	417066.01436606101	290.67499791948
1	8163	417793.030989806148	0
1	8198	420254.370832459592	147.82055497691
1	8223	421074.502268137891	169.03897798735
1	8240	422400.450794823111	0
1	8252	422723.988092209007	301.12181222478
1	8257	423074.745006012296	425.00243451245
1	8284	425533.664457876763	55.333879095433
1	8318	427112.784284639707	0
1	8329	427420.213632858035	253.1606552075
1	8335	427754.736469033084	405.17354301118
1	8343	428040.618225849596	163.20192321427
1	8354	428351.223250476285	171.31213557607
1	8369	428648.761308799344	337.32596821446
1	8374	428907.211565210648	529.29367368691
1	8379	429215.673417548043	746.44809413483
1	8385	429508.338192893718	871.34032549465
1	8396	429765.158547024469	118.27236980533
1	8427	431523.79990648215	262.04206797071
1	8435	431839.89968175406	119.85530121635
1	8456	432189.958737707411	303.05791447567
1	8461	432520.974601466137	624.56567523939
1	8475	432823.535167658128	682.15773512269
1	8490	433096.292724680183	493.66204572237
1	8507	433724.520644284756	142.59728213438
1	8539	435213.157667611643	245.07528956715
1	8548	435521.222794122665	288.04437952366
1	8564	436051.014443019784	243.62304854628
1	8601	437296.136451792699	62.132633562145
1	8661	439933.158950875648	34.623482204928
1	8677	440506.044814353255	21.13261368519
1	8694	441324.897445986036	24.186767911909
1	8703	441673.826106498086	277.36491873965
1	8711	442011.811830714853	0
1	8735	443381.709915998528	194.5283053208
1	8740	443678.906046866619	481.2821829232
1	8745	443969.278393796707	740.60911933877
1	8783	445994.443130091984	78.554609021895
1	8797	446599.606322279462	0
1	8805	446910.440931054866	292.69074389512
1	8828	447557.051473745854	319.65978906954
1	8842	447869.284859382407	219.45422766817
1	8850	448216.247318222831	557.4315510802
1	8856	448549.285835144357	779.54491428772
1	8861	448857.258483675465	834.71860197187
1	8873	449191.0124553223	283.4071994835
1	8878	449490.195573625088	478.88306103225
1	8895	450062.444940841411	261.68309015873
1	8900	450368.881983521889	467.45350726394
1	8950	452202.345432109044	44.656288330011
1	8970	452853.120255846585	108.04171139876
1	9015	454370.506938893237	174.65833891508
1	9057	457483.002352823684	0
1	9076	459858.020768150756	0
1	9085	460849.008446215565	0
1	9093	461114.299215449437	59.420641109771
1	9102	461372.595696173113	177.73032315006
1	9118	462002.241980679955	137.58823698615
1	9127	462340.358731846274	334.81620853385
1	9137	463776.532844286442	0
1	9148	464045.346574108443	118.49904414895
1	9156	464380.859294224053	445.97552104164
1	9190	465546.64626907663	180.30856386372
1	9220	466715.072096240319	216.62001760163
1	9228	467135.040702448104	0
1	9243	467433.520252112425	267.66475399594
1	9251	467721.020603263086	545.6567018743
1	9260	468030.325609511013	661.03005918562
1	9281	468827.013262292596	270.99859793372
1	9307	469856.604212572875	203.09099904661
1	9312	470175.405762416831	520.27967169394
1	9321	470674.694141456822	0
1	9340	471229.56995830803	134.44757974064
1	9368	472110.477215018933	134.08122001619
1	9374	472395.035534672895	372.13929796476
1	9393	472963.524334481525	147.71383358287
1	9415	473922.20943002425	238.99562650743
1	9437	474810.755280530017	73.312350576771
1	9452	475108.321736499859	258.98694796675
1	9463	475413.629519078488	76.403181625561
1	9469	475764.80208937521	372.21730472246
1	9485	476320.958346212763	146.76040332502
1	9505	476974.663635549774	212.8746355453
1	9538	478331.545962498687	0
1	9549	478629.420291614799	143.00622163658
1	9554	478921.683633838553	414.27840923248
1	9577	479540.804212656242	277.87174037306
1	9585	479855.753182210591	111.51078211058
1	9608	480467.312216862691	317.57229228598
1	9616	480798.690968071094	83.523573015892
1	9639	481793.071983821331	222.95502335016
1	9669	482971.960066677839	158.65706974431
1	9692	483656.727378779395	295.89332491458
1	9703	483952.967190795287	307.94490817269
1	9711	484275.41550941641	598.71053974007
1	9723	484545.23195282151	625.38335392372
1	9728	484851.35279576525	655.13131195026
1	9737	485158.865373732169	690.5940118978
1	9764	486311.676955299712	246.5399935637
1	9811	488192.261491555715	154.86795193758
1	9845	489467.032227287426	101.19820325628
1	9853	489749.112295173338	194.04441172647
1	9864	490124.937577171196	215.95926491685
1	9878	490746.71125111229	33.854494698383
1	9892	491329.085476873624	152.27583207291
1	9908	491987.133870636442	175.11840431014
1	9925	492561.534276970385	79.152386460197
1	9934	492880.535793465001	325.07351717415
1	9942	493196.120087255696	420.90477706996
1	9956	493485.922575215673	142.41120314956
1	9962	493766.507593744398	335.00373063317
1	9973	494089.487907462335	126.16235542322
1	10015	495511.241789633127	222.47009306632
1	10020	495812.662962645732	369.62651468538
1	10028	496148.748226260872	31.021146506079
1	10043	496480.77578170085	166.53290856107
1	10051	496711.527457282975	246.18133947489
1	10090	498239.767617573423	21.803407561061
1	10106	498808.430977939558	165.75163842979
1	10145	500301.428298550713	178.81810496007
1	10154	500603.92988423938	103.22728730592
1	10179	501466.096691120868	226.70488836968
1	10195	502076.266418522454	207.40529825455
1	10204	502402.063970532929	206.70071450958
1	10215	502713.85403924384	131.78838762587
1	10266	506101.304885220391	0
1	10300	507767.649172449221	0
1	10328	511652.101033651588	334.02173281353
1	10340	514662.035971857294	0
1	10351	514919.504100198036	246.59276506271
1	10357	515262.575895481476	505.96593952655
1	10365	515559.178795033696	160.12303539489
1	10393	518805.525377378061	295.83265467783
1	10401	519017.705978525185	184.53123464823
1	10435	520818.040031258294	0
1	10446	521112.731013183789	131.08320373577
1	10452	521415.770516402448	331.39527620905
1	10469	522583.183616039977	0
1	10486	523398.63543959215	0
1	10507	525000.768947808317	23.527811284471
1	10518	525299.721295419272	295.38535581249
1	10540	526221.382950182603	250.5477213917
1	10554	526883.736158366054	0
1	10563	527766.344193209135	0
1	10575	528049.974827736568	75.557802477616
1	10583	528333.044530758251	153.70174844801
1	10591	528691.259331277309	62.107911355479
1	10630	530385.925931152315	0
1	10639	530674.727393694251	130.03567063441
1	10655	531277.396546304218	224.8394707504
1	10664	531603.986071817142	95.142497691057
1	10675	531909.505875177453	300.07989028625
1	10686	532275.110521114679	196.62944092489
1	10701	532562.775158639743	202.66908545444
1	10756	535449.026191218478	0
1	10768	535742.983065961785	191.57996091065
1	10776	536044.177102433375	382.95950035412
1	10798	536560.480512838194	232.35095788449
1	10810	536853.849209638937	459.59730126823
1	10815	537162.51008509608	465.90637134612
1	10837	538146.11787519776	326.42422948883
1	10843	538434.184232020848	438.79646198724
1	10856	539018.024425730239	179.21636760246
1	10942	543458.804800898379	0
1	10953	546132.787971488242	0
1	10961	546615.256803593754	0
1	10970	547150.492979105024	0
1	10988	549062.372200234682	0
1	11005	549662.213774695791	94.776584823312
1	11013	550183.037156844224	0
1	11039	551507.599355472996	0
1	11057	552941.280737238129	267.0927781063
1	11082	554577.786855562998	0
1	11091	554874.070179555611	166.97995766518
1	11107	555428.076593071139	177.37327551457
1	11116	556059.528680400923	0
1	11125	556825.58634754179	0
1	11133	557127.432435896992	295.25148079516
1	11159	558367.921878702366	0
1	11176	558984.056294381521	0
1	11201	560438.257302427382	0
1	11221	561052.565393157472	7.368503156541
1	11232	561262.810773836227	178.2782853383
1	11238	561539.668570607882	334.29781297022
1	11269	563477.790534814252	0
1	11287	564965.889707079616	0
1	11321	566668.9830522592	0
1	11330	567663.496746682439	0
1	11356	569155.20226491507	110.63744031335
1	11373	570473.263066053138	236.37352639265
1	11382	571424.654074215092	0
1	11399	572397.776252704264	0
1	11408	572995.61423765763	0
1	11425	573808.398254739984	0
1	11453	574977.125260446818	10.828288915871
1	11459	575246.363758810323	269.97315300047
1	11467	575993.889166039303	0
1	11476	576341.036841157029	308.81165248256
1	11501	577467.489054219445	20.626037793081
1	11518	578457.674825998574	0
1	11543	579338.987456764166	210.9676367229
1	11569	580745.255268406131	135.76517558759
1	11595	582498.770636185787	0
1	11604	583498.26296114792	0
1	11616	583778.868130632908	125.39376316658
1	11624	584050.068995329662	264.72579447228
1	11648	586297.488028048189	0
1	11656	586552.68606680419	191.41407943405
1	11673	587194.109780385669	55.982727880704
1	11684	587533.52599591818	184.74060231369
1	11707	588160.917213491442	109.02685719345
1	11712	588426.029773365617	350.20497229614
1	11749	591326.273419121053	0
1	11786	592703.716880770868	167.59390130255
1	11794	592978.019413761021	39.297473855069
1	11809	594818.359947757014	0
1	11826	595618.63332865713	0
1	11835	595975.299433997521	0
1	11851	596567.673703982064	35.344681891662
1	11869	598069.783524744126	0
1	11890	599401.477805496701	273.54810678977
1	11898	599739.426867866827	341.4488187451
1	11904	600023.652079929714	396.01678934135
1	11926	600454.746611002833	127.85146952448
1	11934	600760.892684387952	234.86059402363
1	12005	605104.700261824949	214.83148518843
1	12014	605660.436518958205	0
1	12023	606313.81038194543	0
1	12032	607488.008263228326	0
1	12050	608910.046745234934	66.952300285064
1	12085	611910.100551984963	72.460322454893
1	12102	612736.845013601241	137.61035954823
1	12111	613308.245327898327	0
1	12120	613921.934392610189	0
1	12129	615030.75047586497	0
1	12138	615479.513629250953	0
1	12154	616246.701947401199	0
1	12169	616553.086524883703	207.20479728648
1	12180	616872.857503428692	524.25611313457
1	12192	617170.494486142175	326.19621632158
1	12197	617414.467587332405	334.50164692755
1	12205	617762.940693531575	173.14849175491
1	12233	618936.044849406689	113.66204316816
1	12244	619254.673222450779	51.469555663829
1	12258	619838.363579023021	287.51630477343
1	12348	624804.230252162875	0
1	12359	626653.835202912599	0
1	12367	626923.648124504441	190.28684174157
1	12376	627834.192652844303	0
1	12384	628119.270796125451	226.54321885361
1	12393	628575.521498868199	0
1	12404	628878.706122805419	238.84222231389
1	12413	629218.910835578986	487.83924729999
1	12421	629534.822765582385	170.00860398435
1	12432	629840.716274651612	238.14566265581
1	12438	630146.787993515586	479.33395364635
1	12454	630766.717156718374	37.881367359484
1	12471	631347.071507748756	173.05553594085
1	12519	632895.333234542454	138.46697937348
1	12527	633183.473688668885	314.18417230995
1	12536	633455.159984736414	407.52853592228
1	12544	633789.503038800084	142.43030467469
1	12569	634636.010791871718	120.11835532806
1	12586	635208.312580703365	3.194155953363
1	12619	636406.684526970125	108.42290784114
1	12630	636665.904623315392	319.75882362317
1	12642	636946.531355396835	328.80964011617
1	12647	637226.454395088722	281.1947552874
1	12674	638479.511933239798	224.56784900529
1	12686	638835.129840674646	254.30004356131
1	12713	640093.289289593399	10.015991019492
1	12736	640788.442016525895	217.58296192926
1	12758	641692.85666012628	158.24019552884
1	12777	642579.214446553105	186.05909715456
1	12811	644179.082255002385	0
1	12819	644497.812919457264	15.384949861232
1	12828	645035.409147514621	0
1	12845	645614.531205065365	196.51501611283
1	12853	645971.914702900831	0
1	12876	646543.250119846422	177.05429011767
1	12881	646859.908418814412	317.28920194497
1	12890	647171.225375747896	166.83827593584
1	12898	647467.079080419226	65.071751462322
1	12937	649220.532736210804	0
1	12962	650365.671426191006	0
1	12977	650696.118412703399	140.0176410675
1	12988	651037.669374248656	405.10621791565
1	12999	651302.89509122466	379.88455368287
1	13024	652518.933690312337	110.16033776288
1	13035	652756.288374421	233.67575996434
1	13040	653029.933292775062	479.954923978
1	13049	653353.515743967683	221.54526175824
1	13074	654306.662517560622	68.559192104631
1	13110	655606.554021411248	93.697644539182
1	13119	655916.908197421021	335.94197494927
1	13152	657062.921559982771	221.61804735839
1	13160	657333.150911249371	275.28252853645
1	13169	657621.184566991424	196.57398454392
1	13191	658604.63099216205	247.69249464355
1	13205	659667.341279232312	0
1	13219	659987.908360512434	178.91173786578
1	13228	660269.922003455513	402.67948551163
1	13253	661282.560886849209	353.8615791306
1	13289	663380.073331729101	0
1	13301	663676.802789342673	100.10592690839
1	13312	663930.934571523802	167.42103969202
1	13340	665373.764885608029	0
1	13357	666334.862102877451	0
1	13365	666687.57783031509	0
1	13399	668580.666116884445	0
1	13411	668912.081117130002	107.10421150704
1	13419	669187.086294024645	258.51737147294
1	13441	670158.989249094587	3.257552325614
1	13459	671565.662436231307	0
1	13468	672091.60991123904	0
1	13476	672597.131655225033	0
1	13501	673558.80427174547	0
1	13519	673901.477613151287	105.20425681283
1	13527	674236.691401184774	341.59510694593
1	13532	674452.99410901754	369.91573068246
1	13541	674730.506188494248	199.98051677293
1	13549	675047.244451910261	24.307497230639
1	13560	675431.471543378578	202.17861125801
1	13569	675691.301031028126	281.27254054198
1	13602	677188.179910036131	262.36292247284
1	13633	678159.812129273137	147.95345301372
1	13694	680774.553303794099	0
1	13705	681050.828344781482	61.019639786925
1	13716	681368.181552550429	210.47338790204
1	13725	681662.202285736404	418.55386434172
1	13730	681962.85886905865	468.24268424208
1	13738	682248.971767523838	192.36742086106
1	13804	686239.088427613915	227.68058186976
1	13812	686548.870430284633	158.77015528747
1	13849	690577.487236128467	0
1	13860	692723.778098662389	0
1	13869	694293.609349736825	0
1	13884	694627.59734675784	302.54436451104
1	13889	694947.982092633294	485.45983985203
1	13904	696190.283332125428	0
1	13912	696528.885029135525	0
1	13929	697199.201335105987	297.03437423566
1	13937	697501.775185870943	160.40247762304
1	13966	698709.473594731916	68.825929954875
1	13974	698987.089471125628	45.970097047799
1	14008	700809.101452832994	212.60909775152
1	14013	701137.946344212211	455.84175025656
1	14039	702109.589746579626	0
1	14056	702905.782377670449	174.78000321538
1	14067	703273.232861445436	67.550572412318
1	14081	703852.025733439224	220.08556390335
1	14089	704265.563509339935	0
1	14097	704571.740453747981	114.30672671959
1	14109	704875.690169151203	107.37207224614
1	14140	706637.241079052476	31.760186958937
1	14180	708464.024468328007	241.35935016566
1	14191	708777.42487839523	283.31146224221
1	14200	709118.461251512624	227.02824909017
1	14208	709422.399305715253	84.851271362916
1	14222	709983.506135314712	217.76543108283
1	14252	711122.462970778083	155.21392643475
1	14257	711407.252185095941	402.84661852745
1	14266	711690.277203723191	122.26815655583
1	14275	712642.24282544114	0
1	14311	713843.022444010512	144.17567974789
1	14333	714772.787865394434	0
1	14367	716401.622473163652	0
1	14376	716752.103737417356	0
1	14387	717056.409907390786	195.82821226362
1	14401	717973.596595967733	0
1	14418	718641.49620240831	103.24839239139
1	14435	719262.250090261381	308.20695100368
1	14455	720486.220429425097	163.07909043192
1	14466	720775.480787624265	222.75370570706
1	14480	721329.797697166529	181.06557051161
1	14497	721931.199193347126	180.06816385623
1	14545	724550.951664612343	7.670364071558
1	14553	724869.037863369165	32.132595248784
1	14579	726578.806615878633	288.9683952578
1	14589	727823.07995740408	0
1	14603	728146.4738478225	79.645300212368
1	14611	728427.368591868919	314.91548389362
1	14620	728705.016131778537	415.20039304596
1	14628	729040.115503261881	436.23379833785
1	14648	730946.741985499379	0
1	14680	732213.551948583853	275.42489208792
1	14725	735384.029491769843	0
1	14734	735679.648891795454	16.591315019661
1	14753	738092.974483431913	0
1	14761	738406.734108056286	144.31926650317
1	14770	738942.654346392886	0
1	14795	740105.384422512128	117.62004257383
1	14804	740785.002215188906	0
1	14812	741075.126982325191	22.087231374779
1	14821	741736.738956926283	0
1	14829	742053.136926667895	247.73619740434
1	14875	744244.712288215563	213.04911579812
1	14883	744490.383847378048	445.66954926001
1	14905	745286.210906859858	198.59482751599
1	14916	745567.627588516732	208.96586884821
1	14925	745879.404005367385	519.01034980247
1	14947	747083.824800493166	0
1	14976	748459.998053680952	107.80722760886
1	14984	748796.534025940525	431.04468447774
1	14993	749165.113455109648	382.07482985779
1	15004	749422.58708083299	389.4068540266
1	15015	749743.225684285174	496.54261290948
1	15024	750043.050917522003	617.28918438931
1	15040	750676.644591210228	313.48549988206
1	15049	750973.382119073694	122.32905106976
1	15081	752367.271440839176	59.347395219624
1	15124	753714.843886077749	333.80022753495
1	15132	754035.582605242046	628.86866731499
1	15144	754396.567222265958	745.11744779306
1	15155	754707.095528916946	678.48543641636
1	15163	755042.291218707587	742.97635671283
1	15169	755356.542178357432	681.54333070382
1	15177	755669.599163983852	194.64437251668
1	15191	756236.811910776589	178.78868520417
1	15221	757450.039011347553	227.80549155499
1	15232	757697.791704846932	277.60079637041
1	15252	758227.306219833348	54.40051464534
1	15257	758476.673251561449	273.22232613423
1	15297	759571.282479023916	40.706333905834
1	15308	759886.201894129101	221.96206900534
1	15316	760191.659656712108	470.72162352951
1	15322	760485.32194684508	298.36716662036
1	15330	760814.129988630216	124.15761220506
1	15347	761419.426609438013	186.02896470264
1	15355	761716.866850055786	31.68128478878
1	15381	762332.968238171722	197.29155966427
1	15386	762632.070670524808	320.36677643411
1	15447	765052.378067717083	292.18379221475
1	15455	765358.053893272724	223.59831094228
1	15502	767145.993145990336	245.18401222735
1	15532	768692.319041844233	0
1	15558	770048.551295855351	0
1	15575	770743.297273180834	198.9561842767
1	15583	771039.988669564383	41.791609824509
1	15592	772013.079174883009	0
[...]
7	15314	760191.659656712108	6
7	15320	760485.32194684508	7
7	15328	760814.129988630216	8
7	15333	761131.192166966087	9
7	15341	761259.458973184965	8
7	15353	761716.866850055786	9
7	15357	761823.393428130883	8
7	15362	762030.358992327956	9
7	15369	762190.167642183851	8
7	15372	762235.550734888738	7
7	15384	762632.070670524808	8
7	15388	762814.340672705062	7
7	15393	762957.513347382537	8
7	15407	763604.503727576141	7
7	15421	764273.630094489034	6
7	15430	764698.267462643181	5
7	15441	764825.962790119224	4
7	15453	765358.053893272724	5
7	15457	765418.571148352972	4
7	15461	765565.13708860064	3
7	15465	765663.499917998515	4
7	15474	766041.187675997793	3
7	15477	766095.292107920814	2
7	15506	767467.000228098052	3
7	15536	769026.03067649602	4
7	15538	769257.519221806273	3
7	15546	769553.76462343261	2
7	15561	770344.786430845137	3
7	15563	770458.650108505346	2
7	15581	771039.988669564383	3
7	15586	771365.707324891965	4
7	15594	772240.79502832635	3
7	15599	772314.313873019317	4
7	15613	773483.110435006835	5
7	15622	774084.872252989162	6
7	15624	774105.797532143067	5
7	15646	774685.352689605165	4
7	15650	774733.673390051889	5
7	15656	775042.283512759238	6
7	15660	775159.306744190367	5
7	15666	775352.384452280223	4
7	15670	775353.506195604925	5
7	15678	775655.852298886452	6
7	15687	775887.409300688252	7
7	15692	776160.604614507498	8
7	15697	776401.831879282293	9
7	15711	776997.962587285172	10
7	15721	777472.075344453336	9
7	15729	777660.972870960246	8
7	15741	778210.466671527507	9
7	15749	778458.094088104674	8
7	15752	778499.942443555189	7
7	15755	778521.523157873747	6
7	15763	778745.060470270263	5
7	15767	778811.233423739632	6
7	15777	779216.8905627237	5
7	15780	779254.881491423586	4
7	15793	779822.595849630612	3
7	15807	780399.467248591542	2
7	15828	781231.303036453487	3
7	15832	781372.484353733759	2
7	15836	781502.797299900951	3
7	15850	782109.23491609775	4
7	15863	782609.603270951024	3
7	15867	782864.404732344214	4
7	15881	783867.891416054656	5
7	15884	784768.146266185232	4
7	15899	785444.062750603194	5
7	15901	785450.335322321196	4
7	15909	785796.159258592605	3
7	15924	786338.743937362064	4
7	15931	786451.394353376299	3
7	15935	786719.025106304874	4
7	15951	787373.622785642555	3
7	15955	787565.896604120494	4
7	15961	787864.267916312654	5
7	15974	788529.418080538039	6
7	15983	789128.089748515987	7
7	15985	789142.427323041075	6
7	15999	789657.16163210422	5
7	16003	789834.769906159084	6
7	16015	790169.483145988906	5
7	16020	790405.520958299802	6
7	16033	791314.637757651711	5
7	16037	791508.288428667478	6
7	16049	791850.044282762667	5
7	16052	792009.626788293988	4
7	16057	792098.333706442852	5
7	16069	792772.483216676949	4
7	16078	793507.858261497006	3
7	16087	793968.964695340131	2
7	16102	794618.697501946492	3
7	16110	794962.386638830401	4
7	16112	795047.649798561107	3
7	16127	795573.319564111412	4
7	16129	795821.748366884069	3
7	16147	796859.195635779805	4
7	16153	797174.179759371844	5
7	16160	797939.569904935648	4
7	16165	798257.054176866567	5
7	16169	798267.883024689948	4
7	16181	798799.050336566742	5
7	16195	799436.22946766252	6
7	16197	799559.201122618294	5
7	16212	800123.719668276157	6
7	16215	800630.901586276785	5
7	16228	801030.797159700926	4
7	16235	801197.23037491197	5
7	16244	801547.821646431421	6
7	16248	801816.380291322391	5
7	16252	801829.73296466988	6
7	16271	802715.308266068848	7
7	16273	802875.482615527831	6
7	16278	802962.729034298243	5
7	16290	803828.832511208498	4
7	16304	804159.712558556255	3
7	16308	804424.776669056404	4
7	16325	805037.570791203724	5
7	16329	805136.397818313536	4
7	16332	805305.559581407252	3
7	16336	805325.691527149909	4
7	16350	805968.002821397571	5
7	16362	806575.475208916009	4
7	16367	806753.650516801834	5
7	16375	808104.748801498226	4
7	16384	808538.949776145426	3
7	16392	809142.178453334672	2
7	16401	809685.105851236056	1
7	16419	810305.607186303243	2
7	16423	810376.591753917207	1
7	16427	810579.395900882016	2
7	16442	812192.227140132789	3
7	16450	812498.879275409007	4
7	16459	813140.309600639852	5
7	16462	814026.66068429013	4
7	16467	814243.176766268584	3
7	16480	815385.67089845344	2
7	16488	815976.254729422962	1
7	16497	816830.277705925637	0
7	16513	817911.65133747717	1
7	16523	819916.091298188087	2
7	16533	821276.367142212981	3
7	16540	821701.213329950326	2
7	16544	821851.908831849436	3
7	16558	822367.848750166827	4
7	16561	823554.642288108982	3
7	16576	824180.321095060908	4
7	16587	824841.96043937187	3
7	16591	824864.132095927211	4
7	16596	825189.155394766614	5
7	16613	825712.692684560195	6
7	16618	825986.683417333779	7
7	16630	826328.38408374259	8
7	16634	826360.396792797768	7
7	16637	826431.384419794548	6
7	16641	826616.469025859849	7
7	16660	827610.924218461798	8
7	16662	827844.19231862683	7
7	16671	828507.64120583733	6
7	16680	828889.113163458401	5
7	16693	829273.745074893381	4
7	16696	829381.374671338438	3
7	16700	829501.038340395462	4
7	16704	829558.149890493848	3
7	16713	830065.65115207009	2
7	16727	830638.287692241701	1
7	16740	832852.94741696962	0
7	16756	834085.955907112949	1
7	16764	834476.088238727305	2
7	16778	836849.917103104891	3
7	16783	837148.111411013218	4
7	16786	837567.302643710999	3
7	16799	837953.943781887221	2
7	16803	838099.824066613157	3
7	16818	839355.216754260713	4
7	16825	839870.758895935901	3
7	16829	839912.259174060153	4
7	16838	841002.620056610803	3
7	16847	841764.111516581393	2
7	16861	842452.600469054762	3
7	16864	843161.526922086284	2
7	16873	843484.308654948096	1
7	16887	844063.976448452961	2
7	16897	846583.894331958043	1
7	16901	846623.896553785529	2
7	16915	847395.402429761278	3
7	16917	847484.633213755234	2
7	16938	848508.783163933131	3
7	16950	848839.226380028081	4
7	16955	849148.978390769491	5
7	16961	849510.874890378896	6
7	16966	849808.577624132969	7
7	16974	850678.454590275184	6
7	16977	850715.513866135393	5
7	16981	850965.952016750451	6
7	16991	851481.89616669562	5
7	17003	852140.936544147	4
7	17017	852819.546367035548	5
7	17025	853025.891525679165	4
7	17034	853261.653989924791	3
7	17037	853290.489946010375	2
7	17041	853299.14233750642	3
7	17046	853572.297514937762	4
7	17058	853847.896095717691	5
7	17063	854137.938724291175	6
7	17068	854416.550567179526	7
7	17090	854943.742312422226	6
7	17094	855058.126421962273	7
7	17099	855383.619434877138	8
7	17111	855715.864154050751	9
7	17119	855997.684319731683	10
7	17123	856121.443000493937	9
7	17130	856301.875295945386	10
7	17136	856584.828625127243	11
7	17141	856895.48374608472	12
7	17145	856994.955555640823	11
7	17150	857239.290222917439	12
7	17154	857534.984761170261	11
7	17165	857720.345881672253	10
7	17171	857859.83152441329	9
7	17184	858233.600635678642	10
7	17188	858397.530240843591	9
7	17192	858490.294833207632	10
7	17200	858801.670810134417	11
7	17206	859089.900644020079	12
7	17221	859486.731159277023	11
7	17224	859621.963203394875	10
7	17227	859625.501452116436	9
7	17230	859693.594996574152	8
7	17234	859713.343351379689	9
7	17238	859717.817806020902	8
7	17242	860010.304092408672	7
7	17246	860046.463057534002	8
7	17256	860614.569563079447	7
7	17264	860873.307458423593	6
7	17286	861614.651903009533	5
7	17290	861777.535959238231	6
7	17305	862255.763788775458	5
7	17310	862431.263671952704	6
7	17314	862492.23873328383	5
7	17317	862613.998541632838	4
7	17321	862769.75678920307	5
7	17340	863174.048673193711	4
7	17344	863284.096048851984	5
7	17348	863402.270111932203	4
7	17352	863551.571650343482	5
7	17360	863820.309329894061	6
7	17372	864075.472256044708	7
7	17377	864377.903728953567	8
7	17385	864699.324641812021	9
7	17391	864980.725393773484	10
7	17405	865566.202716805338	9
7	17414	866131.634245377448	8
7	17430	866554.436331045472	7
7	17438	866759.736207694593	8
7	17442	866840.757090502802	7
7	17448	866992.177176825331	6
7	17452	867083.596407418741	7
7	17456	867141.108963498941	6
7	17463	867395.097630603671	7
7	17468	867534.611266179883	6
7	17475	867741.11684028403	7
7	17483	868079.749274629369	8
7	17487	868281.705781826957	7
7	17492	868383.450661242179	8
7	17496	868540.464479727906	7
7	17499	868665.522701896349	6
7	17511	869087.472670865043	7
7	17525	869686.781000748466	8
7	17542	870335.602790311252	9
7	17546	870494.210489346389	8
7	17550	870616.322906927102	9
7	17554	870644.858895927014	8
7	17560	870804.635250052443	7
7	17570	871226.292472529618	8
7	17574	871356.519098188448	7
7	17583	871780.557244822624	6
7	17591	871977.318573893395	5
7	17599	872381.374508672046	4
7	17620	873012.960302185237	5
7	17624	873209.710329266467	4
7	17628	873294.36907025066	5
7	17633	873509.586697737913	4
7	17651	874219.286481666796	3
7	17660	874743.10973470829	2
7	17678	875433.120728861142	3
7	17697	876406.544086000589	4
7	17710	877024.597167304949	3
7	17719	877386.423807686339	4
7	17723	877462.170946597134	3
7	17751	878652.67866859341	2
7	17758	878826.973183171489	3
7	17763	879149.864886633632	4
7	17785	880119.31056843474	5
7	17789	880271.073778886612	4
7	17794	880409.961539299736	5
7	17803	880787.749232867744	4
7	17819	881369.210819125558	5
7	17824	881685.931855565702	6
7	17842	882409.896298879168	5
7	17846	882533.160533399023	6
7	17856	883097.966841855711	5
7	17872	883582.924982762062	4
7	17885	884004.411533513399	5
7	17889	884094.589308920507	4
7	17893	884306.439912134687	5
7	17903	884699.189988051405	4
7	17928	885623.477431011845	3
7	17932	885823.052157694571	4
7	17936	885930.933528550303	3
7	17940	886104.086312058022	4
7	17961	887226.649336647782	3
7	17977	887935.117809265556	2
7	17981	887968.188467639765	3
7	17990	889051.795260548309	2
7	17998	889607.196124733637	1
7	18013	890212.371066330732	2
7	18021	890678.165441655874	1
7	18028	890890.340004295306	2
7	18039	891186.289922410669	3
7	18048	891520.694864900076	4
7	18053	891792.995645268253	5
7	18058	892098.457433005262	6
7	18067	893569.609894563255	5
7	18076	894198.23533381571	4
7	18091	895223.634335962607	5
7	18093	895334.723992647234	4
7	18098	895350.970715863742	3
7	18106	895656.061332353374	2
7	18109	895708.419568662394	1
7	18133	898027.667431378747	0
7	18137	898199.72233374211	1
7	18151	899101.429802760357	2
7	18161	900554.948067719699	3
7	18171	901853.490874807093	4
7	18173	902008.553969717727	3
7	18188	902809.402951480751	4
7	18196	903175.485819495768	5
7	18205	903505.047669222605	6
7	18207	903507.473612632488	5
7	18221	904114.790748841862	6
7	18229	904319.441243939872	5
7	18236	904437.683139473546	6
7	18241	904692.307621373059	7
7	18248	904985.619572351152	6
7	18263	905525.405382441114	7
7	18272	906179.798727365791	8
7	18274	906189.06669763223	7
7	18290	906752.270987563365	6
7	18294	906796.639189541245	7
7	18300	907040.950569006535	8
7	18304	907319.027562001175	7
7	18316	907995.285168716016	6
7	18321	908020.401340805585	5
7	18324	908203.074051403156	4
7	18346	908987.205987046719	3
7	18356	909264.867192504031	4
7	18371	909543.2625178477	5
7	18375	909718.814583258384	4
7	18379	909862.862261970324	5
7	18384	910159.194036530941	6
7	18389	910399.33446234011	5
7	18393	910436.643068393599	6
7	18397	910470.096046985001	5
7	18401	910753.626287567907	6
7	18425	912829.361857585313	5
7	18439	913248.31686149955	4
7	18442	913284.660312918297	3
7	18445	913332.969139741798	2
7	18449	913483.484368995925	3
7	18473	914306.0363025237	2
7	18483	914674.499210808267	3
7	18487	914695.822151334393	2
7	18491	914906.230151076331	3
7	18496	915191.794002287916	4
7	18510	915869.686559890365	5
7	18524	916760.668335460415	6
7	18532	917152.04062238123	7
7	18535	917273.928838111719	6
7	18549	917888.592682176922	7
7	18560	918311.632397651984	6
7	18564	918421.918628502653	7
7	18568	918443.300114207278	6
7	18571	918497.779895119292	5
7	18575	918683.877868951054	6
7	18599	919795.118915369007	5
7	18603	920054.348765293701	6
7	18607	920305.290543919986	5
7	18624	920828.799107701244	4
7	18628	920945.220889240468	5
7	18642	921481.557987502855	6
7	18644	921572.156948971304	5
7	18649	921676.585849553696	4
7	18665	922232.511887701802	3
7	18673	922517.182117052832	4
7	18678	922885.333121857239	5
7	18686	923174.330103790591	4
7	18695	923457.500439206699	5
7	18712	924073.128225530184	6
7	18717	924370.973497993052	7
7	18719	924689.692847564195	6
7	18734	925257.817275638942	7
7	18736	925497.841632476502	6
7	18750	926190.362520002467	5
7	18756	926300.567249846209	4
7	18760	926459.955266827582	5
7	18768	926610.660640420721	4
7	18772	926777.184051312532	5
7	18777	927061.901156754258	6
7	18786	927402.434113012297	5
7	18809	928332.620733083648	4
7	18813	928515.589745526905	5
7	18817	928696.096584439478	4
7	18829	929846.050580435647	3
7	18838	930786.688349647804	2
7	18852	931135.185338601886	1
7	18856	931320.134584877155	2
7	18864	931765.651083585102	1
7	18881	932292.978814489153	2
7	18887	932607.637373953766	3
7	18895	933233.114186622557	4
7	18904	934076.208851995809	5
7	18907	934677.770633471936	4
7	18922	935671.571189801234	5
7	18924	935850.891405780018	4
7	18939	936409.274080194121	5
7	18946	936669.257206359228	4
7	18957	936925.935635396116	5
7	18962	937225.1505043998	6
7	18966	937253.633252236438	5
7	18970	937490.056466162695	6
7	18977	937551.690889523416	5
7	18990	938073.683146656895	6
7	18995	938422.61504257653	7
7	19008	939273.738663966175	6
7	19013	939314.271070836174	5
7	19029	939905.720205426346	6
7	19034	940164.167522620285	7
7	19042	940497.521656749739	6
7	19047	940661.733237226433	5
7	19055	941067.181586644807	4
7	19058	941126.519713328311	3
7	19075	941753.76924667462	2
7	19085	942994.169582402354	1
7	19093	943702.94872350769	0
7	19112	944853.768250319874	1
7	19117	945143.436166654113	2
7	19126	945570.744302540055	3
7	19137	946000.440930795906	4
7	19142	946301.658682616998	5
7	19151	946867.446290824689	6
7	19164	948335.828490528814	7
7	19171	948630.845708146867	6
7	19174	948688.235238548699	5
7	19178	948702.630918951839	6
7	19187	949022.799541421788	7
7	19192	949341.605869939229	8
7	19208	949769.638548591708	7
7	19211	949818.117639402602	6
7	19215	949958.526864875487	7
7	19219	950139.065675889788	6
7	19222	950162.240973307831	5
7	19226	950255.752171708883	6
7	19245	951207.331388881567	7
7	19258	951810.191116368814	6
7	19262	951846.007562271269	7
7	19285	952931.352802864378	6
7	19289	953046.416261761577	7
7	19293	953084.798148748665	6
7	19296	953092.193573746747	5
7	19305	953540.565576847858	4
7	19308	953562.641805205914	3
7	19334	954577.228008338441	4
7	19338	954694.960260069812	3
7	19346	954898.597434853803	4
7	19353	955098.334572992043	3
7	19360	955172.483294929964	4
7	19365	955467.922470130183	5
7	19371	955757.529919418755	6
7	19389	956687.37528829104	5
7	19406	957328.593255022297	6
7	19412	957604.838420340286	7
7	19420	958000.131915744513	8
7	19423	958376.438227527597	7
7	19428	958524.659827539002	6
7	19439	958744.657151829957	5
7	19442	958796.410876755195	4
7	19450	958939.270576293012	3
7	19455	959237.042887864892	4
7	19482	960369.102681191571	5
7	19490	960684.850385899678	6
7	19494	960766.398339160184	5
7	19499	960977.16204363762	6
7	19514	961464.759187890602	5
7	19518	961700.822084404571	6
7	19524	961994.929732472924	7
7	19528	962258.936092656092	6
7	19546	962964.086301280693	7
7	19553	963346.859536053718	6
7	19557	963407.108015494977	7
7	19565	963747.722002384855	6
7	19574	964577.613874341293	5
7	19579	964780.788571313472	4
7	19587	965015.763838760021	3
7	19599	965582.51097514974	2
7	19614	966622.808885356887	3
7	19616	966826.457318116571	2
7	19630	967360.200182684761	1
7	19634	967400.735062498358	2
7	19652	968820.857169465264	3
7	19657	969161.435078508507	4
7	19669	969750.60725117736	5
7	19674	970045.205623456093	6
7	19676	970059.353026399529	5
7	19685	971072.727299587928	4
7	19700	971841.121283780135	5
7	19708	972451.256982366315	4
7	19718	972716.283658608379	5
7	19723	972944.051407012916	4
7	19727	973009.006966594359	5
7	19732	973256.751364739191	6
7	19748	973769.20052552927	5
7	19751	973774.289180829944	4
7	19763	974128.203856086761	5
7	19771	974407.260532571331	6
7	19777	974688.533422225325	7
7	19782	974997.049628659187	8
7	19798	975596.667937238894	7
7	19802	975656.121792054091	8
7	19807	975954.658201425886	9
7	19811	976167.814246102842	8
7	19820	976516.950717385371	7
7	19828	976846.711096682793	6
7	19852	977445.942989936471	7
7	19857	977738.854409375294	8
7	19866	978024.11465179241	9
7	19870	978097.35280974251	8
7	19873	978278.811285642276	7
7	19877	978314.168700326645	8
7	19881	978340.009374855845	7
7	19892	978851.614689977532	6
7	19896	978890.304732988968	5
7	19900	978970.498326292866	6
7	19913	979583.62813208699	7
7	19921	979793.604362015884	6
7	19930	980243.807035613511	7
7	19945	981198.128269054263	6
7	19956	981426.15759837496	5
7	19968	981651.316650842378	4
7	19972	981815.050589192723	5
7	19976	981887.598024178736	4
7	19979	981936.542306538506	3
7	19983	982064.271625366109	4
7	20011	983213.482315977284	5
7	20015	983493.407382162824	4
7	20019	983532.179553852684	5
7	20028	983945.802479298599	4
7	20046	984708.997158803226	5
7	20054	985437.2521765259	4
7	20074	985971.667339943281	3
7	20078	986074.21598876848	4
7	20083	986307.056297752167	5
7	20089	986618.093630582627	6
7	20093	986889.06833341779	5
7	20101	987063.366734512218	4
7	20113	987913.638408213747	3
7	20128	988497.431151313899	4
7	20130	989015.432303900159	3
7	20148	989665.099530644493	4
7	20152	989690.180387994089	3
7	20159	989913.915797487577	4
7	20163	989994.157717578541	3
7	20168	990218.738743783786	4
7	20188	992048.274904778672	5
7	20190	992084.545197765807	4
7	20211	992676.402875157921	5
7	20216	992949.545943189677	6
7	20220	993105.041031787635	5
7	20224	993305.421276322673	6
7	20229	993479.828978275367	5
7	20245	994001.569806241198	4
7	20249	994189.039071550745	5
7	20263	994734.775868397078	6
7	20271	995944.315440072261	5
7	20279	996203.435806059153	6
7	20284	996532.256243674391	7
7	20292	996927.51572979538	6
7	20305	997329.275678723047	5
7	20309	997512.645808550754	6
7	20313	997530.969318561506	5
7	20322	997824.837585607653	4
7	20330	998228.00906961002	3
7	20348	999230.408173441749	4
7	20357	999585.055019913567	5
7	20359	999635.347315378089	4
7	20364	999709.047174967035	3
7	20381	1000968.430629133718	2
7	20389	1001193.541489788131	3
7	20394	1001537.740688903252	4
7	20408	1002203.724941688764	5
7	20411	1002974.111261138522	4
7	20419	1003366.652122481621	3
7	20428	1004512.830027676493	2
7	20446	1005384.84393777375	3
7	20454	1005627.52210504311	2
7	20458	1005666.217586944311	3
7	20466	1005980.116649550657	4
7	20470	1006216.041841774031	3
7	20475	1006306.232381764456	4
7	20489	1008541.220830986183	3
7	20494	1008870.401741327227	2
7	20503	1008949.886278541789	1
7	20515	1009420.597046537702	2
7	20529	1010315.820191489698	3
7	20531	1010363.611937060078	2
7	20546	1010956.925558969523	3
7	20555	1012178.854057140306	4
7	20558	1012814.62391714989	3
7	20568	1014194.455063505785	2
7	20573	1014407.288862899797	1
7	20591	1015122.15990212986	2
7	20594	1016106.535796037041	1
7	20609	1017416.978871628824	2
7	20624	1018186.885753467973	3
7	20630	1018481.07059569012	4
7	20641	1018767.493987706449	5
7	20649	1019113.143238349567	6
7	20654	1019184.582533267808	5
7	20658	1019444.199968708741	6
7	20666	1019711.421863460982	7
7	20672	1020039.373046139821	8
7	20685	1020696.917653665595	9
7	20688	1021157.821334246812	8
7	20701	1021672.249714456252	7
7	20706	1021746.309367103537	8
7	20713	1021900.911072054334	7
7	20722	1022326.455267926015	8
7	20726	1022504.469692468134	7
7	20735	1022775.412708257046	6
7	20743	1023073.858704214939	5
7	20752	1023456.32872897385	4
7	20768	1023794.063902542391	3
7	20772	1024083.184297632708	4
7	20788	1024586.135266822794	3
7	20792	1024678.596933264944	4
7	20799	1024963.565490838117	3
7	20803	1025010.980755120703	4
7	20809	1025350.046637195348	5
7	20830	1026024.379986519554	4
7	20834	1026230.566904306938	5
7	20839	1026518.402552907314	6
7	20854	1027881.367317578034	7
7	20856	1027920.475882172216	6
7	20861	1027986.901485356957	5
7	20869	1028222.727091908065	4
7	20882	1028722.454906372815	5
7	20889	1029120.121887963203	4
7	20898	1029465.950002116129	3
7	20906	1029759.525653805556	2
7	20921	1030754.551264582671	3
7	20924	1031692.434879044401	2
7	20933	1032101.809403311021	1
7	20949	1033743.788440494517	2
7	20956	1034291.620991032211	1
7	20960	1034317.127588976038	2
7	20976	1036620.280452292418	3
