<<<<<<< HEAD
file 358674 1483715106                                          
version 2
run ParkingMeasurement-27-20170106-02:05:01-12652
attr configname ParkingMeasurement
attr datetime 20170106-02:05:01
attr experiment ParkingMeasurement
attr inifile parkingStudy.ini
attr iterationvars ""
attr iterationvars2 $repetition=27
attr measurement ""
attr network SimNetwork
attr processid 12652
attr repetition 27
attr replication #27
attr resultdir results
attr runnumber 27
attr seedset 27
param SimNetwork.a.parkingLot.parkingDelay "truncnormal(60min, 6min)"
param SimNetwork.a.runway.landingTime "truncnormal(5min, 0.5min)"
param SimNetwork.a.runway.takeoffTime "truncnormal(5min, 0.5min)"
param SimNetwork.a.runway.throughputCheckInterval 14.286min
param SimNetwork.wg.interArrivalTime exponential(14.286min)
vector 2  SimNetwork.a.landingQueue  queueLength:vector  ETV
attr source queueLengthSignal
2	88692 62299 2404 20363 121063.640597087842 1035376.902207484587 2112 0 4 1450 1972
vector 0  SimNetwork.wg  responseTime:vector  ETV
attr source responseTimeSignal
0	1464 45932 2407 20375 121095.21452175926 1036015.164775793746 1058 3285.163638886 11098.032916194 6200801.5919333 37914244597.848
vector 1  SimNetwork.a.landingQueue  queueTime:vector  ETV
attr source queueTimeSignal
1	47396 41296 2409 20363 121095.21452175926 1035376.902207484587 1056 0 1049.5512603008 167815.65524311 58695466.780326
vector 7  SimNetwork.a.parkingLot  parkingOccupancy:vector  ETV
attr source parkingOccupancy
7	296291 62383 2411 20370 121260.6800920433 1035655.004536414748 2113 0 13 9750 54368
vector 4  SimNetwork.a.takeoffQueue  queueLength:vector  ETV
attr source queueLengthSignal
4	192613 62390 2412 20372 121260.6800920433 1035655.004536414748 2114 0 11 2817 10121
vector 3  SimNetwork.a.takeoffQueue  queueTime:vector  ETV
attr source queueTimeSignal
3	150991 41622 2417 20372 121373.488509699457 1035655.004536414748 1057 0 6234.5029313751 685799.86064514 1459103435.0875
vector 5  SimNetwork.a.runway  landedThroughput:vector  ETV
attr source landedThroughputSignal
5	255003 20644 2427 20377 121716.72 1036306.44 1068 0 4 1056 1908
vector 6  SimNetwork.a.runway  tookoffThroughput:vector  ETV
attr source tookoffThroughputSignal
6	275647 20644 2427 20377 121716.72 1036306.44 1068 0 3 1058 1878
=======
file 358685 1483892971                                          
version 2
run ParkingMeasurement-27-20170108-17:29:31-5042
attr configname ParkingMeasurement
attr datetime 20170108-17:29:31
attr experiment ParkingMeasurement
attr inifile parkingStudy.ini
attr iterationvars ""
attr iterationvars2 $repetition=27
attr measurement ""
attr network controltower.SimNetwork
attr processid 5042
attr repetition 27
attr replication #27
attr resultdir results
attr runnumber 27
attr seedset 27
param SimNetwork.a.parkingLot.parkingDelay "truncnormal(60min, 6min)"
param SimNetwork.a.runway.landingTime "truncnormal(5min, 0.5min)"
param SimNetwork.a.runway.takeoffTime "truncnormal(5min, 0.5min)"
param SimNetwork.a.runway.throughputCheckInterval 14.286min
param SimNetwork.wg.interArrivalTime exponential(14.286min)

vector 2  SimNetwork.a.landingQueue  queueLength:vector  ETV
attr source  queueLengthSignal
vector 0  SimNetwork.wg  responseTime:vector  ETV
attr source  responseTimeSignal
vector 1  SimNetwork.a.landingQueue  queueTime:vector  ETV
attr source  queueTimeSignal
vector 7  SimNetwork.a.parkingLot  parkingOccupancy:vector  ETV
attr source  parkingOccupancy
vector 4  SimNetwork.a.takeoffQueue  queueLength:vector  ETV
attr source  queueLengthSignal
vector 3  SimNetwork.a.takeoffQueue  queueTime:vector  ETV
attr source  queueTimeSignal
vector 5  SimNetwork.a.runway  landedThroughput:vector  ETV
attr source  landedThroughputSignal
vector 6  SimNetwork.a.runway  tookoffThroughput:vector  ETV
attr source  tookoffThroughputSignal
0	1475 45932 2407 20375 121095.21452175926 1036015.164775793746 1058 3285.163638886 11098.032916194 6200801.5919333 37914244597.848
1	47407 41296 2409 20363 121095.21452175926 1035376.902207484587 1056 0 1049.5512603008 167815.65524311 58695466.780326
2	88703 62299 2404 20363 121063.640597087842 1035376.902207484587 2112 0 4 1450 1972
3	151002 41622 2417 20372 121373.488509699457 1035655.004536414748 1057 0 6234.5029313751 685799.86064514 1459103435.0875
4	192624 62390 2412 20372 121260.6800920433 1035655.004536414748 2114 0 11 2817 10121
5	255014 20644 2427 20377 121716.72 1036306.44 1068 0 4 1056 1908
6	275658 20644 2427 20377 121716.72 1036306.44 1068 0 3 1058 1878
7	296302 62383 2411 20370 121260.6800920433 1035655.004536414748 2113 0 13 9750 54368
>>>>>>> branch 'develop' of git@github.com:enricomeloni/PESC_Control_Tower.git
