file 352152 1483892999                                          
version 2
run ParkingMeasurement-101-20170108-17:29:59-5181
attr configname ParkingMeasurement
attr datetime 20170108-17:29:59
attr experiment ParkingMeasurement
attr inifile parkingStudy.ini
attr iterationvars ""
attr iterationvars2 $repetition=101
attr measurement ""
attr network controltower.SimNetwork
attr processid 5181
attr repetition 101
attr replication #101
attr resultdir results
attr runnumber 101
attr seedset 101
param SimNetwork.a.parkingLot.parkingDelay "truncnormal(60min, 6min)"
param SimNetwork.a.runway.landingTime "truncnormal(5min, 0.5min)"
param SimNetwork.a.runway.takeoffTime "truncnormal(5min, 0.5min)"
param SimNetwork.a.runway.throughputCheckInterval 14.286min
param SimNetwork.wg.interArrivalTime exponential(14.286min)

vector 2  SimNetwork.a.landingQueue  queueLength:vector  ETV
attr source  queueLengthSignal
vector 7  SimNetwork.a.parkingLot  parkingOccupancy:vector  ETV
attr source  parkingOccupancy
vector 1  SimNetwork.a.landingQueue  queueTime:vector  ETV
attr source  queueTimeSignal
vector 4  SimNetwork.a.takeoffQueue  queueLength:vector  ETV
attr source  queueLengthSignal
vector 5  SimNetwork.a.runway  landedThroughput:vector  ETV
attr source  landedThroughputSignal
vector 6  SimNetwork.a.runway  tookoffThroughput:vector  ETV
attr source  tookoffThroughputSignal
vector 3  SimNetwork.a.takeoffQueue  queueTime:vector  ETV
attr source  queueTimeSignal
vector 0  SimNetwork.wg  responseTime:vector  ETV
attr source  responseTimeSignal
0	1481 44762 2168 19780 122099.858680721875 1035790.871506833796 1031 3712.1157363715 12199.871354246 5947691.9126204 35579868210.449
1	46243 40518 2145 19805 121232.536697508617 1036371.681881202557 1041 0 1166.9057853693 167107.17161891 60193227.256378
2	86761 61405 2140 19805 121144.888009316531 1036371.681881202557 2082 0 4 1449 1993
3	148166 40239 2165 19810 121820.261418866825 1036647.450369175092 1032 0 4622.5995238295 542312.90260216 863188384.85923
4	188405 61093 2156 19810 121564.924361606112 1036647.450369175092 2071 0 10 2392 6692
5	249498 20628 2158 19801 121716.72 1036306.44 1068 0 3 1040 1852
6	270126 20628 2158 19801 121716.72 1036306.44 1068 0 3 1032 1788
7	290754 61398 2143 19808 121232.536697508617 1036647.450369175092 2081 0 11 9564 51964
