file 356272 1483892991                                          
version 2
run ParkingMeasurement-80-20170108-17:29:51-5140
attr configname ParkingMeasurement
attr datetime 20170108-17:29:51
attr experiment ParkingMeasurement
attr inifile parkingStudy.ini
attr iterationvars ""
attr iterationvars2 $repetition=80
attr measurement ""
attr network controltower.SimNetwork
attr processid 5140
attr repetition 80
attr replication #80
attr resultdir results
attr runnumber 80
attr seedset 80
param SimNetwork.a.parkingLot.parkingDelay "truncnormal(60min, 6min)"
param SimNetwork.a.runway.landingTime "truncnormal(5min, 0.5min)"
param SimNetwork.a.runway.takeoffTime "truncnormal(5min, 0.5min)"
param SimNetwork.a.runway.throughputCheckInterval 14.286min
param SimNetwork.wg.interArrivalTime exponential(14.286min)

vector 5  SimNetwork.a.runway  landedThroughput:vector  ETV
attr source  landedThroughputSignal
vector 6  SimNetwork.a.runway  tookoffThroughput:vector  ETV
attr source  tookoffThroughputSignal
vector 2  SimNetwork.a.landingQueue  queueLength:vector  ETV
attr source  queueLengthSignal
vector 1  SimNetwork.a.landingQueue  queueTime:vector  ETV
attr source  queueTimeSignal
vector 7  SimNetwork.a.parkingLot  parkingOccupancy:vector  ETV
attr source  parkingOccupancy
vector 4  SimNetwork.a.takeoffQueue  queueLength:vector  ETV
attr source  queueLengthSignal
vector 3  SimNetwork.a.takeoffQueue  queueTime:vector  ETV
attr source  queueTimeSignal
vector 0  SimNetwork.wg  responseTime:vector  ETV
attr source  responseTimeSignal
0	1475 45523 2286 20164 123216.080356389692 1036508.229245785434 1049 3635.6887404768 10711.562806229 5956832.6061186 34888109566.981
1	46998 41163 2274 20166 122048.341445921759 1036508.229245785434 1054 0 1024.3369667883 168459.25760739 59839031.493153
2	88161 62248 2272 20166 122048.341445921759 1036508.229245785434 2109 0 4 1437 1951
3	150409 40529 2283 20154 122935.651213695407 1036227.722747422996 1049 0 3371.7201514542 458548.03908717 564298307.87592
4	190938 61964 2281 20154 122935.651213695407 1036227.722747422996 2100 0 7 2070 4598
5	252902 20635 2270 20162 121716.72 1036306.44 1068 0 3 1053 1879
6	273537 20635 2270 20162 121716.72 1036306.44 1068 0 3 1048 1810
7	294172 62100 2277 20152 122371.850988398109 1036227.722747422996 2104 0 11 9536 50972
