file 362165 1483664702                                          
version 2
run ParkingMeasurement-28-20170106-02:05:02-12655
attr configname ParkingMeasurement
attr datetime 20170106-02:05:02
attr experiment ParkingMeasurement
attr inifile parkingStudy.ini
attr iterationvars ""
attr iterationvars2 $repetition=28
attr measurement ""
attr network SimNetwork
attr processid 12655
attr repetition 28
attr replication #28
attr resultdir results
attr runnumber 28
attr seedset 28
param SimNetwork.a.parkingLot.parkingDelay "truncnormal(60min, 6min)"
param SimNetwork.a.runway.landingTime "truncnormal(5min, 0.5min)"
param SimNetwork.a.runway.takeoffTime "truncnormal(5min, 0.5min)"
param SimNetwork.a.runway.throughputCheckInterval 14.286min
param SimNetwork.wg.interArrivalTime exponential(14.286min)

vector 7  SimNetwork.a.parkingLot  parkingOccupancy:vector  ETV
attr source  parkingOccupancy
vector 4  SimNetwork.a.takeoffQueue  queueLength:vector  ETV
attr source  queueLengthSignal
vector 3  SimNetwork.a.takeoffQueue  queueTime:vector  ETV
attr source  queueTimeSignal
vector 0  SimNetwork.wg  responseTime:vector  ETV
attr source  responseTimeSignal
vector 5  SimNetwork.a.runway  landedThroughput:vector  ETV
attr source  landedThroughputSignal
vector 6  SimNetwork.a.runway  tookoffThroughput:vector  ETV
attr source  tookoffThroughputSignal
vector 2  SimNetwork.a.landingQueue  queueLength:vector  ETV
attr source  queueLengthSignal
vector 1  SimNetwork.a.landingQueue  queueTime:vector  ETV
attr source  queueTimeSignal
0	1464 46307 2778 20898 121525.554675053064 1035956.93943361432 1067 3493.5643755229 11639.099246074 6213816.5825701 37410981749.284
1	47771 41890 2803 20909 122657.144024665456 1036481.04970005342 1068 0 1188.8640015928 170735.01659761 61722048.511414
2	89661 63091 2801 20909 122657.144024665456 1036481.04970005342 2136 0 4 1486 2032
3	152752 42053 2775 20917 121219.748965869157 1036776.791983014552 1068 0 4756.187151724 636606.85112854 1008897475.0845
4	194805 62987 2775 20917 121219.748965869157 1036776.791983014552 2133 0 9 2650 7410
5	257792 20660 2785 20905 121716.72 1036306.44 1068 0 4 1068 1936
6	278452 20660 2785 20905 121716.72 1036306.44 1068 0 4 1068 1872
7	299112 63053 2773 20915 121219.748965869157 1036776.791983014552 2134 0 12 10149 57291
