file 368091 1483893015                                          
version 2
run ParkingMeasurement-145-20170108-17:30:15-5273
attr configname ParkingMeasurement
attr datetime 20170108-17:30:15
attr experiment ParkingMeasurement
attr inifile parkingStudy.ini
attr iterationvars ""
attr iterationvars2 $repetition=145
attr measurement ""
attr network controltower.SimNetwork
attr processid 5273
attr repetition 145
attr replication #145
attr resultdir results
attr runnumber 145
attr seedset 145
param SimNetwork.a.parkingLot.parkingDelay "truncnormal(60min, 6min)"
param SimNetwork.a.runway.landingTime "truncnormal(5min, 0.5min)"
param SimNetwork.a.runway.takeoffTime "truncnormal(5min, 0.5min)"
param SimNetwork.a.runway.throughputCheckInterval 14.286min
param SimNetwork.wg.interArrivalTime exponential(14.286min)

vector 0  SimNetwork.wg  responseTime:vector  ETV
attr source  responseTimeSignal
vector 5  SimNetwork.a.runway  landedThroughput:vector  ETV
attr source  landedThroughputSignal
vector 6  SimNetwork.a.runway  tookoffThroughput:vector  ETV
attr source  tookoffThroughputSignal
vector 2  SimNetwork.a.landingQueue  queueLength:vector  ETV
attr source  queueLengthSignal
vector 1  SimNetwork.a.landingQueue  queueTime:vector  ETV
attr source  queueTimeSignal
vector 7  SimNetwork.a.parkingLot  parkingOccupancy:vector  ETV
attr source  parkingOccupancy
vector 4  SimNetwork.a.takeoffQueue  queueLength:vector  ETV
attr source  queueLengthSignal
vector 3  SimNetwork.a.takeoffQueue  queueTime:vector  ETV
attr source  queueTimeSignal
0	1481 47186 2492 20951 121072.521875306116 1036283.345165268628 1087 3751.2753459165 11026.890887534 6225231.2358658 36708548141.38
1	48667 42604 2498 20939 122463.798172268696 1035086.829493378186 1088 0 1312.8359829092 179954.48495444 67659627.942758
2	91271 64227 2496 20939 122463.798172268696 1035086.829493378186 2176 0 5 1526 2168
3	155498 42863 2507 20948 122767.875694357527 1035938.145797176118 1086 0 3861.4186356043 559170.0561764 752242753.69661
4	198361 64180 2501 20948 122563.871368049976 1035938.145797176118 2172 0 8 2386 5670
5	262541 20660 2494 20953 121716.72 1036306.44 1068 0 3 1088 1986
6	283201 20660 2494 20953 121716.72 1036306.44 1068 0 3 1087 1941
7	303861 64230 2500 20945 122563.871368049976 1035938.145797176118 2174 0 12 10129 55783
