version 2
run ParkingMeasurement-57-20170106-02:05:09-12725
attr configname ParkingMeasurement
attr datetime 20170106-02:05:09
attr experiment ParkingMeasurement
attr inifile parkingStudy.ini
attr iterationvars ""
attr iterationvars2 $repetition=57
attr measurement ""
attr network SimNetwork
attr processid 12725
attr repetition 57
attr replication #57
attr resultdir results
attr runnumber 57
attr seedset 57
param SimNetwork.a.parkingLot.parkingDelay "truncnormal(60min, 6min)"
param SimNetwork.a.runway.landingTime "truncnormal(5min, 0.5min)"
param SimNetwork.a.runway.takeoffTime "truncnormal(5min, 0.5min)"
param SimNetwork.a.runway.throughputCheckInterval 14.286min
param SimNetwork.wg.interArrivalTime exponential(14.286min)

statistic SimNetwork.wg 	responseTime:stats
field count 1032
field mean 5801.8292020004
field stddev 1162.8358626347
field sum 5987487.7364644
field sqrsum 36132486244.014
field min 3659.1411915788
field max 11647.060360774
attr source  responseTimeSignal
scalar SimNetwork.a.landingQueue 	queueLength:timeavg 	0.17880129511007
attr source  queueLengthSignal
statistic SimNetwork.a.landingQueue 	queueLength:stats
field count 2062
field mean 0.69980601357905
field stddev 0.70802563653583
field sum 1443
field sqrsum 2043
field min 0
field max 5
attr source  queueLengthSignal
statistic SimNetwork.a.landingQueue 	queueTime:stats
field count 1031
field mean 158.81861720527
field stddev 186.32623875496
field sum 163741.99433863
field sqrsum 61764268.38532
field min 0
field max 1230.9003581782
attr source  queueTimeSignal
scalar SimNetwork.a.takeoffQueue 	queueLength:timeavg 	0.62789151380302
attr source  queueLengthSignal
statistic SimNetwork.a.takeoffQueue 	queueLength:stats
field count 2061
field mean 1.2110625909753
field stddev 1.5702309169317
field sum 2496
field sqrsum 8102
field min 0
field max 10
attr source  queueLengthSignal
statistic SimNetwork.a.takeoffQueue 	queueTime:stats
field count 1031
field mean 557.88210720403
field stddev 846.27623594504
field sum 575176.45252735
field sqrsum 1058549622.9012
field min 0
field max 4340.5762620865
attr source  queueTimeSignal
scalar SimNetwork.a.parkingLot 	parkingOccupancy:timeavg 	4.0431890616526
attr source  parkingOccupancy
statistic SimNetwork.a.parkingLot 	parkingOccupancy:stats
field count 2060
field mean 4.5242718446602
field stddev 2.0144917430678
field sum 9320
field sqrsum 50522
field min 0
field max 12
attr source  parkingOccupancy
