version 2
run ParkingMeasurement-103-20170108-17:30:00-5185
attr configname ParkingMeasurement
attr datetime 20170108-17:30:00
attr experiment ParkingMeasurement
attr inifile parkingStudy.ini
attr iterationvars ""
attr iterationvars2 $repetition=103
attr measurement ""
attr network controltower.SimNetwork
attr processid 5185
attr repetition 103
attr replication #103
attr resultdir results
attr runnumber 103
attr seedset 103
param SimNetwork.a.parkingLot.parkingDelay "truncnormal(60min, 6min)"
param SimNetwork.a.runway.landingTime "truncnormal(5min, 0.5min)"
param SimNetwork.a.runway.takeoffTime "truncnormal(5min, 0.5min)"
param SimNetwork.a.runway.throughputCheckInterval 14.286min
param SimNetwork.wg.interArrivalTime exponential(14.286min)

vector 7  SimNetwork.a.parkingLot  parkingOccupancy:vector  ETV
attr source  parkingOccupancy
vector 5  SimNetwork.a.runway  landedThroughput:vector  ETV
attr source  landedThroughputSignal
vector 6  SimNetwork.a.runway  tookoffThroughput:vector  ETV
attr source  tookoffThroughputSignal
vector 4  SimNetwork.a.takeoffQueue  queueLength:vector  ETV
attr source  queueLengthSignal
vector 3  SimNetwork.a.takeoffQueue  queueTime:vector  ETV
attr source  queueTimeSignal
vector 0  SimNetwork.wg  responseTime:vector  ETV
attr source  responseTimeSignal
vector 2  SimNetwork.a.landingQueue  queueLength:vector  ETV
attr source  queueLengthSignal
vector 1  SimNetwork.a.landingQueue  queueTime:vector  ETV
attr source  queueTimeSignal
0	2517	122229.393708154086	6133.2866576331
0	2529	122654.744483262567	5007.7206354689
0	2545	123238.68293221811	5207.8404539973
0	2551	123550.920588297333	4651.8787045926
0	2560	124648.127765120276	5170.0460622738
0	2571	125076.050173871569	5401.3729431997
0	2605	126712.916540181512	5933.9462242933
0	2623	128428.972878928372	6002.6317418525
0	2637	129218.294320144628	4303.4642497917
0	2649	130103.901769378449	4728.1557790392
0	2666	130682.329968876391	4848.5797759493
0	2726	133869.039578681013	7266.2968211279
0	2748	134504.022696798041	6146.5389490582
0	2762	135134.026415626402	5277.7764392395
0	2773	135738.875660857245	5151.4928428502
0	2782	136294.30266741361	3856.0922999884
0	2798	136917.827405093263	4451.2871704862
0	2813	137336.298158974479	6097.8955815385
0	2855	138922.301401476401	6280.8143136483
0	2863	139279.609309993901	6434.3145815565
0	2871	139582.187597302858	5867.196636578
0	2885	140219.659871392166	5947.5799139395
0	2907	141058.453216720106	6169.7179695744
0	2961	142935.875919585345	5858.1087046174
0	2972	143531.939880653151	7164.2671380177
0	2980	143796.716933212931	6254.1339965471
0	2992	144056.898191156295	6764.7574530096
0	3005	144591.592206237644	4445.11307549
0	3013	144848.456438005646	7255.7552395052
0	3030	145410.892143778397	5987.0406289341
0	3070	146587.620524932551	6120.2519933084
0	3165	149581.914070479725	8056.0397698598
0	3176	150104.258888107297	8483.0780355265
0	3184	150395.977050118847	8942.7579672335
0	3198	150669.813851346785	8401.428741272
0	3215	151318.612722468996	8483.3627834636
0	3223	151618.717104566872	7759.7419542092
0	3243	152236.627137110951	7624.247046201
0	3251	152530.358122434059	7216.2408598245
0	3260	152864.659608414334	7301.8648520492
0	3271	153191.181173324801	6360.614944782
0	3302	154361.12376958152	8383.1450107383
0	3307	154599.143483045163	8260.393969849
0	3312	154902.384300521637	8060.0874879101
0	3318	155234.370958660596	8096.6884814496
0	3326	155531.230665212938	7706.6980149092
0	3340	156156.440995722424	8755.749692827
0	3345	156467.38388864032	9124.9097410604
0	3353	156749.501193185342	8783.3912900148
0	3370	157356.125384303071	9292.6554814741
0	3375	157677.013391159016	8225.2681483495
0	3384	157962.863925543487	7425.0889944651
0	3389	158252.0911460183	5197.1851159778
0	3394	158527.946300381144	7030.3422240338
0	3403	158783.621959780713	5715.283094411
0	3411	159092.239869398181	5642.1399844192
0	3462	161497.748595710518	6150.6225225083
0	3479	162384.376161711126	5840.4023418946
0	3497	164345.868644957926	4559.6506082918
0	3506	164691.522920343636	5677.7804823493
0	3511	164985.112685971954	4509.9775125856
0	3522	165401.967225631135	5267.3035282957
0	3531	165658.647972631972	5109.5229769378
0	3561	166936.254424241551	5531.1024408032
0	3573	169861.968105549436	7634.0791386627
0	3581	170333.213838143504	4715.8065733086
0	3590	170685.291634051206	4823.4707568335
0	3683	175306.48667793836	9412.7641116308
0	3695	175898.23292750627	4886.0926655354
0	3709	176196.701809800177	4943.4307356795
0	3720	176757.892003612422	4555.7327476371
0	3728	177028.589281176463	6203.097275089
0	3739	177350.906948420978	4835.6986297767
0	3745	177671.830590974376	4982.1205157589
0	3750	178007.086162801419	4394.2293646869
0	3762	178783.865543925931	4873.0293855364
0	3767	179128.729336474006	5013.1104741283
0	3788	180466.521091406948	5787.3116344869
0	3861	183522.21044352881	7615.4372669611
0	3876	184969.072142757492	5574.2633849714
0	3888	185248.71569768696	4591.1084097712
0	3904	185890.274272689651	5069.0804538436
0	3913	186170.645692328693	5438.4457371795
0	3921	186415.748421098853	5444.5574507492
0	3932	186988.398253057041	6585.6470464211
0	3940	187305.720864779563	6309.8755540163
0	3945	187558.127574536098	6471.5807128433
0	3956	189968.172866155027	7007.2575832601
0	3966	191349.447817683366	6269.2079296455
0	4003	195910.168242256329	9665.5472677324
0	4040	197753.878994869221	4157.0650462651
0	4045	197999.617528268484	5802.8525288405
0	4087	200813.667303665083	6999.4429721982
0	4100	201369.712765413558	4955.2574740663
0	4112	201627.131192096369	4859.8222345922
0	4162	203505.918274428596	5326.2261836718
0	4176	204158.772131836487	7141.6435489915
0	4184	204452.453208915435	5676.7696738764
0	4189	204717.65931557901	5262.0045899965
0	4202	206162.715032043107	4770.0741974691
0	4225	206730.702129584489	6150.8046259053
0	4258	207921.586796318542	6311.8717065256
0	4263	208182.054528309819	6115.9694525179
0	4269	208484.043841118228	6722.2730754882
0	4274	208766.452348117377	6054.9011879116
0	4283	209771.667538854868	6379.0202479582
0	4292	210301.067660487354	3751.7694691526
0	4307	211218.06633567186	5285.0525338204
0	4318	211807.917801869147	4893.9478371546
0	4337	214934.50413242345	7768.3011850477
0	4384	218192.851440616328	7104.5718436527
0	4409	219142.726887787577	5431.017163406
0	4471	221316.15477393077	6049.9671351618
0	4482	221667.288591823995	6292.8002234192
0	4506	222837.74322169079	7227.7542335689
0	4518	223232.111421942831	6296.7583237127
0	4529	223534.933369691458	4608.5222739396
0	4538	223863.581616156844	5602.0380941056
0	4546	224213.298065307658	6107.2420364214
0	4557	224541.440650055038	5388.6660504981
0	4563	224812.474172963892	4995.2023174973
0	4571	225071.109874333083	5851.5555992494
0	4576	225374.384048049935	5804.0580123618
0	4585	225685.302989018166	4332.6550537576
0	4605	226309.249411040592	4736.1872670655
0	4615	226894.485221301429	6826.3776913304
0	4626	229016.486370338862	7294.0518111543
0	4643	229993.991930606553	4415.7037447861
0	4670	232821.476113631319	6662.3650995288
0	4688	234523.500000778884	5476.8524492823
0	4698	235792.572019975255	5784.5536573377
0	4758	239588.951918236944	7893.6639183825
0	4766	239906.205237464047	5916.0811146102
0	4799	242155.998675880004	4075.6403351527
0	4810	242464.466445922485	4303.7158269016
0	4827	243082.112843218787	7279.8794324022
0	4849	243965.090492647053	6735.0624624197
0	4860	244603.856109739869	6441.371647642
0	4871	244879.014613621592	5905.3210764999
0	4892	246110.21378763783	5583.096155574
0	4917	247093.886759621795	5495.0405513915
0	4961	248572.533021775672	5749.1949061361
0	4967	248899.046800603753	6638.1576751605
0	4972	249190.731612380165	5915.4080929337
0	4978	249523.827959271275	5668.1704286867
0	5000	250144.264094363526	5446.9646801679
0	5020	250735.239715718111	4846.0963410849
0	5112	253717.610975955052	7316.1488443239
0	5163	255270.715876934171	8311.7023918134
0	5268	258210.46316826424	11209.308862224
0	5296	259100.733840949526	11578.478327135
0	5324	260086.665519535512	12412.462655759
0	5335	260362.717875660929	10807.759351952
0	5352	260918.849625031965	11029.115372393
0	5357	261146.552241340574	10446.817259746
0	5366	261443.856092232366	10855.147682875
0	5391	262300.407214546374	11607.502909195
0	5402	262576.074073500075	11322.704248269
0	5410	262884.866581890367	11381.151131358
0	5416	263161.955607096047	10903.247267827
0	5421	263526.939908826532	11606.25531372
0	5429	263845.053474321813	11571.009390574
0	5452	264450.559950254682	11755.20622048
0	5471	265454.517545875903	11975.648906373
0	5502	266423.267951366323	12855.800169959
0	5518	267281.263913677504	13144.332194854
0	5524	267618.952407603218	13272.037695829
0	5529	267972.649261093603	12434.301247032
0	5537	268250.83478101857	12298.983538493
0	5549	268561.278830041639	13310.427805329
0	5557	268874.681273656145	13082.558023998
0	5566	269176.392344710937	13177.526169494
0	5582	269779.009038356945	13469.76150703
0	5596	270345.595345544693	13119.995189628
0	5604	270627.078260820079	13351.075906066
0	5613	270952.194125949961	12830.241580249
0	5626	271499.17427930135	14690.641695093
0	5645	272383.733884039707	14103.854791918
0	5651	272650.649027983028	13802.5273016
0	5659	272925.202218228666	14047.906955757
0	5676	273497.375163078021	13377.94121073
0	5681	273863.999227590518	12455.140113574
0	5686	274175.358561066734	12619.45541039
0	5695	274517.610852319347	10248.661033984
0	5708	275061.333049719642	11401.79812688
0	5723	275377.184333353304	10983.628489161
0	5753	276627.820314269566	11409.562079529
0	5759	276934.21943779757	10744.265536071
0	5764	277236.957173694121	11779.135295493
0	5769	277577.780813159411	11303.500546637
0	5778	277882.967488656494	8992.89281572
0	5803	278809.692703140752	9271.9065462158
0	5819	279399.273665250057	8753.0951705045
0	5836	280032.179836219818	8573.3768957977
0	5861	280886.629221020966	9151.811647982
0	5895	282108.587561421007	9218.9393528488
0	5900	282458.076605904492	7977.226636392
0	5905	282763.648783534036	7665.2227696629
0	5917	283008.942321085185	7739.1946419101
0	5973	284810.110796683699	7133.4382831455
0	5978	285092.339209730302	9210.6150538965
0	5986	285394.316791771017	7340.5272288944
0	5995	285682.626191960237	7055.2061346008
0	6000	285919.895464410131	6804.3240795763
0	6008	286222.836578244333	6259.788289767
0	6025	286809.527459959962	6604.7785648146
0	6042	287430.384725673736	6665.2383006831
0	6047	287711.004934291588	6789.8880936237
0	6056	288029.54050748897	6720.0783996299
0	6064	288388.902999340416	5478.0564984948
0	6069	288699.407039575163	5170.4975217388
0	6078	288998.311379109892	5830.5497446903
0	6091	289472.862997262855	5850.2584806165
0	6109	290794.127272725058	4750.6286249829
0	6114	291110.058187921713	7265.1889970332
0	6141	293363.487898528294	6760.1101696457
0	6152	293780.368701430064	5050.1835579404
0	6188	297107.682476613751	7716.5970588682
0	6193	297400.044954865554	4922.7730599743
0	6205	298122.144662315155	5409.0227607571
0	6240	300670.150023878758	4455.0902752259
0	6271	301943.522937314786	8430.4963979794
0	6286	302631.346425727775	6008.5147863319
0	6305	303663.598568757715	5835.7799897346
0	6313	303955.704792367562	4532.7697592756
0	6328	304547.358099075845	4692.9559625722
0	6353	305479.430772244444	4686.8520855545
0	6364	306094.445454814092	5583.3116878382
0	6375	306829.326225502342	4327.1000443173
0	6381	307130.276033648999	6304.0751167602
0	6409	308242.435558288409	5675.0030137283
0	6443	309704.29650942592	5320.1749448083
0	6448	310008.095694651	5574.956357661
0	6469	311359.904239584139	6132.5286652523
0	6485	311901.179033997349	4679.2774136712
0	6491	312159.239969761857	4814.81379577
0	6567	314647.445836481444	5883.8780122112
0	6572	314943.106098937619	6875.6215430805
0	6577	315187.351805814106	6291.8471230026
0	6583	315486.67530342902	5158.3106434799
0	6599	316206.787155298212	4015.540964172
0	6611	316916.737783429515	5770.8401803532
0	6623	317226.708801550687	4673.7144370946
0	6628	317530.542603048836	5317.6431104255
0	6642	317867.518717852487	5043.4908880053
0	6653	318470.283236990079	5561.9777582607
0	6658	318713.627201342311	5445.8476971707
0	6668	319736.892447868412	6293.6929901227
0	6702	321790.214017800937	6121.5241142338
0	6720	323932.618232060861	6137.4072813206
0	6729	324409.167127747897	4640.3313432513
0	6746	325681.645075484807	5725.5957403594
0	6763	326374.386169459046	5141.135756994
0	6774	328839.187372704162	6698.8976431393
0	6809	330308.746863902721	5397.770606882
0	6858	333705.385481905298	7922.7251728303
0	6863	334007.988814590302	4299.5806137083
0	6872	334336.505476338437	4912.3534100309
0	6895	335185.736042639065	4948.030988789
0	6911	336058.653438654278	5992.3340585808
0	6920	336993.390588796055	6717.0396100804
0	6931	337451.362823348013	4978.3652500694
0	6962	338855.020104479447	5827.8235006226
0	6974	339606.526498616491	5470.4994729825
0	6996	340175.641053583193	5245.0145078645
0	7069	342984.046520619022	7870.4110383802
0	7077	343267.863620541444	5890.7696606765
0	7102	344152.601912628635	6197.2628661745
0	7110	344423.961115503032	6318.0208640919
0	7133	344984.806858805006	5637.9522133541
0	7161	345884.680064132902	5914.9785963099
0	7166	346160.649764295276	6140.9697215818
0	7172	346456.135544493112	6097.9162410586
0	7186	346769.446560175067	5638.5225135036
0	7197	347313.105257738431	6548.3008478244
0	7205	347643.397522906095	7493.4195968949
0	7216	347938.321042036951	6186.8939598873
0	7239	348864.498047367662	5780.8591619179
0	7244	349136.27385462163	7241.7295916302
0	7252	349497.949824270184	5230.1932885843
0	7283	350585.661901347909	7225.0711170127
0	7288	350906.517869299485	5975.9558473967
0	7296	351339.406809010348	6408.1632720248
0	7311	352138.784001949548	5395.0300979491
0	7339	353310.364804758163	5543.8144056191
0	7353	353811.46774502338	4139.6517041016
0	7359	354128.103806218214	6299.5463963645
0	7364	354431.95897413372	5192.323032787
0	7377	356445.425083175195	6610.6001793821
0	7383	356761.025388658343	4721.4234278465
0	7391	357210.713128856905	4817.5013145865
0	7444	361652.403350755946	8996.2026810119
0	7456	362000.007491221569	4506.656184023
0	7479	363485.128604935758	5008.4259913051
0	7491	364841.051921019188	4866.8236586815
0	7496	365124.445912678203	4461.2649165952
0	7523	366424.977590768596	5538.9688739951
0	7539	367311.268108850045	5320.3243586373
0	7587	369414.206411025095	6813.0810628437
0	7612	370288.619007737857	4453.0801317315
0	7657	371771.704299212323	5600.6287691018
0	7694	372986.302757274322	6570.7156713432
0	7722	373857.72760297433	6493.9039679459
0	7738	374406.768406746254	6910.5923287673
0	7747	374681.928249083755	5862.8117146941
0	7752	374936.197467180043	7051.0163209012
0	7763	375264.283699901712	6067.9525091576
0	7769	375614.067335311986	6323.039479647
0	7777	375943.090194536432	5450.5611686183
0	7788	376219.946514550043	5821.8216137457
0	7794	376451.326673487922	5493.5632193438
0	7799	376755.32346791142	6535.6304582189
0	7807	377028.344208625545	5459.9876336047
0	7841	378266.093296882477	6415.7931560869
0	7849	378583.39909127564	5857.6305477927
0	7877	379896.8489550812	8045.868761039
0	7888	380214.558690465151	7193.1463688342
0	7946	382177.799505545346	8502.912385036
0	7955	382460.338736731747	5561.8571287783
0	7960	382722.233332266919	5548.1516523604
0	7968	383005.918116467145	5585.9610978626
0	7985	383611.379408306552	4830.127734227
0	7993	383912.959577513681	5405.9146783517
0	7999	384211.18330044834	5160.9541268154
0	8010	384678.795374065512	4703.2116225615
0	8016	384993.259989655765	5055.2208124903
0	8033	385436.870976058929	4756.5186642089
0	8047	386013.606997224391	5303.8380857246
0	8061	386612.574533919298	5882.6451664265
0	8080	387305.147657229358	5739.7730248246
0	8134	390040.037978004984	7315.5696664704
0	8145	390435.483802334697	5193.3072935175
0	8176	391655.198183878272	5890.8688154665
0	8190	392228.4159117187	5051.4005976001
0	8201	392561.952379694948	5573.9869467826
0	8221	393179.700701288989	6787.4445814838
0	8255	394384.459325942927	6852.4771108757
0	8268	394898.890450208042	6863.8190089085
0	8280	395214.140384027562	6359.9644097751
0	8290	395874.420954745691	6472.084840752
0	8299	396179.114525697332	5812.4461303148
0	8312	396780.727764514127	5780.0552874117
0	8324	397096.418403648709	5538.4906528929
0	8337	397697.727182329977	5254.4555379646
0	8346	398039.610869467549	5108.7761814053
0	8351	398343.038568518676	4879.1716616359
0	8366	398998.195964103294	5296.7251518206
0	8380	399560.135713922969	5333.3790643281
0	8402	400595.7495657065	5553.2920406961
0	8436	402190.387067730709	6143.0785576382
0	8456	403599.511107217037	4659.4093679994
0	8465	403916.565834635056	7099.9051784863
0	8473	404252.908406713034	4918.3834057955
0	8518	405668.012815750536	5870.1150670032
0	8523	405956.585022047139	4971.9726191891
0	8534	406231.387586701635	5242.6560505695
0	8565	407472.320786785654	6442.1991805454
0	8585	408111.421271873377	3492.990960325
0	8590	408356.582662097401	5720.2126226216
0	8595	408679.798062598143	4721.0717742093
0	8604	409404.224879166475	4770.4161687569
0	8613	409980.362864110954	5143.0885177135
0	8641	411298.71234219431	5336.2080225936
0	8650	411595.334489490086	5471.3528915443
0	8655	411926.701822533438	5409.2370467209
0	8696	414614.112319257348	4205.6713775262
0	8707	415160.37407066916	7888.8998299486
0	8716	416428.388756928017	5720.3303356542
0	8728	417183.205970458569	4612.9782941809
0	8753	418151.171025104156	5237.3475213659
0	8762	418456.05686499807	4412.1346328014
0	8822	421990.154568789972	7385.30105771
0	8827	422315.944018711737	5226.5334768891
0	8850	423009.097356705422	5464.5143570452
0	8855	423350.029385529046	4614.8445354941
0	8867	423661.792082277815	5453.1329756526
0	8872	423929.489094255995	5319.8281587393
0	8877	424270.513634315787	5126.4827010605
0	8907	426580.489953694361	7322.1785715274
0	8915	426857.012466582887	5509.7620473484
0	8962	428543.019795178219	6128.5111417444
0	9005	430487.932430824501	6097.3730968269
0	9028	431404.412226305645	5476.9484037705
0	9039	431734.922891671051	4570.1314446982
0	9087	433171.588259206076	6576.7123109103
0	9104	433768.814404779462	6636.2423283539
0	9132	434680.581877002891	7168.6833364561
0	9145	435190.979139390026	7341.0301187302
0	9196	436737.946887461312	7872.3332561876
0	9201	437081.581514286951	7829.8983718701
0	9213	437384.274159198156	7815.8152086118
0	9254	438762.953110001851	9010.4513063414
0	9266	439099.693941621063	8198.0299792207
0	9271	439386.779753516916	7887.245611458
0	9276	439713.80315175621	8159.4096928014
0	9288	439998.339986498222	8129.438026359
0	9293	440278.133569389598	8445.3746996701
0	9301	440578.86757633768	6945.3809866433
0	9315	441170.749040748901	8106.3096187169
0	9332	441755.115173157399	8078.5573488237
0	9348	442243.455964635982	7730.1694143445
0	9354	442521.271872845453	7437.6634714081
0	9359	442800.894745416853	7453.2124641292
0	9370	443066.269713504954	7745.1635364602
0	9381	443671.518738970846	7833.2989226164
0	9386	443940.837471305464	6238.5720763996
0	9395	444286.058832960639	7005.4438930127
0	9412	444866.603130126135	7531.5338627697
0	9417	445115.71422105464	7147.3628026958
0	9425	445459.368178617513	5115.8947493656
0	9442	446121.650783889226	5213.2067704089
0	9468	447673.302960534349	6122.3235166613
0	9482	448451.102744611624	5596.3948004792
0	9502	449752.323977632486	4308.5737744486
0	9511	450033.618708086699	5976.6019889671
0	9525	451400.894241218924	5574.0381469093
0	9534	451773.449667612195	4606.5448411643
0	9579	453440.583925568901	6007.5267792558
0	9592	454031.86095996614	5276.8312599756
0	9633	456441.614503793354	6413.8232386926
0	9641	456769.812732596297	4867.9341296422
0	9667	457330.463459646469	5369.0544732742
0	9703	458832.353053767266	6111.4061852318
0	9719	459426.52725682251	7457.2556776315
0	9745	460406.260353273388	7237.2716600511
0	9761	460941.776966940194	6185.3607184526
0	9773	461224.722575007442	6239.5115698884
0	9798	462168.679632740874	5599.7133563887
0	9809	462437.554991543058	6569.1450392072
0	9839	463625.842954365702	6505.6343879804
0	9862	464238.386414618004	7172.166247824
0	9930	466458.44651814559	9138.2476935048
0	9943	467032.399554644577	9427.4641313594
0	9960	467663.077235894127	8936.0109723965
0	10022	469623.688492798024	10415.892089914
0	10034	469965.778806592176	10391.742040187
0	10039	470285.868775504107	9976.9250212152
0	10044	470558.464987187834	9600.4953991886
0	10050	470794.563452152265	8412.0192654265
0	10061	471098.413318842562	10008.997680915
0	10070	471446.550478737777	8876.0977432596
0	10086	472034.518685651455	8650.743494488
0	10103	472635.389678361976	9823.8292761909
0	10111	472886.09795463502	8538.450072338
0	10125	473459.669601720084	9420.2421338992
0	10130	473736.887082278718	9663.1356890954
0	10136	474056.56330829725	9407.742756445
0	10144	474379.981860407121	8900.7632820853
0	10158	475047.989212242062	10278.068664013
0	10163	475346.762156261208	8392.9464373452
0	10168	475654.748552437164	9314.1245848657
0	10177	475955.69438259367	7885.7284599844
0	10185	476280.066876394575	8350.41321384
0	10224	477826.217875256716	10310.623674646
0	10229	478131.3606256644	9950.7030360517
0	10235	478406.957413973638	9983.23252273
0	10243	478702.510583571992	7416.2259676051
0	10248	479039.030344847714	7014.6050803673
0	10257	479352.178864309259	6470.0958174149
0	10270	479936.775781114712	5792.4089663107
0	10310	481410.134069003949	5223.9296704944
0	10324	481924.829497507417	5424.8940043699
0	10329	482167.209168863158	5372.8577526194
0	10350	483759.224071303969	6545.3167839089
0	10398	485220.885379478433	5868.7086738692
0	10403	485543.031096364532	5343.1599152206
0	10408	485845.319503453238	5436.3058046727
0	10414	486161.063288256529	5651.7188792292
0	10427	487736.166563008907	6605.5760091047
0	10438	488017.2369843961	4831.6126187217
0	10443	488355.753492749545	4514.2048984613
0	10449	488667.333441378822	5029.3938862069
0	10457	488976.40918719956	4751.1085413568
0	10529	493057.220231220001	8435.4071442395
0	10565	494373.375603438478	4474.1295326897
0	10574	494711.068135996476	5649.8419881704
0	10579	494952.865017566062	4892.6193472904
0	10584	495305.690199204816	5211.3065893617
0	10596	495680.821380706973	4983.5408622119
0	10610	496428.183885988204	4422.7598167436
0	10625	497482.854273732009	5316.1159583324
0	10639	498049.34578935113	5015.31571901
0	10647	498371.76324399727	5302.9301129035
0	10731	501748.229057067657	7998.3712225331
0	10739	502048.158784022824	6488.633464524
0	10753	502670.637532987974	5465.8863303439
0	10762	503186.92080353912	4879.9569198921
0	10773	503547.502881910601	4581.2906434703
0	10784	503851.999400825312	4706.8361841141
0	10832	505414.641471176857	6032.6963350682
0	10837	505683.775004580674	5841.8955626923
0	10843	505994.650734879243	6907.1347187915
0	10851	506288.157423670557	5986.6417216515
0	10856	506554.101281776314	6444.1169280518
0	10862	506835.638698242728	6510.9064914891
0	10886	508585.728869260407	4546.6364938369
0	10891	508858.874102216683	5175.4539962129
0	10900	509191.028402223402	7304.7462945164
0	10908	509515.589419713496	5194.7714251079
0	10950	511452.239995267174	6822.8627274692
0	10982	514057.738250277035	7206.8587245963
0	10997	514348.233109765264	5124.4609197115
0	11019	515283.725509435332	5000.4916262837
0	11024	515568.553599008676	5358.0642079374
0	11041	516140.768732118021	5687.2726620697
0	11049	516479.41912301386	5193.3509675069
0	11066	517260.52022002534	4940.3872039547
0	11094	518413.608432970958	4308.2549517417
0	11103	518750.250047836828	5601.2683884051
0	11120	519444.488493173353	5142.4560566671
0	11142	521026.374963127846	5442.48899458
0	11154	521555.444509735419	4893.5862266778
0	11159	521822.120421139714	4519.9806107115
0	11171	522335.528837511172	4487.9634715176
0	11200	523819.066792355521	4513.7304083097
0	11210	524349.392894849649	5605.8261446106
0	11223	525760.586620997515	6006.8973885676
0	11238	527427.186950836281	5338.7582355738
0	11250	528070.611927210938	5209.1163794536
0	11297	530178.95163454619	6502.091597665
0	11324	532314.024523002197	6690.8196507518
0	11343	533082.584657532095	5269.971031643
0	11377	533987.301120678988	5158.6604258778
0	11413	535479.316292625334	7319.728417318
0	11425	535792.693759972772	6513.1784429464
0	11461	537072.103123321016	7420.5362948095
0	11466	537350.281610869708	6504.6844425451
0	11472	537652.17949530084	6233.4057384594
0	11486	537919.404971463587	5323.627365779
0	11491	538183.180752696025	5117.2284963258
0	11500	538467.554572836043	4605.1842248221
0	11513	539098.931571074856	5776.2460007547
0	11519	539384.077059136781	5439.4372568555
0	11527	539693.719227753877	4167.9294132333
0	11535	539980.576742759961	5653.8979832473
0	11544	540261.635896613097	5767.3625952118
0	11560	540852.222825242821	4936.8752958328
0	11592	542978.63504379843	6600.9311015659
0	11602	544354.542681109821	6144.7703947535
0	11621	545016.137274174781	4976.4212343632
0	11646	545966.14285863396	5230.8839461057
0	11652	546293.975994695354	5236.9820934973
0	11709	549280.192408865887	7107.9722117916
0	11721	549602.589984859261	5125.3104178834
0	11748	550729.822295658007	5836.5821638913
0	11756	551054.317439923455	5743.0273882299
0	11774	552300.097256146947	5942.6208643348
0	11785	552617.539710579589	4824.2773818875
0	11791	552873.414629800997	4852.362317659
0	11805	553189.071285201638	5233.3520338991
0	11835	554363.400680257524	6190.7516630777
0	11841	554715.048588430325	5404.8861113511
0	11849	554979.379987953866	5531.7533916518
0	11854	555231.310780898491	5229.6005553303
0	11881	557235.870230336169	6246.3137965422
0	11889	557624.634144445901	4741.6869469157
0	11901	558281.9544241155	5290.0368963274
0	11924	559884.937046199801	6706.6824413671
0	11933	560665.958080395345	5042.6565143029
0	11954	562580.957317640039	6043.5874033998
0	11968	563570.34183835756	5398.3891233308
0	11987	565856.50581749844	6692.0736442523
0	11998	566369.223382146303	4987.3429364391
0	12035	570100.211461381304	7747.9382612416
0	12040	570425.861556543687	5287.7045290317
0	12052	570943.492389233972	4617.5636747154
0	12075	573415.191812780046	6666.2903071982
0	12111	575414.143985370316	6452.8516794839
0	12130	576342.862919516501	5460.7347507194
0	12155	577349.633917789669	6043.5056313481
0	12178	579117.966148574527	5156.6064911
0	12190	579752.004505627242	4923.2247701302
0	12198	579996.061895005542	4764.3686545402
0	12212	580548.954800647957	5144.2713584597
0	12220	581030.770043721133	5008.9726534127
0	12235	581715.700608795633	4378.8538253857
0	12254	582609.781933116193	6255.9783913879
0	12288	584351.679739542117	6434.0513813775
0	12308	585398.825348760441	5456.1169975409
0	12345	586668.525252217928	4956.8022758306
0	12359	587361.258424681115	4724.5596890449
0	12367	587682.615497246835	5674.0338805006
0	12375	587989.15435624936	5307.7715725252
0	12398	589039.474086427165	5212.1800764253
0	12427	590210.058767654372	5461.0297962982
0	12446	591088.23885829456	5811.7451958685
0	12451	591365.267676863914	5677.5917626784
0	12460	591666.482493908769	5842.6029812774
0	12485	592633.020171161841	4802.9723753903
0	12490	592978.714641566521	6330.7155786858
0	12502	593478.637970090634	5001.557605852
0	12519	594329.845646549918	4709.2765277526
0	12533	594933.108181391705	4949.2001896601
0	12541	595408.635495594327	5336.626530618
0	12559	596800.705170952648	5422.8126546249
0	12568	598150.576344451806	6469.4129367004
0	12597	599465.749937668852	6206.900726464
0	12637	601879.49653378904	7723.3612392132
0	12660	602841.226373868367	6640.2886158764
0	12677	603459.511878984935	4870.2552124398
0	12687	604007.265309561631	5173.4496056
0	12696	604467.318364785951	3769.9486324539
0	12704	604950.614759388755	5485.6698379354
0	12716	606000.253424907568	5155.7036434529
0	12753	607264.387385124217	6233.7232536359
0	12758	607580.46194358661	5337.4989011562
0	12764	607927.654967056675	5258.5216442777
0	12782	610129.901641442889	4396.4397015523
0	12794	610540.999713902874	7405.9711384685
0	12802	610829.761583777922	4601.0880380138
0	12833	612230.165604812638	5921.5222851126
0	12860	615175.180877720139	4563.689410574
0	12872	615686.005373855908	7653.5784638405
0	12880	615967.250467197719	4851.5587490265
0	12922	617439.491251893778	4961.2833255463
0	12927	617741.447822677987	6078.631719716
0	12962	620165.711037390377	7393.1503912739
0	12973	620507.328480030394	4404.5785227167
0	12982	620833.350009701278	4906.9016662998
0	12995	621435.922679735642	5439.8502550081
0	13015	621998.8134959524	5489.3662279136
0	13029	622671.800725696622	4465.3575579591
0	13046	623663.17509112094	5008.2776337689
0	13070	625366.724711910565	4796.1961818785
0	13092	626244.14018066243	7060.3185323921
0	13100	626579.3232439494	5094.939454202
0	13109	626876.614419977506	5109.5352447798
0	13143	628524.988433486319	5842.4510704556
0	13171	629900.979581119595	4589.5209048735
0	13182	630510.424414707072	5747.9962609633
0	13202	631461.872866317519	5911.086238529
0	13211	631772.998618753466	5176.4912694125
0	13216	632102.237556592075	4726.3486492415
0	13225	632614.028908159447	4917.6658012394
0	13234	633473.643982122215	5289.4305205676
0	13242	633767.056208725147	4998.6256095242
0	13257	634862.7843410519	5195.2480913918
0	13327	639614.428119609879	4951.0041005665
0	13332	639944.58798191682	5138.0000484102
0	13337	640260.892203549034	9740.0942508086
0	13346	640628.709325543127	5731.4809146292
0	13367	642393.398253339218	5515.385962562
0	13378	642680.824751499987	5416.7770182228
0	13406	643836.482281550755	5751.2114310169
0	13415	645072.78569233875	6066.0799148815
0	13428	646500.508789562619	5547.0976874743
0	13439	646747.709843917972	4199.47787079
0	13500	649201.498451207377	6606.9022215797
0	13524	651387.550876899383	8335.3032698228
0	13536	651666.782882949242	4963.8132395233
0	13541	651949.385056502306	4412.485060458
0	13549	652263.031461008111	5062.1628056534
0	13569	652805.111473654909	6069.0894802666
0	13608	654256.00625867503	6497.1159317752
0	13633	655157.071184970194	7068.688141318
0	13643	655637.408341383181	7394.7450327517
0	13658	656371.201410483125	5646.601600188
0	13689	657597.691117328214	5528.2984936724
0	13697	657867.202208977771	4808.421158736
0	13705	658182.797913448768	5403.2515328342
0	13717	658527.848575861425	5417.5307713171
0	13730	659109.319766785547	5716.9970386414
0	13742	659395.135087525459	5201.8009636693
0	13752	659949.380491476488	5609.9518924675
0	13761	660454.124182388807	5607.7204127331
0	13781	661541.846897120495	5210.6840815307
0	13787	661835.675047689756	5309.6905385626
0	13796	662901.510326594805	6062.0425473526
0	13807	663292.319650386537	5020.3435663723
0	13875	666072.867211097439	6859.5185506096
0	13900	666979.229936808166	6472.8901157541
0	13920	668107.041417135996	4908.1294643551
0	13940	668697.179121661254	4749.544232382
0	13973	669955.861159459626	5866.5417410699
0	13987	670252.450402871336	6051.347047191
0	14001	670808.639853871358	6254.5327896303
0	14006	671127.763612505442	5699.8699026303
0	14015	671348.731334843958	6794.3471323064
0	14031	671955.815490710917	5992.1763101776
0	14051	672890.907822147419	6786.0758224358
0	14065	673186.132663901089	6293.6628111833
0	14079	673758.1009873184	5978.3864975912
0	14087	674035.666395226075	5342.6182636358
0	14101	674685.881825346562	5995.2043237826
0	14106	675010.010934335581	5933.309331813
0	14115	675777.755576538066	5766.8620386472
0	14126	676272.834555010991	4544.1158557628
0	14132	676582.57224832849	5235.0919441543
0	14141	677217.891497764545	5099.8399216611
0	14158	678502.534764801899	5431.7170341404
0	14186	681450.8594322602	7645.1612289999
0	14220	683983.835765255383	6250.9719326946
0	14238	685030.645930003812	5071.0355036233
0	14258	687562.057241038695	4800.9176963092
0	14268	688186.956673652555	5210.3384869365
0	14277	688508.089530324606	8021.717344253
0	14282	688762.658874094404	5398.9299863751
0	14310	691749.166887386236	7498.6098908938
0	14328	693974.092264005502	6609.4346872284
0	14340	694529.180934735948	4419.5586341248
0	14379	696554.901321565558	6040.3094910457
0	14415	699091.497918021677	6359.4273670266
0	14426	699659.484023114502	5182.032651115
0	14440	699994.030265975919	4764.0731885822
0	14459	700820.223236089488	5465.0480797831
0	14473	701593.555084662781	6168.416770035
0	14493	702485.360298673146	5295.9682299701
0	14510	703240.630395161468	4980.0457797045
0	14532	704119.993856119593	5249.3742344765
0	14540	704453.034131291774	4680.4673352332
0	14566	705519.098473906151	5612.9204384701
0	14574	705881.474751768897	5314.8257686453
0	14591	706903.231415344107	5225.0923282631
0	14600	707473.166309602516	5219.2018260792
0	14617	708200.732787103742	5195.8429169048
0	14625	708811.726205938523	4123.1954730422
0	14642	709417.245009504437	5890.0966863259
0	14657	710382.466817992473	5672.1639744188
0	14713	712704.838321885035	6531.1511182478
0	14727	713286.617556991573	5748.8281477611
0	14762	715024.076888075449	6158.3938887405
0	14778	715581.825217991152	5359.5566080167
0	14795	716200.684949928825	5858.070652667
0	14806	716487.582481881132	5331.3255985736
0	14823	717167.403687940931	5948.0597612408
0	14857	718414.622641102482	6985.1286486809
0	14870	718998.161966467454	7489.5354985226
0	14882	719301.113705929708	5321.5284463698
0	14946	721620.459457428513	8968.3381373199
0	14955	721931.391445548913	7818.3705667319
0	14969	722590.55991315135	7718.9890243299
0	14974	722906.664803945495	7357.1946179091
0	14985	723184.710284391746	6072.3435596213
0	15002	723809.238799032615	7563.7357721012
0	15010	724087.334599489254	7196.6915456315
0	15016	724389.379657770065	7194.7160340046
0	15024	724705.42413871212	6379.6660120995
0	15029	724981.13065450213	5906.3469899929
0	15041	725270.87903824083	5704.2912108994
0	15054	725867.828026770866	6005.3342513105
0	15060	726089.006660411349	6116.530104634
0	15065	726321.806380927258	6260.8259214396
0	15070	726608.796629798197	5684.5342889547
0	15079	726993.779061090023	5193.2866449938
0	15098	729814.763811515805	6679.4324673181
0	15141	732849.86426216638	7626.1326107667
0	15198	735101.15246596204	6559.6763992459
0	15223	735905.25798229719	5759.3224962194
0	15248	736905.588863084313	6222.540994454
0	15276	737775.73577989766	6304.344088045
0	15285	738081.300183039323	5819.8033125849
0	15313	739009.20111023949	5669.7157042303
0	15329	739630.703814989271	6120.7243525599
0	15338	739917.01278192454	6437.3046746923
0	15346	740240.780704864736	6692.1010854036
0	15351	740477.913485611905	6818.4209038375
0	15360	740798.902829415027	6001.0340718277
0	15365	741065.704207096339	5349.3952241811
0	15373	741396.858238300238	6278.4291241588
0	15379	741694.310768339704	5605.1049146893
0	15384	741985.229611665633	5075.4920120934
0	15392	742278.073402249347	5603.1371856953
0	15405	743429.993066619734	5597.4173416712
0	15416	743720.105833316795	5320.1171443753
0	15493	748173.57525342745	9318.5210913923
0	15510	748750.140680198243	5104.2541930877
0	15521	749349.545863901328	5683.6648681124
0	15530	750044.631817451248	5220.7391572414
0	15538	750484.961194498011	5275.0821831214
0	15550	751017.025028584619	4496.0971439545
0	15575	751875.301967795887	5116.660567015
0	15583	752121.962999058126	5478.8467233483
0	15588	752419.561452981482	5099.7638927351
0	15597	753195.145129931857	5105.5784234175
0	15614	755308.988774738843	4362.867700612
0	15624	755894.921888794804	7179.7169671786
0	15696	760246.890855851347	8963.9477593828
0	15713	760827.643758164459	4691.3809117816
0	15718	761146.24608348812	6136.5207880802
0	15727	761881.724697211352	4843.4147751581
0	15751	763019.505177284317	5931.3950587852
0	15767	763585.47206051953	4744.6233095795
0	15779	763920.839786036294	5040.0061326254
0	15789	764413.460540236404	5657.3915336124
0	15795	764706.214890847523	5341.3938089641
0	15835	766681.59456574779	6486.9686958029
0	15857	767646.130657409493	5285.3867469953
0	15862	767986.519860780035	5261.3347575163
0	15875	768961.655985411995	5353.937350198
0	15909	769903.820924198197	4534.6808966401
0	16015	773748.139983573892	8843.5392781102
0	16021	774042.704401748763	7685.5035231355
0	16029	774362.755932779794	8653.7870008446
0	16037	774660.405819057139	5832.6330139485
0	16065	775567.677953181362	8966.1678779474
0	16077	775849.35859496346	6150.0891626495
0	16093	776426.62399973047	7336.6980841311
0	16102	776773.541338815996	7054.2477302869
0	16116	777072.610483630087	7298.5143703863
0	16143	778234.457344902951	7381.8165443056
0	16160	778827.567867234539	8854.5784072869
0	16165	779124.421886556776	7847.1502135534
0	16177	779394.271295618007	7879.7323663429
0	16196	780244.588080403523	9378.0093519096
0	16204	780580.21918975759	9183.423591057
0	16218	781152.348798661594	9293.8768767697
0	16237	781700.66046145313	9721.15890117
0	16246	781967.704254722204	7209.9923453624
0	16251	782230.216589653582	7858.0538086312
0	16259	782521.031513210375	6827.9178312812
0	16279	783157.949025052341	5850.492945169
0	16344	785318.566772016117	8451.2366023335
0	16376	786811.229837086645	9979.0134207117
0	16385	787138.972654360297	9056.668785189
0	16393	787362.909003594314	8055.407913064
0	16407	787695.85660745497	8071.6503935693
0	16421	788287.294943690102	7883.5519322542
0	16432	788537.172315537847	7655.2373421829
0	16461	789526.907125550192	6695.3842929517
0	16480	790120.899388911789	7735.292048377
0	16486	790454.89451448011	7464.8941638054
0	16491	790757.724135306287	7820.3364614992
0	16496	791045.874838430839	7755.8326016904
0	16502	791332.829913167365	7820.2751090029
0	16510	791643.298415646496	7341.9859380432
0	16518	791960.6523563015	6258.8325477119
0	16605	794979.76787416364	9915.8237860185
0	16610	795237.406460078714	9989.9912814797
0	16619	795587.395147281156	9581.5923733037
0	16627	795893.535739750873	7498.6729356567
0	16635	796255.63568769642	8767.8521389119
0	16664	797309.36976064936	8488.6315876266
0	16678	797618.951616451339	8194.7869437402
0	16683	797915.471725221702	5961.0608421534
0	16695	798222.295086027192	6054.6402873066
0	16706	798926.460447209842	6560.450637636
0	16711	799240.800603964449	6261.5716983855
0	16716	799513.077018312837	6577.5487629005
0	16722	799849.31937039208	7057.4175675098
0	16730	800122.595312866406	7935.8075839609
0	16741	800402.115749859354	6500.1292860214
0	16760	801334.005109670598	7255.1939778916
0	16766	801670.052076197503	5671.5184226291
0	16775	802577.123986049055	6239.3236083101
0	16801	804578.690804481463	6614.1751318712
0	16810	805374.188846524749	5246.9847403957
0	16824	807898.112861600123	4259.1063103453
0	16832	808169.754533293047	7771.9643431168
0	16898	811990.155661977467	7973.5885924016
0	16909	812418.604024325028	4343.5306055906
0	16926	812909.79940521646	4310.9813617512
0	16931	813177.758968434139	4950.1049965821
0	16951	813845.957205407181	3949.1416365921
0	16965	814421.628188589671	5444.3141426032
0	16973	815006.277035999563	5026.0732621988
0	17048	818727.924069984948	8243.5868013919
0	17053	819016.904075071883	6882.1492914401
0	17058	819336.268170485472	6096.3388125856
0	17087	820715.59464584458	6878.5320760028
0	17098	821053.123044830198	4783.5428080846
0	17107	821350.975875415785	4849.787140235
0	17121	821692.144495969397	4993.4473759963
0	17132	822280.143789995805	5219.4680145304
0	17137	822627.935953349077	6202.0907947413
0	17143	822961.678792392988	5632.1385969083
0	17155	824566.452065599634	7165.790052714
0	17161	824891.174367686306	5014.6187631501
0	17173	825849.129800188704	5917.892326759
0	17222	829318.615388813513	7679.7861902752
0	17238	831135.751105615033	5420.9118002736
0	17249	831845.608300230853	4583.437773452
0	17257	832198.898581082095	4596.7667093553
0	17266	832553.381347094548	5269.0946400763
0	17325	835436.380608500894	7375.0981597232
0	17342	836312.941559171931	5360.6345963919
0	17359	837302.061509400719	4604.8704756289
0	17368	837775.812548211174	4734.1665752947
0	17388	838917.292827631378	5605.627165137
0	17408	839561.525664549712	4840.9333916722
0	17413	839864.557675882069	5454.554501396
0	17419	840171.492604998298	5941.3499684712
0	17434	841330.506776818377	5880.6041246594
0	17456	842375.786605997302	5817.5703975448
0	17462	842648.349888894116	4700.9085750717
0	17498	845551.594658868224	6953.0909735364
0	17517	846431.659944693862	5132.677396681
0	17525	846712.279317825853	4018.6978826731
0	17531	846983.494323895375	5680.9216192646
0	17550	850227.840922048313	7314.4474347017
0	17559	850751.639343128839	5345.8358182718
0	17586	853025.994593362463	7482.8649480183
0	17613	855490.95186016923	6367.1013022445
0	17630	856314.700621853847	4465.6486604413
0	17667	858379.457036080944	6138.261943807
0	17672	858743.577166429278	5111.9134846056
0	17690	859997.095192857278	6097.1575367887
0	17719	861575.535211899498	5815.2044940133
0	17730	861847.903686465287	4728.4286617659
0	17741	862453.871462842124	5108.7283037993
0	17750	863161.300710944881	5468.9030767462
0	17947	869770.702809810385	10360.53052472
0	17967	870415.221370778992	9816.0697647273
0	17978	870712.153407004913	9822.8429797372
0	17992	871353.311904239129	7591.3289629633
0	18003	871692.208819502678	9859.0295109635
0	18012	871981.882736143692	8282.0557672166
0	18017	872296.041562834474	7945.9985450843
0	18025	872555.257539380267	7571.1960185906
0	18031	872773.512114129137	8894.7577008868
0	18042	873050.366023006085	8686.0145870436
0	18050	873297.986174721829	8069.2750844241
0	18059	873606.254544909694	8464.6108360095
0	18064	873985.316659180692	8937.4054399815
0	18070	874313.936884535012	9092.8774323393
0	18078	874616.288106863224	8996.5761161808
0	18083	874891.063245967376	8731.2167149477
0	18089	875197.483768028222	9813.1065300989
0	18094	875506.233833821175	9063.2073183923
0	18102	875827.930285581641	9020.980408802
0	18116	876475.626285191933	9716.2795399815
0	18127	877015.508654681263	9626.4804734036
0	18135	877296.827380554795	8822.9875872278
0	18146	877887.715026828346	11014.274163199
0	18151	878199.731727316887	8514.8420788778
0	18181	880391.803046885603	9722.8338633984
0	18194	880973.495143570186	5379.0458254353
0	18206	881356.544007362377	5019.2449587203
0	18240	882933.899818558438	5893.464300483
0	18245	883281.633345122752	4792.9313363093
0	18254	884318.751594893568	5805.3982101526
0	18263	885245.947640750816	5048.8979700778
0	18272	885570.297952342151	4379.9145873444
0	18289	886499.802363272619	4999.0952510393
0	18348	889712.826946196444	7424.1672864207
0	18374	891247.653106552817	5385.1324201368
0	18383	891591.521367995347	5067.098367124
0	18397	892020.15124695086	4888.7868243802
0	18408	892596.054589200655	4629.1182581133
0	18419	892888.755956845249	4631.3598873402
0	18425	893222.810230295515	4432.2792638208
0	18450	894667.296111271934	5771.4738593658
0	18459	895442.707669015775	5045.8179458713
0	18469	896605.864507052966	5992.7476793012
0	18492	897619.575837833674	5862.4623600401
0	18511	898592.89840280478	4858.1370470013
0	18524	900100.890767313613	5948.1960914879
0	18566	902338.285219481224	5611.5610309888
0	18572	902622.912171474665	5068.8493201888
0	18597	904224.182719094346	6631.525093868
0	18609	904769.668313813126	4774.7028046181
0	18651	906325.443299755487	5609.9529673035
0	18659	906607.963834282438	5199.8110598568
0	18668	906888.702901116725	5398.7954026119
0	18681	907428.238961674096	4630.828462644
0	18699	908909.610098237777	5600.5383384843
0	18710	909391.889671296367	4714.9326431327
0	18719	909635.288816437184	4232.2123429804
0	18724	909912.548901108119	5028.0397616446
0	18733	911087.781186369209	5554.6896127283
0	18774	912933.472721801884	6122.7007592335
0	18842	916142.015133794909	4281.6416749748
0	18898	918106.14267122871	9878.4963899004
0	18909	918404.950926204452	6714.3054266301
0	18929	919012.802272265825	6107.0974413816
0	18957	919896.112213078877	7566.8950716179
0	18962	920190.614561999741	7265.0105142173
0	18973	920485.323099400236	6710.0043113004
0	18998	921408.664153303372	7238.7887725046
0	19004	921723.372851019449	5867.6941058825
0	19009	922032.653802803083	6167.1063306192
0	19015	922353.047812057279	6968.9321158484
0	19026	922687.704263503839	7701.2152203074
0	19046	923330.208687946672	7385.785065188
0	19090	924768.891785346364	8288.3800805637
0	19137	926551.34091438293	9512.0835783872
0	19149	926791.707547495705	8657.6008273118
0	19174	927707.60013027553	10381.3160316
0	19179	928005.384707793419	9241.1898617848
0	19187	928270.112198058284	9399.2570098972
0	19193	928564.528197287508	8330.3353917362
0	19201	928844.001412161823	8551.5270860177
0	19213	929183.814384754326	6763.8707720123
0	19229	929859.677219180303	6735.4325800636
0	19257	930799.641400716341	7684.4752585991
0	19266	931115.307991583277	7471.7061667791
0	19271	931390.760456615241	6824.7408815479
0	19277	931775.374703673412	7878.1858203777
0	19282	932060.870294668051	6352.8415689067
0	19287	932331.976164383493	7310.851884655
0	19293	932652.793741003531	7737.4790972515
0	19301	932921.347116898239	7155.2331496061
0	19315	933481.390933763743	6920.7668622715
0	19320	933679.913773771737	7049.335995703
0	19331	934254.626717369428	4616.5463365017
0	19346	934543.562957636435	5649.4195808731
0	19445	938484.961255090011	8585.4557691471
0	19457	938896.828582099276	4529.4802821012
0	19468	939170.013760992973	6342.9479989561
0	19477	939468.656183315577	5158.8083724963
0	19502	940459.249903872599	5992.8839476481
0	19510	940735.213363593212	5843.5248411633
0	19524	940983.870781308554	5987.7799390251
0	19541	941588.061465257099	6461.4446671186
0	19558	942148.568731471944	6336.8123830387
0	19563	942463.372196278874	7130.6439914349
0	19571	942745.379425317284	6345.7533544877
0	19580	943038.266808826826	7152.8429274601
0	19610	944178.061822126884	7750.8970168435
0	19615	944501.169536534205	7785.2349564773
0	19624	944789.025127995495	5609.0939044134
0	19657	945995.449588445224	6524.5002735276
0	19665	946276.27635013982	5348.5519664894
0	19679	946826.941215840158	5435.5470281128
0	19691	947366.936409817319	4310.2484726408
0	19696	947638.131416698506	4811.1626625165
0	19722	949554.657532123726	6254.234037405
0	19745	950292.399741253805	5621.2077151843
0	19751	950626.201971712266	5604.5151516103
0	19756	950903.154061783749	5539.1577239247
0	19781	952132.753457998213	5942.2856704276
0	19790	952813.709964449146	4927.1971868597
0	19802	953723.43385361077	4809.7437435051
0	19836	955529.151726518906	4228.2805662627
0	19850	956153.662029038607	6492.2890504699
0	19868	957745.600832564773	3687.5421874627
0	19880	958397.340477690014	4913.7805845716
0	19885	958697.742950361642	7290.9481068347
0	19903	960068.910285365568	5481.3561750804
0	19914	960690.923328879397	5194.3810385541
0	19991	965065.854556888529	8081.7876725856
0	20000	965346.927498948657	5923.020474275
0	20016	966003.152956241011	5407.4847198541
0	20022	966348.927762493616	5035.4281333287
0	20043	967914.552917653643	6398.0495426232
0	20051	968178.373411280477	4868.0480780076
0	20062	968550.650178239159	5126.7530381956
0	20068	968852.496905488578	5467.5304405262
0	20076	969194.96259001658	5383.2069603848
0	20090	969936.106585422407	5698.9904743142
0	20116	971311.849838420747	6140.4828546468
0	20126	972924.471981768783	5730.1770817167
0	20154	974590.176925450478	4293.3148582951
0	20160	974905.918704680185	5908.5060691021
0	20197	977063.36841591841	6622.84102211
0	20231	978446.148954223017	5360.485541325
0	20236	978715.047262477047	4868.1391085139
0	20265	979817.339356524429	4881.1424518675
0	20278	980518.432194233015	5218.497061475
0	20298	981365.422571068698	4968.7178438137
0	20307	981684.117651457054	4634.0545042389
0	20312	982042.741069581196	4836.6354969247
0	20321	982749.254126636703	5048.3835210103
0	20330	983324.394471570682	4394.173997418
0	20350	984195.707274235563	5143.1402105231
0	20364	985055.978525314601	5519.7484482345
0	20434	988259.145232815388	7592.8767422917
0	20440	988594.853768663956	5082.4249877707
0	20452	989712.442454490506	4652.7216633477
0	20460	990013.363047212732	4047.6215173111
0	20466	990334.102050788139	6337.4414879707
0	20477	990607.114686228367	4555.0773035751
0	20502	991638.282930726337	5396.0966216433
0	20514	991917.677830376156	5016.3094598638
0	20544	993224.115427919623	6068.5096303618
0	20600	995401.326339670231	7743.0325008692
0	20608	995922.661379848519	5503.8361283822
0	20620	996364.584029001826	4657.1320966124
0	20625	996697.282236892065	6057.4606376218
0	20645	997459.888431594679	5249.6646559895
0	20650	997731.677552325674	5353.8695523828
0	20659	998124.786388486206	4584.6057590971
0	20673	998567.239105540467	5482.0737655799
0	20679	998898.827421178657	4825.3058607939
0	20687	999207.183412752475	5627.7652308997
0	20699	999520.734867509061	5362.1078356107
0	20743	1001278.176857812044	6757.2194546532
0	20761	1003662.149186045805	4425.3320001605
0	20784	1004315.483484873096	4543.2513391021
0	20796	1004623.11096533659	7779.4839560266
0	20806	1005217.141499608322	5736.7552473364
0	20812	1005495.583558105547	5222.9343244308
0	20846	1007240.607156191816	6776.5965697032
0	20858	1008223.256091462361	5243.7441681426
0	20872	1009108.144548816393	5351.4023089242
0	20889	1010221.394223692272	5809.9730279735
0	20898	1010693.357396372988	4765.0456621149
0	20906	1011028.648169928832	4914.0520793087
0	20931	1012160.454684565793	5529.9950637225
0	20950	1014094.107524914395	6040.5322073877
0	20991	1015703.797458392591	6131.7939638113
0	21028	1016881.163084449012	5780.9552796009
0	21042	1017784.862450938362	6574.311530175
0	21059	1018526.409555789327	4275.8276496328
0	21067	1018887.86915436005	5676.3431395394
0	21079	1019186.862799972965	4729.1879609726
0	21095	1019775.740282906251	3806.5594649824
0	21107	1020077.94772224887	5331.2374131033
0	21126	1020675.039381792577	5495.8685365311
0	21190	1022997.403687611688	7267.8419558748
0	21201	1023248.891544826392	7085.5562475077
0	21215	1023795.103954584129	7041.054210488
0	21235	1024419.886027355597	6627.6822939877
0	21263	1025376.120679998178	6452.8840356083
0	21274	1025695.69746505901	4984.7009581622
0	21291	1026311.052862069075	5029.2228814805
0	21296	1026609.023493768891	6129.467144334
0	21305	1026897.721662572507	5514.3540120187
0	21313	1027223.841567848148	7171.8515257262
0	21330	1027800.360470249199	6216.6476684601
0	21366	1028965.198641253966	7382.1461223158
0	21383	1029527.068715261844	7534.959569771
0	21393	1030085.416829033695	6977.8576971448
0	21402	1030417.12402446845	6801.2909054495
0	21415	1030988.0641849412	6852.9332971763
0	21427	1031278.477251696651	6997.7543415633
0	21452	1032174.123798410926	6697.1758594436
0	21465	1032804.025834745189	5246.8562320167
0	21471	1033107.731359252868	6032.2961918932
0	21479	1033407.077183252631	5691.3382490308
0	21487	1033675.911658323725	5607.0939593307
0	21496	1034013.710486159696	5149.9083175632
0	21535	1035539.546950548269	6169.7690580186
0	21554	1036166.918669487386	4997.781153298
0	21560	1036475.272451457286	6197.4492933259
1	2531	122654.744483262567	228.40334618674
1	2573	125076.050173871569	161.2201035186
1	2582	125375.745990339279	0
1	2590	125833.750192927116	0
1	2607	126712.916540181512	110.17378262838
1	2625	128428.972878928372	71.48913118857
1	2651	130103.901769378449	247.65179299152
1	2668	130682.329968876391	94.947150869327
1	2677	131238.402577435953	0
1	2686	132438.210367425255	0
1	2700	132697.257580537485	230.71734593045
1	2709	132978.862390847294	337.37530301924
1	2714	133262.883500856363	417.58877241893
1	2728	133869.039578681013	154.04861795611
1	2750	134504.022696798041	231.94273934537
1	2764	135134.026415626402	245.29116848066
1	2787	136367.672742635474	0
1	2815	137336.298158974479	258.53094400657
1	2826	137588.139478696187	295.99874054954
1	2834	137921.197019697447	378.61408303163
1	2843	138249.789895179298	657.08869667885
1	2873	139582.187597302858	158.3360824586
1	2887	140219.659871392166	73.180740644498
1	2898	140541.185945041254	73.817413417091
1	2913	141453.219082885355	0
1	2930	141757.598000758382	231.72370013847
1	2941	142059.87163060489	438.69077802406
1	2950	142339.519167688826	71.134057614012
1	2963	142935.875919585345	100.62598057995
1	2994	144056.898191156295	197.92304079866
1	3015	144848.456438005646	236.07634709567
1	3032	145410.892143778397	96.7748811688
1	3043	145714.059777177314	151.26502081221
1	3058	146037.807197798432	59.828438955252
1	3072	146587.620524932551	248.87101173636
1	3083	146907.237180557065	76.670952014234
1	3091	147178.682918882348	336.38610627086
1	3106	147501.330703901391	363.64822669038
1	3114	147771.728097222913	429.25394964298
1	3128	148093.270497996895	692.57919510145
1	3134	148398.080562571885	573.5479122681
1	3142	148742.692218840945	776.58231567042
1	3147	149023.276300812219	959.80639798325
1	3167	149581.914070479725	130.16882767018
1	3200	150669.813851346785	132.03892026836
1	3225	151618.717104566872	121.1130282195
1	3273	153191.181173324801	136.27514328425
1	3282	153489.430558679346	421.09169330959
1	3290	153817.62692620214	367.52704122314
1	3328	155531.230665212938	184.10459201073
1	3355	156749.501193185342	205.5273733688
1	3413	159092.239869398181	78.497431403866
1	3422	159786.218036666105	0
1	3430	160134.663697335471	0
1	3439	160475.135173386306	0
1	3447	160798.999111578786	249.87411588459
1	3464	161497.748595710518	92.596612272119
1	3481	162384.376161711126	156.48719482441
1	3533	165658.647972631972	41.240707797115
1	3547	165941.40011513054	79.579237912845
1	3552	166248.550475195911	354.82790888833
1	3595	170825.49200608743	0
1	3603	171179.592494723463	167.45223275259
1	3612	171475.309079632813	222.03800551215
1	3620	172202.15925597534	0
1	3629	172515.208318644326	0
1	3637	172835.462033121163	145.75195790572
1	3646	173612.856798114565	0
1	3654	173917.018847237927	6.182688848411
1	3663	174222.038539516757	106.41967717101
1	3671	174679.209456920024	0
1	3711	176196.701809800177	289.92863323242
1	3773	179394.808757786121	0
1	3790	180466.521091406948	63.76988477099
1	3801	180785.559305871082	127.95201795535
1	3816	181074.404716641819	342.20476149265
1	3824	181343.347639259883	522.15382041378
1	3829	181605.51294708094	634.32197673132
1	3835	181926.600654765088	930.75534400183
1	3840	182254.607992815025	1168.0611311222
1	3849	182960.915282894889	0
1	3890	185248.71569768696	168.47580964911
1	3923	186415.748421098853	171.12744657489
1	3972	192196.764999428012	0
1	3981	193596.813948604121	0
1	3990	193918.554839086154	104.3305076193
1	4009	196414.455291347268	0
1	4017	196767.308957504156	0
1	4025	197116.06383323617	98.935250391193
1	4051	198179.692090756836	0
1	4059	198775.683535039084	0
1	4068	199455.654725582464	0
1	4089	200813.667303665083	233.76979998589
1	4114	201627.131192096369	234.49035752235
1	4122	201933.191221121695	323.47613132871
1	4130	202244.844636114809	483.07387048477
1	4136	202593.903650084813	527.81857429285
1	4147	202916.337374279595	204.78621407377
1	4164	203505.918274428596	113.27098353196
1	4204	206162.715032043107	229.70123019167
1	4227	206730.702129584489	181.40393824978
1	4235	206986.989003123208	73.019038408642
1	4246	207276.295049964196	110.09210258843
1	4309	211218.06633567186	129.78673870821
1	4325	213711.709724381589	0
1	4343	215266.187638768948	0
1	4351	215573.169267174786	198.68089876995
1	4359	215900.516092386227	290.52710426435
1	4369	216935.353098230124	0
1	4386	218192.851440616328	86.795411730097
1	4394	218454.421768246765	192.87824619549
1	4411	219142.726887787577	216.31579203571
1	4425	219410.452471231802	257.6778716749
1	4434	219748.793950891987	529.23967580833
1	4445	220059.690432356324	489.36439666821
1	4454	220392.708987555708	575.43713208912
1	4459	220708.404523333286	640.29699336226
1	4484	221667.288591823995	314.64065656338
1	4492	221959.609863121267	386.5477191462
1	4498	222232.852595503811	510.41803631926
1	4587	225685.302989018166	107.01480319773
1	4607	226309.249411040592	150.13839693806
1	4631	229046.647551496561	0
1	4648	230008.018362637511	0
1	4658	231695.287999854491	0
1	4676	233990.124122853848	0
1	4703	235802.233410816582	0
1	4712	237230.028030227338	0
1	4721	238080.358340727293	0
1	4733	238374.481005363293	213.73038634239
1	4738	238677.081488565012	514.59702646714
1	4746	238995.03810199445	21.344564872749
1	4772	240527.117632063793	0
1	4781	241598.846208230264	0
1	4812	242464.466445922485	203.5773204792
1	4829	243082.112843218787	258.77472757923
1	4837	243361.050256160004	85.726736713546
1	4851	243965.090492647053	109.43296206249
1	4873	244879.014613621592	181.715199426
1	4894	246110.21378763783	221.07041300464
1	4902	246431.995486118394	30.53335448724
1	4919	247093.886759621795	134.87327450104
1	4924	247348.465181634731	347.31087559409
1	4941	247698.17813225575	175.92261844168
1	4947	247993.6698116094	319.46694783323
1	4983	249554.958523708601	0
1	5002	250144.264094363526	254.52984172468
1	5022	250735.239715718111	146.53130636107
1	5030	251006.064809938211	313.16050458728
1	5039	251265.235820540177	565.50083894529
1	5050	251534.005685422207	280.63586019076
1	5058	251877.980529184721	374.26507865207
1	5070	252189.777872646474	269.09327754021
1	5081	252473.863697066648	215.15535779732
1	5089	252794.102537868176	520.05845412068
1	5095	253126.640140821953	431.28641104729
1	5114	253717.610975955052	238.74233645171
1	5123	254005.755907098401	438.28812569156
1	5131	254301.653083847485	164.72136502446
1	5143	254620.253130866141	273.33841909208
1	5165	255270.715876934171	19.864852221393
1	5174	255553.279075778053	14.931061716874
1	5182	255857.758260104543	65.635010446685
1	5196	256208.566067854786	256.71482532918
1	5208	256491.640559735258	492.77438451879
1	5213	256774.312661345486	465.06513001832
1	5230	257092.370418723026	283.83783451487
1	5242	257431.042870693118	205.44271477646
1	5253	257732.843666795061	456.84131204109
1	5270	258210.46316826424	88.510622563763
1	5278	258524.741437719109	244.86234559749
1	5298	259100.733840949526	252.61211456639
1	5306	259433.397483077669	556.10222060644
1	5337	260362.717875660929	243.28392331281
1	5368	261443.856092232366	34.99697821625
1	5379	261768.339676542967	212.43652586658
1	5431	263845.053474321813	185.51855148241
1	5454	264450.559950254682	181.61013191913
1	5459	264748.757101028348	355.2012568363
1	5473	265454.517545875903	236.25931113496
1	5485	265760.506079644247	302.68420144286
1	5504	266423.267951366323	233.31404964004
1	5510	266718.016549371526	443.73628284881
1	5568	269176.392344710937	286.31767177443
1	5584	269779.009038356945	241.22288143203
1	5615	270952.194125949961	306.01563120443
1	5628	271499.17427930135	40.371338879267
1	5637	271817.726986981799	82.909413942849
1	5661	272925.202218228666	35.554009656486
1	5697	274517.610852319347	36.760882806866
1	5725	275377.184333353304	278.75831948212
1	5730	275702.807970636264	433.06029146114
1	5741	275988.966021703633	107.24186586985
1	5780	277882.967488656494	206.29497511828
1	5788	278180.552235287655	126.76267241104
1	5805	278809.692703140752	182.27264578132
1	5821	279399.273665250057	283.7022804162
1	5838	280032.179836219818	69.131547742485
1	5850	280301.25684589277	96.507950747403
1	5863	280886.629221020966	121.4827960303
1	5872	281186.800157183796	265.68331651592
1	5880	281482.572335169929	173.11022731089
1	5919	283008.942321085185	98.095820239608
1	5927	283311.26565481309	143.50402039353
1	5941	283648.21318444923	119.3036666129
1	5950	283958.855132350422	336.25061570404
1	5958	284251.326568468669	406.45737758012
1	6010	286222.836578244333	179.33793050222
1	6027	286809.527459959962	206.14973107741
1	6080	288998.311379109892	268.12623562026
1	6093	289472.862997262855	81.777579517344
1	6121	292477.271894891237	0
1	6129	292739.541584877895	26.419683319818
1	6154	293780.368701430064	267.34216209463
1	6165	296215.059748652811	0
1	6174	296622.831639395899	0
1	6207	298122.144662315155	294.32608329204
1	6217	299422.935033091976	0
1	6225	299854.402136503631	0
1	6242	300670.150023878758	159.01625690287
1	6257	300953.34020513307	160.76151844312
1	6262	301248.840355711944	422.63943882318
1	6288	302631.346425727775	129.12024454271
1	6293	302931.092951558682	363.66040699862
1	6330	304547.358099075845	163.23653445824
1	6335	304818.97517043879	385.8358334488
1	6355	305479.430772244444	252.05519791258
1	6386	307221.901620326108	0
1	6394	307488.47175248415	144.04557849227
1	6411	308242.435558288409	174.95100243132
1	6420	308763.567824270226	0
1	6431	309112.864443912506	217.35976110098
1	6454	310328.364659949153	0
1	6471	311359.904239584139	214.00663650786
1	6496	312191.246191126192	0
1	6507	312563.244371244399	350.34487862105
1	6518	312841.718270838082	288.72390638199
1	6530	313104.574160525658	280.54633067843
1	6538	313420.147212634374	511.84173390498
1	6546	313667.448540322881	399.66903615126
1	6552	313961.771058564088	518.5716008184
1	6588	315668.689903567147	0
1	6644	317867.518717852487	72.307767112207
1	6673	319768.835784496629	0
1	6681	320024.091551093824	68.042215968397
1	6690	321233.250412465056	0
1	6707	322140.289729564865	0
1	6735	324910.976257020699	0
1	6752	325782.660309074956	0
1	6780	329424.15206630752	0
1	6791	329712.428841432441	4.020640550445
1	6811	330308.746863902721	242.42748382929
1	6816	330596.465290903722	358.76023705364
1	6822	330928.10197770001	651.75099898434
1	6831	332472.997573278636	0
1	6840	333027.196603856801	0
1	6874	334336.505476338437	200.47845070441
1	6897	335185.736042639065	255.10949692034
1	6902	335540.729283966421	427.0938017276
1	6933	337451.362823348013	74.268863483118
1	6942	337955.339046454127	0
1	6950	338243.013680458426	137.07342904725
1	6976	339606.526498616491	259.67185316559
1	6998	340175.641053583193	205.93958576022
1	7007	340567.033852067912	547.35380935443
1	7015	340907.197682047588	757.21975603636
1	7024	341186.15300792857	827.93370449403
1	7029	341468.730869319027	703.92645940501
1	7034	341745.99584482641	615.07179815497
1	7049	342074.931309130237	323.50422698059
1	7057	342425.1275419625	530.58327897105
1	7079	343267.863620541444	184.22473509171
1	7087	343570.544043043041	209.95325870786
1	7112	344423.961115503032	156.20457981716
1	7135	344984.806858805006	54.244836902266
1	7143	345277.237535454363	345.99399846879
1	7188	346769.446560175067	25.692656174607
1	7218	347938.321042036951	171.77064289788
1	7224	348247.029347037013	418.47193718329
1	7254	349497.949824270184	258.31388292351
1	7266	349791.840286828467	120.0242459067
1	7274	350053.395011194394	218.57010740131
1	7313	352138.784001949548	99.182041137728
1	7322	352459.138741121082	65.926926850672
1	7330	352705.047719598736	48.847049854661
1	7397	357493.351307198591	0
1	7406	358476.702613630631	0
1	7415	359974.228262337685	0
1	7424	360663.180996082988	0
1	7433	360958.045376975467	72.036660201992
1	7458	362000.007491221569	9.06374100886
1	7467	362601.125348181416	0
1	7502	365835.538876006391	0
1	7525	366424.977590768596	253.90206065803
1	7530	366646.052443010629	230.46535707952
1	7544	367363.823635028455	0
1	7552	367701.054422556926	204.87834457796
1	7561	367986.909985247659	101.7288389688
1	7570	368819.116534389651	0
1	7589	369414.206411025095	217.87522028101
1	7595	369673.604926753893	382.57707108888
1	7614	370288.619007737857	68.925998045312
1	7626	370530.451397952176	132.32649714786
1	7634	370836.298830829325	343.76980491117
1	7642	371132.762572736805	174.9991185927
1	7659	371771.704299212323	203.34772419151
1	7674	372067.358987386696	217.05884659116
1	7679	372370.140655424429	519.16046138226
1	7696	372986.302757274322	260.53421379133
1	7707	373275.19064026953	253.77831863858
1	7724	373857.72760297433	182.84048246503
1	7809	377028.344208625545	129.86260067214
1	7824	377327.386434016871	153.3047541104
1	7832	377640.466771328493	220.50975272398
1	7851	378583.39909127564	76.354192113649
1	7860	378867.956605456071	86.704931376486
1	7868	379177.728080130245	127.49890649731
1	7890	380214.558690465151	276.51951329969
1	7895	380444.32714514546	468.74339364141
1	7907	380727.679181007665	47.326869157673
1	7918	381033.799409722926	324.0304982231
1	7926	381314.924191307756	584.994823815
1	7935	381584.598735986764	19.224103582005
1	7970	383005.918116467145	281.44980493256
1	8035	385436.870976058929	194.69446724177
1	8049	386013.606997224391	249.27762881261
1	8063	386612.574533919298	220.31841411415
1	8082	387305.147657229358	317.18222431697
1	8091	387655.066828514862	478.05151439627
1	8096	387889.908077501515	357.92586243425
1	8104	388211.713126853946	176.64168555443
1	8113	388854.175974252412	0
1	8122	389402.336113993645	0
1	8147	390435.483802334697	68.815406952164
1	8156	391000.672477102378	0
1	8178	391655.198183878272	97.27043312246
1	8203	392561.952379694948	118.68073532955
1	8223	393179.700701288989	248.86601322671
1	8232	393489.417161664409	25.550254781586
1	8243	393777.707469807745	76.236657525037
1	8257	394384.459325942927	157.70267634803
1	8282	395214.140384027562	171.68285901719
1	8301	396179.114525697332	131.80601560487
1	8326	397096.418403648709	279.75774749992
1	8368	398998.195964103294	58.094224885614
1	8382	399560.135713922969	225.6107130054
1	8390	399817.95210053168	20.054351784309
1	8407	400984.612402858027	0
1	8422	401273.734178440538	285.00264230837
1	8427	401573.898192709222	543.77658646899
1	8441	402636.370039475788	0
1	8475	404252.908406713034	294.1821183242
1	8484	404618.430311548372	0
1	8495	404877.415671920817	243.60696151124
1	8503	405127.345107720759	290.07076132332
1	8536	406231.387586701635	268.88326710096
1	8545	406505.824735583991	381.84313763823
1	8553	406818.651279791016	301.18650397847
1	8567	407472.320786785654	200.84654606511
1	8618	410408.440941731126	0
1	8630	410721.49590511126	13.437483837445
1	8661	412570.227676277698	0
1	8669	412913.823503738215	0
1	8679	414043.92223219669	0
1	8698	414614.112319257348	9.258808177399
1	8730	417183.205970458569	93.795428635896
1	8739	417544.582999660255	0
1	8764	418456.05686499807	247.39775837283
1	8775	418745.916582018113	136.25564650143
1	8780	419033.948970828064	298.76412079316
1	8792	419337.7042237129	193.6732904576
1	8797	419642.461126040169	384.14974387318
1	8807	421347.250419234472	0
1	8832	422414.508653433823	0
1	8883	424390.559333997607	0
1	8892	425927.463822535161	0
1	8917	426857.012466582887	262.13651828709
1	8929	427180.924719586379	48.352643160825
1	8934	427405.816988477605	241.02554150472
1	8942	427702.257259883451	190.35871933667
1	8951	428041.590118594438	191.64109793465
1	8968	428865.613631273704	0
1	8976	429251.683142416875	0
1	8985	429568.458950586336	0
1	8996	429837.895921373211	85.394117712795
1	9010	430901.66396240034	0
1	9041	431734.922891671051	235.38874961212
1	9056	432027.429674285228	473.03621533038
1	9061	432324.909700201921	492.15083048246
1	9075	432615.991502102015	747.08954196275
1	9089	433171.588259206076	107.14883717407
1	9106	433768.814404779462	135.32781508511
1	9114	434051.47569982462	374.91787549089
1	9134	434680.581877002891	167.2953267114
1	9147	435190.979139390026	107.37073795263
1	9162	435504.707144000537	183.60096695581
1	9173	435847.81975552662	500.13747423897
1	9178	436167.504691568367	329.28487521388
1	9215	437384.274159198156	103.65921925017
1	9220	437650.695815537136	315.62654818066
1	9231	437950.80921991036	248.54382500452
1	9243	438208.489318144838	240.13789978596
1	9303	440578.86757633768	235.39414708575
1	9317	441170.749040748901	262.3050272686
1	9334	441755.115173157399	204.1357292843
1	9372	443066.269713504954	211.56176937249
1	9397	444286.058832960639	229.04211384109
1	9427	445459.368178617513	15.617975433593
1	9444	446121.650783889226	294.79468957962
1	9453	447166.904826447885	0
1	9470	447673.302960534349	240.24581422125
1	9487	448755.029699990549	0
1	9513	450033.618708086699	5.827442985904
1	9539	451901.878602954077	0
1	9550	452218.946765073679	257.53777870138
1	9555	452536.710136894889	567.43855770383
1	9567	452805.397697566118	84.450829030679
1	9581	453440.583925568901	271.5952323466
1	9598	454756.416248487591	0
1	9606	455046.757760948979	61.546755829891
1	9615	455868.409952335871	0
1	9643	456769.812732596297	200.84645624411
1	9669	457330.463459646469	264.24329285242
1	9674	457587.885692656811	467.67712627147
1	9683	457890.725146053765	570.52632141301
1	9691	458198.210506156044	593.2750828709
1	9705	458832.353053767266	105.28679026962
1	9721	459426.52725682251	218.73085393802
1	9730	459771.583620106075	197.54685370082
1	9747	460406.260353273388	97.316598984497
1	9775	461224.722575007442	266.75298700821
1	9780	461559.407716277633	469.99207835048
1	9811	462437.554991543058	55.010804817243
1	9819	462710.887217008575	140.43448153038
1	9828	462998.007831892015	186.44742972098
1	9841	463625.842954365702	242.06776320221
1	9864	464238.386414618004	198.95894679713
1	9875	464502.278284709608	428.52689152626
1	9887	464821.324218568528	473.6763362715
1	9895	465153.542629500752	504.72207764854
1	9904	465444.485886158657	674.56533792974
1	9912	465769.368388711342	290.14981038948
1	9932	466458.44651814559	117.82255057415
1	9945	467032.399554644577	78.583835728617
1	9962	467663.077235894127	147.48303528385
1	9973	467936.975965745716	7.322303191132
1	9994	468296.650846559869	226.68492395063
1	10005	468649.217692591908	468.56010297917
1	10011	469020.050670326884	596.32577908324
1	10072	471446.550478737777	160.26586277087
1	10088	472034.518685651455	10.093421171052
1	10113	472886.09795463502	4.014907740669
1	10146	474379.981860407121	235.6150456031
1	10187	476280.066876394575	93.862477885012
1	10198	476551.135555766158	51.200062628625
1	10207	476864.103113230314	69.751696986588
1	10215	477228.576140863674	14.668853468568
1	10259	479352.178864309259	0.00215870003
1	10276	480199.871181143959	0
1	10284	480466.799887856211	57.786189075699
1	10295	480786.410932626906	277.06652359953
1	10312	481410.134069003949	279.54351509972
1	10335	483185.624365674402	0
1	10352	483759.224071303969	121.28451613202
1	10363	484057.736256360614	216.18766207234
1	10372	484372.938606550279	147.6379607075
1	10383	484663.89435682459	42.081269844082
1	10462	489061.226147826036	0
1	10471	489899.246070748757	0
1	10482	490193.466117473581	133.22044719788
1	10488	490500.685228457359	406.30161861421
1	10496	490811.256798323299	113.97627982826
1	10505	492005.424069244557	0
1	10514	492363.474473150596	196.73615775102
1	10531	493057.220231220001	23.190160878896
1	10539	493370.540273469756	301.707142376
1	10548	493749.85783453453	0
1	10598	495680.821380706973	121.29606120813
1	10627	497482.854273732009	278.10307108797
1	10649	498371.76324399727	64.799360350263
1	10658	498966.212238440334	0
1	10672	499283.205625947415	195.68960985964
1	10680	499562.491733510453	417.32851679926
1	10689	499885.907371862565	503.96223575394
1	10697	500172.241121037129	330.3616791488
1	10708	500454.215361204573	344.23100748008
1	10714	500778.601833040557	477.08613102151
1	10722	501087.096739175412	762.36453242179
1	10741	502048.158784022824	161.87667631586
1	10786	503851.999400825312	168.57929482148
1	10801	504145.056919292875	105.96454386937
1	10809	504484.646766788929	163.82877218337
1	10817	504795.303857191966	165.92658939396
1	10867	506850.879525680693	0
1	10910	509515.589419713496	291.81722965978
1	10919	510210.489391071231	0
1	10930	510520.042383423809	236.80850027222
1	10938	510863.717893258554	410.22182321021
1	10952	511452.239995267174	166.17183976023
1	10961	512320.133016070628	0
1	10970	513148.981659431695	0
1	10999	514348.233109765264	242.87962853603
1	11007	514652.063440545687	350.03100403946
1	11029	515583.885968547859	0
1	11054	516661.858283057578	0
1	11071	517302.139810428227	0
1	11080	517847.565365993547	0
1	11105	518750.250047836828	6.683297597735
1	11122	519444.488493173353	139.15210912755
1	11130	519766.393792075165	12.704559645269
1	11173	522335.528837511172	247.10012224872
1	11181	522861.495547757303	0
1	11202	523819.066792355521	142.20675547431
1	11225	525760.586620997515	137.38174874714
1	11252	528070.611927210938	257.99830132186
1	11260	528409.915254689781	250.32737938244
1	11268	528828.640694801189	0
1	11277	529279.515317026417	0
1	11285	529651.566828511478	0
1	11303	530845.597168324651	0
1	11311	531418.773756841396	0
1	11329	532595.777605684586	0
1	11345	533082.584657532095	16.632401161862
1	11360	533371.585586539066	48.900016218892
1	11379	533987.301120678988	124.93077266507
1	11385	534238.656223600517	294.01642131922
1	11399	534543.500600391758	216.82184087906
1	11405	534879.768594760824	385.49529335952
1	11427	535792.693759972772	266.90394545215
1	11435	536099.271020510381	183.92349110036
1	11446	536384.024445638045	6.320503405483
1	11502	538467.554572836043	257.78228647972
1	11546	540261.635896613097	221.91985680149
1	11562	540852.222825242821	116.96391271451
1	11571	541103.835736495454	46.841835297356
1	11580	542172.22019707433	0
1	11607	544477.279566975906	0
1	11623	545016.137274174781	122.89714240811
1	11635	545354.698988481959	43.408936788441
1	11657	546357.476391812126	0
1	11667	547793.262328692099	0
1	11681	548104.377972670935	148.65872136838
1	11689	548368.257618211597	347.20530606956
1	11695	548661.243566348103	488.59454916831
1	11723	549602.589984859261	292.42750778008
1	11728	549856.756506664557	409.12991036246
1	11736	550118.014292994105	116.30406742589
1	11758	551054.317439923455	64.761006129442
1	11807	553189.071285201638	306.12408767143
1	11815	553511.890120825443	519.9725930373
1	11824	553797.518171157354	619.26356632465
1	11860	555623.301566092486	0
1	11869	556537.369914240213	0
1	11903	558281.9544241155	110.00170908872
1	11912	559164.432173246125	0
1	11938	561381.880445707225	0
1	11956	562580.957317640039	228.6841175003
1	11975	565138.157027512012	0
1	12000	566369.223382146303	43.294667627691
1	12009	566748.901505581832	0
1	12019	568961.292305886423	0
1	12054	570943.492389233972	61.364220436921
1	12062	571306.128286441585	0
1	12081	573961.359657474555	0
1	12090	574828.779735497017	0
1	12113	575414.143985370316	182.45074490497
1	12118	575722.555419048991	317.87197686077
1	12132	576342.862919516501	321.06552920804
1	12140	576707.956156059915	354.15261433161
1	12157	577349.633917789669	12.787134379764
1	12166	577917.628358164589	0
1	12200	579996.061895005542	53.35354378597
1	12237	581715.700608795633	3.977632408299
1	12246	582053.222218045197	44.64060129898
1	12259	582636.698735636209	0
1	12268	582937.900469280085	256.51768555597
1	12277	583827.294010001904	0
1	12294	584749.028971356129	0
1	12310	585398.825348760441	122.33168633435
1	12319	585714.341669847579	26.665755662032
1	12327	586044.813602149143	220.93408951781
1	12347	586668.525252217928	20.526189337161
1	12377	587989.15435624936	159.10656047778
1	12386	588477.080364238671	0
1	12403	589620.569118797327	0
1	12429	590210.058767654372	226.15077592278
1	12437	590484.286744727123	412.27777975084
1	12462	591666.482493908769	288.58997758099
1	12470	591915.997404876492	234.83399712506
1	12504	593478.637970090634	219.78875888576
1	12521	594329.845646549918	173.71035197408
1	12547	596200.937757991951	0
1	12574	598589.25666654511	0
1	12582	598888.13348231685	54.317778355172
1	12599	599465.749937668852	0.805016215469
1	12608	600697.369732332064	0
1	12620	600996.682478819695	152.13269736503
1	12628	601254.706577409492	224.04244592115
1	12642	602242.963042430431	0
1	12662	602841.226373868367	172.09305108936
1	12679	603459.511878984935	324.48330355052
1	12718	606000.253424907568	266.791485017
1	12730	606331.680121404967	103.00657564082
1	12735	606648.588073424624	339.9447537246
1	12769	608032.426910015372	0
1	12804	610829.761583777922	218.27011663178
1	12813	611176.221595726621	60.529877555361
1	12821	611662.816102962004	0
1	12838	612478.207926347467	0
1	12846	612800.948695667904	28.388049551385
1	12882	615967.250467197719	40.802123796192
1	12897	616303.433534849819	307.36111012227
1	12905	616563.63594959458	460.88599228091
1	12910	616855.702214393832	346.25494635498
1	12933	618206.443167737517	0
1	12941	618654.897457351991	0
1	12950	619183.821648270375	0
1	12984	620833.350009701278	262.82147966925
1	13001	621484.383789747367	0
1	13017	621998.8134959524	231.73432075474
1	13034	622682.537363030731	0
1	13052	624762.428153743818	0
1	13072	625366.724711910565	55.266035664501
1	13080	625666.80318774073	116.01655995221
1	13111	626876.614419977506	280.10707063657
1	13119	627375.888907350551	0
1	13128	627696.363106920049	0
1	13145	628524.988433486319	340.77497193174
1	13153	628798.876671661065	30.446072460073
1	13173	629900.979581119595	233.44333145954
1	13187	630520.797952740466	0
1	13259	634862.7843410519	199.36032200848
1	13267	635153.995972567509	347.40803906085
1	13273	635446.198315068933	548.969904155
1	13283	636878.012290777212	0
1	13291	637264.047733277167	0
1	13300	638085.27085053389	0
1	13309	639006.705777457202	0
1	13351	640953.411102088311	0
1	13380	642680.824751499987	132.59277837199
1	13389	642964.692783782637	370.09655415498
1	13397	643263.107651359575	210.86004428296
1	13441	646747.709843917972	44.74020049204
1	13446	647023.453703792036	287.43171040375
1	13455	647355.951183377187	155.08252802246
1	13466	647656.706748384804	119.80675234054
1	13474	647957.645218828229	198.75489192844
1	13486	648254.642124786037	166.25908113388
1	13491	648585.113382372669	342.45007374123
1	13507	650724.599810295116	0
1	13551	652263.031461008111	193.63883735228
1	13571	652805.111473654909	25.565093040352
1	13579	653094.831977124628	36.050926882842
1	13591	653426.983177719011	316.66537317472
1	13596	653720.854548328863	328.53182018467
1	13610	654256.00625867503	62.672134818875
1	13618	654579.699992114363	240.27139310534
1	13635	655157.071184970194	310.66741531447
1	13660	656371.201410483125	40.038594893343
1	13669	656656.36465137295	130.38014224575
1	13677	657010.261379033	170.79359979075
1	13719	658527.848575861425	255.87249184716
1	13744	659395.135087525459	181.78642703762
1	13766	660506.339821054079	0
1	13809	663292.319650386537	93.407697605616
1	13818	663947.634889279243	0
1	13829	664227.148049756449	137.82863136668
1	13835	664521.007009242602	319.90365356226
1	13846	664818.669971442015	264.56290720097
1	13854	665093.021991226253	538.63778868869
1	13863	665438.401172891309	10.507463016138
1	13877	666072.867211097439	109.22803056415
1	13885	666347.356916770158	242.52491705859
1	13902	666979.229936808166	86.760084090355
1	13922	668107.041417135996	327.3269274088
1	13942	668697.179121661254	6.501620097266
1	13950	669010.471552557842	317.42342096756
1	13961	669367.263827302933	290.56222478033
1	13989	670252.450402871336	241.55686498043
1	14017	671348.731334843958	1.251030669783
1	14033	671955.815490710917	227.09679146275
1	14042	672267.907931478784	149.8563553753
1	14067	673186.132663901089	115.31493323956
1	14089	674035.666395226075	229.96819196573
1	14146	677732.863832560756	0
1	14165	679959.610426380496	0
1	14173	680486.372186071648	0
1	14192	682761.139544729528	0
1	14200	683049.523873678367	72.905686962316
1	14209	683363.728887719318	0
1	14226	684250.55699649247	0
1	14260	687562.057241038695	197.39966426157
1	14289	690109.622300611098	0
1	14297	690514.591830519845	0
1	14316	692732.070550995115	0
1	14342	694529.180934735948	51.729562736462
1	14351	695229.957077393711	0
1	14362	695541.119066072522	185.94390976618
1	14367	695854.597964470832	429.45964984305
1	14385	697189.392068703042	0
1	14394	698260.58461545695	0
1	14417	699091.497918021677	220.87829637856
1	14442	699994.030265975919	221.4634699173
1	14447	700248.669098941897	342.49106350585
1	14461	700820.223236089488	253.57425296591
1	14478	701678.139087081018	0
1	14495	702485.360298673146	231.39581514984
1	14512	703240.630395161468	235.74052496255
1	14520	703548.579771885493	21.431448706949
1	14546	704688.530732896291	0
1	14557	704898.23560847061	187.93276489692
1	14579	706173.687203637248	0
1	14605	707537.789409230469	0
1	14630	708865.682999334981	0
1	14659	710382.466817992473	160.19820801802
1	14665	710679.565942693357	336.9516454315
1	14673	711156.256883307555	0
1	14688	711508.685646742612	289.34172004253
1	14696	711779.823980962447	350.32998854091
1	14701	712095.30046099064	586.67399304575
1	14715	712704.838321885035	52.717001776425
1	14732	713979.585259559878	0
1	14744	714359.165089650255	246.14421083326
1	14764	715024.076888075449	152.50599925401
1	14780	715581.825217991152	32.355031954754
1	14808	716487.582481881132	242.07945494969
1	14825	717167.403687940931	276.76063408317
1	14837	717488.70020467085	376.33347990041
1	14842	717783.512952674169	588.84932890869
1	14859	718414.622641102482	88.864514489893
1	14884	719301.113705929708	226.33004142047
1	14892	719659.076145872115	92.488318530706
1	14904	720032.500608014291	170.00683255397
1	14912	720359.773313036771	387.29675725945
1	14917	720692.216968569917	631.23650908223
1	14932	721001.387474769167	77.125133925695
1	14957	721931.391445548913	130.89902945269
1	14987	723184.710284391746	49.378940194041
1	15043	725270.87903824083	47.147386841159
1	15085	728541.476066716104	0
1	15103	730145.935486077824	0
1	15112	730683.047868630276	0
1	15121	731471.391691852635	0
1	15130	732261.496870454389	0
1	15147	733339.485406009219	0
[...]
7	15945	771151.197515572343	6
7	15956	771433.324577205769	7
7	15965	771795.927713118428	8
7	15976	772111.941831689829	9
7	15982	772442.376370528617	10
7	15987	772783.633485168135	11
7	15991	772972.549348927558	10
7	15995	773093.69395075752	11
7	16000	773398.308504451047	10
7	16004	773433.832450574292	11
7	16008	773570.793371027718	10
7	16011	773730.599368717986	9
7	16025	774328.19859026984	8
7	16044	774815.393459892952	7
7	16049	774951.997189264566	8
7	16053	775147.566430957522	7
7	16056	775195.988757674786	6
7	16060	775266.873729716915	7
7	16072	775706.381844654152	6
7	16081	775868.660455980365	5
7	16084	775969.64630241985	4
7	16088	776145.327562350995	5
7	16097	776471.806045468067	4
7	16112	776959.24883043108	3
7	16124	777353.13172393467	4
7	16130	777666.793840181378	5
7	16135	777936.093246684575	6
7	16149	778499.490454853626	7
7	16153	778504.133956104001	6
7	16156	778791.04363270021	5
7	16170	779289.173040141278	4
7	16185	779652.540529727209	5
7	16190	779941.585624376882	6
7	16209	780861.242260106361	7
7	16222	781318.204658631407	6
7	16225	781420.925284997708	5
7	16229	781433.873728795722	6
7	16233	781594.099304354758	5
7	16242	781828.888600061613	4
7	16265	782811.92550194741	5
7	16286	783405.959679352519	4
7	16291	783474.932794651278	5
7	16298	783596.99530201438	4
7	16302	783794.06881382168	5
7	16307	784062.557338532203	6
7	16316	784351.96541403128	7
7	16321	784698.73994702163	8
7	16325	785011.169058280736	7
7	16329	785031.186968357646	8
7	16340	785273.348958570032	7
7	16349	785590.821110030272	8
7	16357	785908.358380264505	9
7	16366	786182.033130871029	10
7	16371	786504.567121673055	11
7	16380	786828.775749423908	10
7	16389	787216.518346674469	9
7	16397	787457.089106736125	8
7	16403	787555.832659572171	7
7	16412	787886.933426276903	6
7	16416	788015.235239628988	7
7	16428	788533.009458394224	6
7	16437	788642.755490216141	5
7	16444	788858.949276063306	6
7	16448	789201.161012604007	5
7	16452	789203.914824204514	6
7	16465	789843.946519266618	5
7	16469	789844.171859939034	6
7	16473	789991.19836512184	5
7	16476	790032.304952441417	4
7	16506	791488.474481748345	3
7	16523	792135.1891320385	2
7	16533	792292.91309603041	3
7	16541	792619.847766394262	4
7	16545	792651.08841595323	3
7	16553	792874.441839135022	4
7	16564	793161.001763071161	5
7	16569	793471.618752286101	6
7	16575	793778.811784579286	7
7	16585	794099.093007965368	6
7	16589	794108.587461645696	7
7	16594	794411.987549017117	8
7	16600	794709.489196467245	9
7	16614	795361.278412011931	8
7	16623	795781.676121697879	7
7	16644	796611.058782133329	8
7	16648	796723.741863478149	7
7	16651	796845.000316181384	6
7	16655	796952.570764960414	7
7	16660	797255.788045499621	6
7	16668	797426.822351469629	5
7	16671	797570.056506516072	4
7	16674	797579.096476745652	3
7	16691	798110.465958048118	2
7	16700	798635.901169046082	3
7	16726	800076.472349259692	2
7	16747	800660.074107159687	3
7	16752	801021.926856439013	4
7	16756	801118.678882622799	3
7	16769	802305.550812314979	2
7	16784	803912.711737325121	3
7	16793	804281.582139729717	4
7	16795	804296.127670595269	3
7	16804	805108.927856822818	2
7	16815	807560.173696993851	1
7	16820	807610.378965654887	0
7	16841	808449.069041259491	1
7	16849	808714.1754918766	2
7	16857	809046.478953315629	3
7	16863	809299.092805791302	4
7	16875	810180.789652582022	5
7	16880	810437.556965285391	6
7	16888	810750.204483428227	7
7	16891	811686.866243035642	6
7	16900	812104.767134228147	5
7	16914	812672.046155666795	4
7	16918	812704.34118764766	5
7	16922	812895.996876302116	4
7	16939	813498.250196748012	3
7	16943	813548.012571432842	4
7	16955	813911.949177984573	3
7	16959	814141.751212568583	4
7	16967	814714.394239945094	3
7	16985	816458.306355911635	2
7	16992	816554.754009151606	3
7	17000	816793.755672614821	4
7	17009	817116.525611643264	5
7	17013	817293.800638011029	4
7	17023	817442.602048869308	5
7	17028	817743.77056492522	4
7	17032	817764.43802568159	5
7	17037	818033.13742680054	6
7	17042	818368.878231994194	7
7	17070	820152.335196141093	8
7	17075	820375.140961138068	7
7	17078	820394.771590055062	6
7	17082	820454.721971271418	7
7	17091	820719.168570989408	6
7	17094	821025.118346971981	5
7	17103	821253.495421801249	4
7	17111	821531.212480333159	3
7	17114	821634.800281743734	2
7	17126	821986.796050731157	3
7	17146	824262.350316126058	2
7	17151	824491.760701978734	1
7	17164	825498.032853466455	0
7	17178	826119.029551412816	1
7	17191	827539.250422223451	2
7	17199	827841.527994228877	3
7	17208	828182.773530016761	4
7	17213	828457.207565444859	5
7	17216	829013.140821059209	4
7	17226	830835.49978263548	3
7	17234	831015.132041093913	2
7	17244	831500.912409627725	3
7	17251	831900.748754108675	2
7	17259	832240.845255673403	1
7	17274	832997.571456556127	2
7	17286	833316.578106416661	3
7	17291	833610.770361316035	4
7	17303	834566.513102339802	5
7	17311	834857.550452804935	6
7	17316	834982.155110210783	5
7	17320	835154.026227768854	6
7	17333	835692.349808608417	7
7	17336	836049.253868695697	6
7	17351	836856.860824860011	7
7	17353	836965.102523919299	6
7	17362	837519.34778254995	5
7	17376	838277.092503358305	6
7	17379	838583.104196322932	5
7	17392	839030.143936736263	4
7	17395	839040.388867778973	3
7	17398	839061.310152282553	2
7	17403	839225.824210070276	3
7	17422	841023.549607821874	2
7	17439	841630.674112722878	3
7	17445	841940.652177046418	4
7	17447	842072.817089355234	3
7	17452	842188.203048179983	2
7	17473	842982.686116000357	3
7	17478	843249.412274223433	4
7	17483	845243.272997571112	3
7	17491	845495.098249017591	2
7	17503	845895.669414144815	3
7	17509	846185.627095338347	4
7	17513	846375.919924134878	3
7	17521	846502.748658227966	2
7	17541	849382.469348391092	3
7	17544	849967.306544344921	2
7	17553	850436.937733194524	1
7	17569	852114.108646077164	2
7	17577	852524.962797980017	3
7	17579	852708.598601206322	2
7	17598	853938.665628303465	3
7	17603	854294.898281273078	4
7	17606	855195.352223195195	3
7	17620	856038.459426695474	2
7	17624	856073.768943113069	3
7	17642	857449.225442862174	4
7	17646	857577.205126793355	3
7	17649	857649.029516082308	2
7	17656	857740.08112021272	3
7	17662	858048.24568440852	4
7	17680	859623.970883546605	3
7	17684	859709.929453209359	4
7	17702	860928.945963222184	5
7	17706	860998.969772490691	4
7	17709	861054.939632364955	3
7	17713	861258.541216101284	4
7	17723	861594.429215073188	3
7	17735	862122.70656014448	4
7	17743	862849.941184743299	3
7	17764	863983.593084712273	4
7	17770	864314.05384939484	5
7	17774	864328.244522842739	4
7	17784	864636.011605155211	5
7	17788	864668.609660760422	4
7	17793	864943.324903518769	5
7	17813	865245.861251639262	6
7	17821	865559.493522063744	7
7	17830	865852.351388166137	8
7	17834	865865.154950058595	7
7	17841	866171.10047088627	8
7	17849	866445.158632690497	9
7	17858	866787.343393544755	10
7	17869	867116.116742035698	11
7	17877	867433.73072375188	12
7	17883	867707.527462478963	13
7	17888	867963.771045259248	14
7	17892	868020.126540349694	13
7	17895	868027.934003624323	12
7	17898	868042.639434934702	11
7	17901	868248.158115227362	10
7	17905	868267.597656920369	11
7	17914	868554.704238323462	12
7	17918	868728.643463868438	11
7	17921	868827.955406795224	10
7	17925	868842.922176559731	11
7	17930	869124.343900456173	12
7	17936	869448.111067022997	13
7	17940	869660.285253730478	12
7	17951	869999.293837030058	11
7	17956	870085.220657555256	12
7	17960	870133.409940105071	11
7	17963	870216.914911901717	10
7	17971	870474.952894549243	9
7	17983	871011.449357529029	8
7	17987	871068.8721948098	9
7	17996	871519.390082173286	8
7	17999	871549.41266426543	7
7	18008	871904.032798598335	6
7	18021	872358.98972155015	5
7	18035	872811.215341287753	4
7	18038	872859.052899927906	3
7	18046	873216.928678024342	2
7	18054	873429.936674114457	1
7	18074	874364.0731551791	0
7	18108	876147.036468112627	1
7	18121	876721.633900258282	2
7	18140	877556.740144391343	3
7	18163	878826.50894530839	4
7	18168	879137.036665044971	5
7	18171	880056.050372164961	4
7	18185	880451.194544783431	3
7	18189	880679.399228164198	4
7	18196	881099.644476800003	3
7	18214	881649.013620439525	4
7	18219	881909.970414840777	5
7	18227	882549.352672877779	4
7	18231	882575.041769083863	5
7	18236	882921.863352524862	4
7	18248	884041.993556817336	3
7	18257	885020.068050881593	2
7	18265	885292.030294240436	1
7	18280	886171.788746826277	2
7	18282	886253.400824553493	1
7	18297	886802.806198939691	2
7	18306	887395.253648909083	3
7	18318	888320.730519828919	4
7	18323	888669.116992981045	5
7	18334	888904.552699348885	4
7	18338	889080.363174939532	5
7	18343	889382.626848750965	6
7	18356	890518.845351705871	5
7	18364	890676.254281311464	6
7	18369	890963.686386140048	7
7	18376	891280.233747943185	6
7	18385	891701.229146457603	5
7	18393	891956.999711174435	4
7	18403	892348.899180105548	5
7	18410	892599.890642530259	4
7	18415	892845.846712449969	3
7	18434	894037.586864551331	4
7	18441	894218.811536937655	3
7	18445	894410.18086890429	4
7	18453	895155.997348806213	3
7	18462	896312.078422700563	2
7	18477	897068.922869254831	3
7	18479	897333.131105380379	2
7	18497	897928.795959722562	3
7	18501	898232.515845424362	2
7	18505	898277.202799843733	3
7	18514	899815.364600396418	2
7	18529	900384.117252225867	3
7	18538	901006.477572115955	4
7	18549	901709.829909467635	5
7	18553	901727.360578136049	4
7	18558	902033.129754877838	5
7	18562	902143.577533922961	4
7	18580	903079.982924298734	5
7	18589	903631.715036069439	6
7	18591	903937.928605559983	5
7	18600	904435.754056045045	4
7	18617	905099.715052454102	5
7	18623	905395.74959133059	6
7	18633	905645.626154555007	5
7	18637	905717.380675660956	6
7	18641	905720.582930865866	5
7	18645	906009.091551529599	6
7	18655	906355.658961334966	5
7	18672	907131.662811236534	4
7	18676	907194.354386958792	5
7	18690	908554.367962145376	6
7	18693	908648.490756096431	5
7	18701	909066.677721579149	4
7	18706	909234.021264912546	3
7	18715	909459.275720259337	2
7	18727	910763.468628179316	1
7	18745	911992.368652559947	2
7	18751	912251.025599996153	3
7	18758	912397.857682295113	2
7	18762	912647.711671110225	3
7	18779	913260.156388253995	4
7	18784	913593.152717287249	5
7	18793	914115.724920791961	6
7	18801	914444.683215916012	7
7	18810	915270.795197287186	8
7	18819	915691.560787717674	9
7	18821	915820.925110537714	8
7	18832	915918.525381197717	7
7	18838	916060.576261791942	6
7	18848	916443.74065285662	7
7	18856	916709.018102533107	8
7	18861	917006.633639450734	9
7	18868	917055.038122916421	8
7	18873	917283.746877082459	9
7	18880	917346.424715331908	8
7	18884	917539.110555844511	9
7	18889	917817.826991304458	10
7	18893	917870.246896223181	9
7	18905	918336.169032281433	8
7	18913	918423.970820534485	7
7	18917	918732.917872945688	8
7	18934	919306.343068874352	9
7	18939	919578.46738633265	10
7	18943	919631.898753174372	9
7	18947	919781.626201676698	8
7	18950	919801.941650228853	7
7	18953	919851.275238624476	6
7	18979	920768.489580338272	7
7	18983	920969.586271882229	6
7	18987	921068.069465474823	7
7	18991	921140.686941761603	6
7	18994	921283.965027853415	5
7	19022	922686.663550952269	4
7	19030	922762.122602414714	3
7	19034	923019.539179323479	4
7	19051	923602.474188848673	5
7	19055	923630.505053462419	4
7	19061	923776.734065792605	3
7	19065	923882.26862792461	4
7	19074	924165.583291767024	5
7	19078	924271.272954707046	4
7	19082	924466.30214737554	5
7	19102	925080.67566584212	6
7	19107	925378.017172375402	7
7	19115	925731.158911560532	8
7	19123	925802.3326953991	7
7	19127	925973.719059963212	8
7	19132	926275.050341914358	9
7	19153	926982.213222677066	8
7	19157	927124.465817060713	9
7	19162	927402.940691972417	10
7	19167	927451.922284856535	9
7	19170	927487.486181339552	8
7	19183	928174.936390319777	7
7	19197	928810.909461184572	6
7	19208	929052.612405724089	5
7	19218	929520.329279243597	6
7	19222	929601.792413459387	5
7	19237	930146.715153203675	4
7	19241	930202.502495353644	5
7	19245	930255.30605004523	4
7	19249	930488.914135768581	5
7	19253	930758.609025220966	4
7	19262	931100.455400565994	3
7	19305	933047.973516366848	2
7	19309	933175.009331989895	3
7	19322	933941.354649938851	2
7	19327	934024.641211528233	1
7	19351	934822.291828543981	2
7	19365	935154.957970341041	3
7	19374	935459.910580306022	4
7	19379	935770.396028935386	5
7	19391	936076.366041144135	6
7	19396	936350.980662597835	7
7	19407	936610.204968161179	8
7	19414	936719.489324320383	7
7	19419	936946.562217535947	8
7	19424	937244.399419849207	9
7	19429	937556.864374962961	10
7	19435	937886.960920657553	11
7	19440	938178.243986819965	12
7	19447	938583.232323543593	11
7	19453	938622.915948934449	10
7	19461	938984.834088785672	9
7	19464	939134.955829438793	8
7	19485	939795.421780721402	9
7	19489	939829.02180295168	8
7	19493	940147.778209160621	9
7	19497	940202.916158963559	8
7	19506	940485.53460313572	7
7	19514	940786.652646415047	6
7	19520	940929.751476441968	5
7	19530	941294.079042073766	6
7	19537	941495.761947911865	5
7	19545	941627.381524771331	4
7	19548	941699.662167897793	3
7	19552	941868.885028506879	4
7	19567	942650.184926125608	3
7	19591	943312.456054656335	4
7	19596	943585.574207530349	5
7	19601	943829.699215667752	4
7	19605	943892.843067204827	5
7	19631	945030.16824869722	4
7	19635	945127.157146061996	5
7	19643	945414.389013056579	6
7	19649	945680.799051456359	7
7	19653	945869.699524819329	6
7	19670	946508.539580265856	5
7	19674	946569.011646282416	6
7	19681	947089.152382226973	5
7	19687	947208.735264540685	4
7	19705	948204.829551109119	5
7	19713	948980.172533746066	4
7	19717	949252.008702113022	5
7	19730	949854.946733946817	4
7	19733	949863.428718189249	3
7	19737	949945.353992303152	4
7	19741	950223.573810214908	3
7	19768	951580.777221584064	4
7	19772	951837.920754141842	3
7	19776	951899.591182468779	4
7	19784	952523.268263962249	3
7	19793	953399.485903644965	2
7	19807	953974.110727029188	3
7	19816	954360.701647865198	4
7	19825	954930.774080578698	5
7	19827	955209.097532597767	4
7	19840	955682.11427779205	3
7	19845	955811.477607737224	4
7	19859	957275.756581486981	5
7	19862	957457.475518996558	4
7	19870	958077.491220877531	3
7	19875	958185.309285247553	2
7	19893	959553.593852450895	1
7	19897	959762.12467686709	2
7	19905	960448.207418768139	1
7	19920	960990.204611011836	2
7	19931	961593.086753130049	3
7	19937	961874.076220099843	4
7	19953	963612.274706968052	5
7	19961	963935.638098601265	6
7	19965	964056.377807679906	5
7	19969	964192.36974724219	6
7	19978	964436.575248738609	7
7	19982	964592.837846256583	6
7	19986	964723.596282229644	7
7	20005	965685.767915278053	8
7	20007	965693.291598226153	7
7	20012	965888.47978177132	6
7	20030	967496.978117446392	5
7	20034	967555.152372756224	6
7	20038	967565.834104488201	5
7	20047	968101.948848403504	4
7	20055	968312.764774120835	3
7	20058	968414.263431272506	2
7	20082	969502.349352910995	3
7	20084	969596.769618496265	2
7	20102	970615.878968717137	3
7	20107	970895.155822177566	4
7	20109	971009.426863219032	3
7	20119	972604.250019552488	2
7	20134	973380.015874798282	3
7	20143	974147.302784426495	4
7	20145	974296.215804479952	3
7	20150	974384.530669717853	2
7	20168	975208.711595497059	3
7	20177	975603.34425201523	4
7	20186	976668.998667416737	5
7	20188	976793.874520399028	4
7	20206	977353.663288118201	5
7	20211	977670.184516577153	6
7	20219	978016.788249555479	7
7	20222	978127.783501768494	6
7	20227	978175.356712621864	5
7	20248	979219.918929978893	6
7	20252	979314.937719814473	5
7	20256	979477.300703862155	6
7	20270	980130.359006259777	7
7	20272	980193.055528677468	6
7	20286	980987.012022515789	5
7	20290	981031.208843781449	6
7	20294	981054.77456073232	5
7	20303	981549.278271025647	4
7	20315	982479.778888037295	3
7	20323	983031.709543690153	2
7	20338	983817.664137225274	3
7	20340	983894.173420569413	2
7	20355	984499.729426243329	3
7	20357	984746.652499737588	2
7	20372	985372.79148432173	3
7	20384	986227.10826855426	4
7	20393	986591.741184810107	5
7	20398	986855.020323147204	6
7	20409	987212.560407707475	7
7	20415	987528.282648342527	8
7	20422	987752.50320075554	7
7	20426	987943.669443612357	8
7	20430	988203.229113417521	7
7	20443	989483.337946310588	6
7	20448	989642.091767976522	5
7	20456	989788.712153216857	4
7	20468	990382.656208251724	3
7	20484	990723.575681973028	2
7	20489	990948.708498666761	3
7	20493	991147.682716787272	2
7	20497	991298.805256753198	3
7	20510	991815.59472104899	2
7	20522	992277.366294723221	3
7	20530	992569.669697710991	4
7	20536	992915.60807061143	5
7	20550	993529.544539168271	6
7	20561	993860.295355257702	7
7	20572	994213.096042584173	8
7	20577	994431.453525975339	7
7	20581	994507.140868039456	8
7	20589	994784.390685143566	9
7	20594	995063.766645653129	10
7	20602	995641.741314923666	9
7	20611	996085.429800260169	8
7	20616	996276.068433890735	7
7	20633	996944.384972462079	6
7	20636	997049.550867102872	5
7	20640	997092.238951483435	6
7	20653	997817.22746951947	5
7	20661	998240.327056320566	4
7	20666	998266.488250229601	3
7	20669	998557.081463188924	2
7	20683	999141.659770773111	1
7	20707	999840.117755518531	2
7	20712	1000110.697923116903	3
7	20721	1000374.843684917404	4
7	20728	1000526.022800601397	3
7	20732	1000678.494071552414	4
7	20737	1000948.343077572765	5
7	20752	1003290.144046704907	4
7	20756	1003351.156789100315	5
7	20769	1003853.088750051571	4
7	20772	1003938.701004766292	3
7	20776	1004008.877110620943	4
7	20780	1004251.24178821479	3
7	20788	1004374.427388639515	2
7	20801	1004901.601139373817	3
7	20823	1006254.687003480097	4
7	20829	1006558.913084872338	5
7	20836	1006700.853467481743	4
7	20840	1006942.622464814164	5
7	20848	1007936.7548279326	4
7	20863	1008569.297162012522	5
7	20865	1008788.196721124057	4
7	20880	1009794.232139727226	3
7	20884	1009949.20474889522	4
7	20891	1010378.504750731264	3
7	20900	1010707.689873828479	2
7	20917	1011383.744454369034	3
7	20923	1011709.323878174265	4
7	20925	1011902.491383225898	3
7	20941	1013580.646605782747	4
7	20943	1013829.369961689064	3
7	20961	1014544.399475180784	4
7	20969	1014839.433767320491	5
7	20974	1014987.312333529259	4
7	20981	1015199.036620680385	5
7	20986	1015460.065176384452	6
7	20999	1015810.258306445583	5
7	21006	1015979.345725487045	6
7	21014	1016285.059057579948	7
7	21019	1016567.456263162048	8
7	21033	1017171.467136861327	9
7	21036	1017499.210298072511	8
7	21050	1018102.400078386532	9
7	21052	1018274.296945257603	8
7	21061	1018564.056323087974	7
7	21069	1018922.669249175477	6
7	21083	1019339.451955773343	5
7	21086	1019465.355641541499	4
7	21090	1019485.632397413826	5
7	21099	1019986.162808617089	4
7	21112	1020367.983650264341	5
7	21116	1020415.12389347442	4
7	21122	1020564.916703864802	3
7	21135	1021002.10214816941	4
7	21143	1021299.599979458305	5
7	21151	1021567.478520970688	6
7	21162	1021843.301885067084	5
7	21166	1021853.346750057065	6
7	21174	1022086.056809571918	7
7	21179	1022412.156535918644	8
7	21185	1022679.229550622596	9
7	21197	1023140.585704531075	8
7	21207	1023498.783872062457	9
7	21219	1023979.760315704044	8
7	21223	1024076.956796533385	9
7	21240	1024801.818508366803	10
7	21244	1025046.532660150136	9
7	21248	1025063.413161168156	10
7	21253	1025183.459130831043	9
7	21256	1025199.103223990318	8
7	21259	1025340.635478603181	7
7	21270	1025547.82323592708	6
7	21279	1026005.041707747601	7
7	21284	1026114.217731694383	6
7	21287	1026184.322219150783	5
7	21300	1026708.795329966432	4
7	21318	1027532.637528375383	5
7	21334	1028021.1033802693	4
7	21341	1028078.774515407532	5
7	21345	1028120.259312084836	4
7	21349	1028419.832860614015	5
7	21355	1028699.027615670257	6
7	21359	1028724.004625767607	5
7	21371	1029243.522200968861	6
7	21375	1029309.874557689949	5
7	21388	1029840.954289192273	6
7	21406	1030503.886478223117	5
7	21410	1030688.662256145637	6
7	21431	1031497.055102651759	5
7	21435	1031582.393572425637	6
7	21439	1031819.961715048426	5
7	21443	1031863.554349862133	6
7	21456	1032470.503235448884	5
7	21460	1032503.483016611848	6
7	21475	1033244.224686406322	5
7	21483	1033631.028659106611	4
7	21500	1034194.143447940672	3
7	21507	1034308.362354964573	4
7	21518	1034591.872542917471	5
7	21524	1034934.285430295821	6
7	21529	1035232.315700307212	7
7	21542	1035632.010553897965	6
7	21545	1035706.640323166646	5
7	21549	1035954.326193234089	6
7	21562	1036590.804079257101	5
