<<<<<<< HEAD
file 382376 1483715110                                          
version 2
run ParkingMeasurement-2-20170106-02:04:56-12576
attr configname ParkingMeasurement
attr datetime 20170106-02:04:56
attr experiment ParkingMeasurement
attr inifile parkingStudy.ini
attr iterationvars ""
attr iterationvars2 $repetition=2
attr measurement ""
attr network SimNetwork
attr processid 12576
attr repetition 2
attr replication #2
attr resultdir results
attr runnumber 2
attr seedset 2
param SimNetwork.a.parkingLot.parkingDelay "truncnormal(60min, 6min)"
param SimNetwork.a.runway.landingTime "truncnormal(5min, 0.5min)"
param SimNetwork.a.runway.takeoffTime "truncnormal(5min, 0.5min)"
param SimNetwork.a.runway.throughputCheckInterval 14.286min
param SimNetwork.wg.interArrivalTime exponential(14.286min)
vector 7  SimNetwork.a.parkingLot  parkingOccupancy:vector  ETV
attr source parkingOccupancy
7	315643 66733 2302 21427 121086.364636423288 1036489.646135909799 2258 0 12 11199 65957
vector 4  SimNetwork.a.takeoffQueue  queueLength:vector  ETV
attr source queueLengthSignal
4	207668 66635 2303 21429 121086.364636423288 1036489.646135909799 2256 0 12 3554 13468
vector 3  SimNetwork.a.takeoffQueue  queueTime:vector  ETV
attr source queueTimeSignal
3	162415 45253 2305 21429 121086.364636423288 1036489.646135909799 1128 0 6709.7154328174 897435.33456793 1890435499.8936
vector 0  SimNetwork.wg  responseTime:vector  ETV
attr source responseTimeSignal
0	1458 48933 2308 21421 121357.929061446014 1036195.461555948004 1127 3679.9067933786 11781.934824736 6759242.4629007 42296344276.805
vector 5  SimNetwork.a.runway  landedThroughput:vector  ETV
attr source landedThroughputSignal
5	274303 20670 2310 21425 121716.72 1036306.44 1068 0 4 1129 2153
vector 6  SimNetwork.a.runway  tookoffThroughput:vector  ETV
attr source tookoffThroughputSignal
6	294973 20670 2310 21425 121716.72 1036306.44 1068 0 3 1127 2119
vector 2  SimNetwork.a.landingQueue  queueLength:vector  ETV
attr source queueLengthSignal
2	95714 66701 2312 21423 121918.932486373815 1036195.461555948004 2260 0 4 1678 2414
vector 1  SimNetwork.a.landingQueue  queueTime:vector  ETV
attr source queueTimeSignal
1	50391 45323 2314 21423 121918.932486373815 1036195.461555948004 1130 0 1192.6662678051 214129.37124346 81058343.20239
=======
file 382387 1483892960                                          
version 2
run ParkingMeasurement-2-20170108-17:29:20-4986
attr configname ParkingMeasurement
attr datetime 20170108-17:29:20
attr experiment ParkingMeasurement
attr inifile parkingStudy.ini
attr iterationvars ""
attr iterationvars2 $repetition=2
attr measurement ""
attr network controltower.SimNetwork
attr processid 4986
attr repetition 2
attr replication #2
attr resultdir results
attr runnumber 2
attr seedset 2
param SimNetwork.a.parkingLot.parkingDelay "truncnormal(60min, 6min)"
param SimNetwork.a.runway.landingTime "truncnormal(5min, 0.5min)"
param SimNetwork.a.runway.takeoffTime "truncnormal(5min, 0.5min)"
param SimNetwork.a.runway.throughputCheckInterval 14.286min
param SimNetwork.wg.interArrivalTime exponential(14.286min)

vector 7  SimNetwork.a.parkingLot  parkingOccupancy:vector  ETV
attr source  parkingOccupancy
vector 4  SimNetwork.a.takeoffQueue  queueLength:vector  ETV
attr source  queueLengthSignal
vector 3  SimNetwork.a.takeoffQueue  queueTime:vector  ETV
attr source  queueTimeSignal
vector 0  SimNetwork.wg  responseTime:vector  ETV
attr source  responseTimeSignal
vector 5  SimNetwork.a.runway  landedThroughput:vector  ETV
attr source  landedThroughputSignal
vector 6  SimNetwork.a.runway  tookoffThroughput:vector  ETV
attr source  tookoffThroughputSignal
vector 2  SimNetwork.a.landingQueue  queueLength:vector  ETV
attr source  queueLengthSignal
vector 1  SimNetwork.a.landingQueue  queueTime:vector  ETV
attr source  queueTimeSignal
0	1469 48933 2308 21421 121357.929061446014 1036195.461555948004 1127 3679.9067933786 11781.934824736 6759242.4629007 42296344276.805
1	50402 45323 2314 21423 121918.932486373815 1036195.461555948004 1130 0 1192.6662678051 214129.37124346 81058343.20239
2	95725 66701 2312 21423 121918.932486373815 1036195.461555948004 2260 0 4 1678 2414
3	162426 45253 2305 21429 121086.364636423288 1036489.646135909799 1128 0 6709.7154328174 897435.33456793 1890435499.8936
4	207679 66635 2303 21429 121086.364636423288 1036489.646135909799 2256 0 12 3554 13468
5	274314 20670 2310 21425 121716.72 1036306.44 1068 0 4 1129 2153
6	294984 20670 2310 21425 121716.72 1036306.44 1068 0 3 1127 2119
7	315654 66733 2302 21427 121086.364636423288 1036489.646135909799 2258 0 12 11199 65957
>>>>>>> branch 'develop' of git@github.com:enricomeloni/PESC_Control_Tower.git
