version 2
run ParkingMeasurement-60-20170108-17:29:42-5089
attr configname ParkingMeasurement
attr datetime 20170108-17:29:42
attr experiment ParkingMeasurement
attr inifile parkingStudy.ini
attr iterationvars ""
attr iterationvars2 $repetition=60
attr measurement ""
attr network controltower.SimNetwork
attr processid 5089
attr repetition 60
attr replication #60
attr resultdir results
attr runnumber 60
attr seedset 60
param SimNetwork.a.parkingLot.parkingDelay "truncnormal(60min, 6min)"
param SimNetwork.a.runway.landingTime "truncnormal(5min, 0.5min)"
param SimNetwork.a.runway.takeoffTime "truncnormal(5min, 0.5min)"
param SimNetwork.a.runway.throughputCheckInterval 14.286min
param SimNetwork.wg.interArrivalTime exponential(14.286min)

vector 2  SimNetwork.a.landingQueue  queueLength:vector  ETV
attr source  queueLengthSignal
vector 1  SimNetwork.a.landingQueue  queueTime:vector  ETV
attr source  queueTimeSignal
vector 7  SimNetwork.a.parkingLot  parkingOccupancy:vector  ETV
attr source  parkingOccupancy
vector 4  SimNetwork.a.takeoffQueue  queueLength:vector  ETV
attr source  queueLengthSignal
vector 3  SimNetwork.a.takeoffQueue  queueTime:vector  ETV
attr source  queueTimeSignal
vector 5  SimNetwork.a.runway  landedThroughput:vector  ETV
attr source  landedThroughputSignal
vector 6  SimNetwork.a.runway  tookoffThroughput:vector  ETV
attr source  tookoffThroughputSignal
vector 0  SimNetwork.wg  responseTime:vector  ETV
attr source  responseTimeSignal
0	2605	121949.458292323396	6902.1937157814
0	2614	123360.5063225482	5722.7531571348
0	2626	123879.843925717988	4328.435261744
0	2634	124159.300170234599	4948.4527645981
0	2643	124445.288484688107	5083.9183668622
0	2657	125147.001758285142	5497.3750270191
0	2665	125419.427547561967	4800.0007098214
0	2701	128915.546805592481	7540.0262653934
0	2710	129670.7039599456	5276.6458458093
0	2719	130455.366323495566	4462.9148008502
0	2731	131200.740299739242	4816.6843421701
0	2797	135634.535625261353	9235.9757684792
0	2812	136302.474959960845	4434.5647073138
0	2825	136865.997080213745	5726.1439208315
0	2834	137195.839632239656	4384.5274724442
0	2842	137542.426625440005	4817.9235725627
0	2873	139276.461879146927	6243.3249352823
0	2881	139688.369829404767	4921.9008248193
0	2907	140797.564470771217	5777.6671064038
0	2915	141281.777571179546	5230.9926685345
0	2924	141851.527568737215	4566.0741329814
0	2936	142696.604881893603	4871.5514844601
0	2970	144706.718291692211	6146.6196043681
0	2976	145005.135461062361	5225.6942655563
0	3002	147073.081998411109	7035.0488681776
0	3014	148168.227813555083	4446.3626429863
0	3031	148804.660276123053	6327.665072742
0	3056	149898.746782661603	5876.4577170356
0	3087	151093.067614080889	5340.8312898394
0	3124	152893.313050609227	6335.6247251894
0	3135	153192.353685484501	4640.6532335674
0	3141	153492.805406754713	4157.2868993085
0	3146	153771.648514098554	5891.9244647397
0	3177	154979.361943800089	5154.7914694836
0	3186	155302.051530203169	5360.6835478538
0	3202	155903.8474724877	5369.866210341
0	3219	156541.630450283228	4715.477013382
0	3238	157462.482006998915	5731.5112507673
0	3250	158057.732005179345	6114.8556715118
0	3267	158596.068134911057	4443.3716425501
0	3280	159266.172804823622	4872.636023313
0	3295	159724.747769418551	4636.2671472851
0	3325	160960.788322070803	5229.529452032
0	3345	161645.953227863379	5370.8674741294
0	3359	162241.339883547859	5432.5546475938
0	3373	162890.393926888631	4858.8773085919
0	3385	164108.083713482633	4556.6945025612
0	3393	164449.070243506871	5883.3365109452
0	3399	164742.816211013148	5062.8092571947
0	3410	165330.964828651339	5046.8692980946
0	3438	166276.213863704198	5417.6849957563
0	3452	166897.813717862208	5589.2251572942
0	3500	169465.364056645372	7319.3781510634
0	3512	169911.007139843849	4740.4337627436
0	3517	170208.925875558968	4730.7058527746
0	3557	171886.001472032266	5669.7003768577
0	3565	172179.970425163661	5509.4512266009
0	3571	172460.009060994294	5392.7359654561
0	3576	172796.361327465393	5452.6059939256
0	3584	173136.35698018988	5617.3907330005
0	3606	175063.208766920591	4253.4633884156
0	3611	175389.160320607351	6651.3432006992
0	3620	175753.691786481039	5242.4767320154
0	3663	178571.440064690891	7661.2915269909
0	3705	180486.316626472203	6060.6383432021
0	3713	180812.914379912766	4649.7644056156
0	3725	181329.423328718572	4643.6931472854
0	3747	182220.284369317549	5310.863640788
0	3756	182871.091364501708	3920.6079964264
0	3767	183328.509265837834	5794.6681265759
0	3773	183638.367944393412	4598.4178580103
0	3781	184079.747690883269	4809.7264243339
0	3807	185601.982276957127	6207.9810263123
0	3827	186256.607946750867	4934.8954757691
0	3867	188704.802589753596	7245.2344894333
0	3875	189146.179932495191	4813.1032000338
0	3884	190061.141218035645	5068.3040421072
0	3896	190530.130190808063	4917.1672407605
0	3907	190822.650485999789	4439.5118582089
0	3926	191769.548375080648	5623.4519562362
0	3960	193045.72491395262	5975.3364138447
0	3986	194585.94554224753	6527.2007367467
0	3994	195326.319654304932	4645.3210355303
0	4006	196100.25980318006	5018.3013753647
0	4015	196420.496056631326	4549.6482566881
0	4026	196790.381139260855	4873.6483055746
0	4054	197764.898017299843	4701.9558932499
0	4070	198729.976103452439	6698.5844906923
0	4087	200701.937226999441	4134.1068844615
0	4097	201361.983628094229	7984.9671515328
0	4106	201739.619652731927	5038.1174828979
0	4115	202455.441753101057	4913.6071380893
0	4150	205344.368991043006	7752.4360654274
0	4187	207031.378687405694	6510.3973123561
0	4204	207724.827624980742	5136.7036427277
0	4246	209223.907767605155	5922.9210171951
0	4266	210239.075611067804	5515.5368089405
0	4271	210538.09783557287	4467.334275069
0	4279	210845.417289007349	5055.0393871154
0	4299	211441.973398452921	4677.2964624627
0	4310	212049.345001248728	5951.6368140858
0	4321	212573.449669158769	5116.5665404226
0	4330	212846.315856589634	4993.0834196134
0	4338	213193.466470866315	4904.5686439933
0	4344	213513.761460975564	5405.0786012885
0	4353	214771.918785718742	5760.7634014934
0	4362	215812.360533809416	5110.2216127272
0	4418	220051.967637213647	8815.1029820453
0	4441	221281.216775994107	5401.7360913342
0	4450	222531.009242480215	5547.2300181296
0	4462	222882.221273995001	4935.4359674177
0	4467	223179.463277052765	5121.5717835854
0	4493	224147.678603770127	4427.3072690264
0	4509	224972.463755552839	6188.3815587555
0	4528	227442.176789755028	7050.103696325
0	4559	228573.180550226646	4694.4518674002
0	4570	229119.27498537724	5875.1902664895
0	4580	231131.969340562142	7101.0504790192
0	4595	231840.873739545447	5005.9782071715
0	4617	232745.217406250411	5117.1438612946
0	4628	233125.768685880123	5521.9544886296
0	4688	235916.282124220247	7372.6359911023
0	4698	236523.932130863054	4931.2666816043
0	4710	236967.009100304462	3979.4406473259
0	4730	237529.432348957137	5771.1772002466
0	4735	237809.86649619521	4271.3638656459
0	4740	238137.586086973782	5221.0873578791
0	4755	239002.416443307915	5330.4236842721
0	4775	239552.578514881347	5921.7109673833
0	4799	240832.513951255109	5652.4940950821
0	4808	241306.098401613531	5609.8882503656
0	4822	243523.423770570198	4539.7025542307
0	4830	243825.069313095886	7014.6815980505
0	4835	244151.336985018631	4862.7663001954
0	4844	244520.869437419811	5019.5140844476
0	4897	249154.426734012715	9621.3603734284
0	4923	250577.673673226258	5510.4996351736
0	4931	251038.24284401748	4605.4020588041
0	4960	252249.004808927029	3926.7905616237
0	4971	252545.552365533725	6058.2459529811
0	4994	253731.971007258682	5223.7993978088
0	5002	254034.377028828389	4344.281537153
0	5044	255746.052357004201	5722.9968287046
0	5049	256008.808456404925	4957.8003138829
0	5069	256821.429174988993	5741.3200820296
0	5074	257118.333761360245	4851.426331689
0	5095	258285.164957508599	5984.681155707
0	5106	258556.903612134126	4244.777655191
0	5136	259703.005774806485	5939.4654427827
0	5142	260062.937660303311	6017.9894526517
0	5151	260632.701466661859	5437.4173751719
0	5159	261255.353052541561	5223.1037342694
0	5208	263876.926545981312	5450.1523394014
0	5214	264194.259341146601	6822.6150150584
0	5219	264550.339221993009	6072.1325239945
0	5237	265998.483078679102	6925.8637043554
0	5254	266745.637630338812	4942.1232049713
0	5277	267460.537242034236	5187.6285321416
0	5287	268142.53390991201	5068.7112993018
0	5297	269388.254671866077	6178.7501090729
0	5320	270806.68897711918	5394.9964665989
0	5334	271355.871789279436	5182.4599987815
0	5339	271619.754735787905	4873.8652437292
0	5372	273932.569263747636	6518.6072737862
0	5399	275118.261299379121	5314.2475654923
0	5423	276818.903612639623	4133.9661086453
0	5437	277356.082521934179	6557.7041157255
0	5445	277654.570368379192	4471.2391389841
0	5459	278283.265787256151	4612.0392246714
0	5471	279419.565850548179	5655.5853966829
0	5480	279733.99656105009	5431.7851590825
0	5510	281079.552844725985	5491.4354665648
0	5522	281955.631732813478	5255.8538578393
0	5549	283725.408694728429	6188.2983757266
0	5577	284676.120221410639	4541.8708367984
0	5587	285234.640166269614	5749.4104744013
0	5596	285882.519320840017	5399.9537437711
0	5622	287194.900450537991	5500.8067674602
0	5634	288090.383040918397	5414.6961305946
0	5639	288360.544673606216	4927.6541370345
0	5648	289088.436173249641	5067.9566060533
0	5665	290230.40982262538	5694.4999803099
0	5674	291147.187329017808	4949.9392477038
0	5704	293573.971136374116	6954.6169343303
0	5747	295871.242011230281	6227.1081867436
0	5752	296160.957968852345	4291.482531027
0	5784	297994.925628208459	5878.6026402188
0	5790	298313.666647745052	4856.1411807665
0	5798	298613.017759050088	5019.7587895171
0	5803	298952.25592766199	5085.6586906317
0	5821	300474.320047721691	3903.9792922523
0	5833	300910.495623656953	6697.0647161415
0	5856	303354.949716117097	6231.7953980736
0	5866	304999.287903044617	5822.6403900746
0	5895	306286.105715238909	5574.3864938989
0	5939	309880.323136991076	7831.6930697346
0	5950	310187.879190692048	4830.6488270759
0	5981	311348.440431592727	5376.5412702036
0	5986	311626.682175615089	6087.7346075164
0	5996	313492.058094381033	6766.5443816277
0	6008	313821.55044494398	4849.7968648447
0	6016	314166.226630839246	5091.8228940583
0	6021	314447.554005274351	4494.28002127
0	6030	314985.570545114411	4549.6935681538
0	6102	319610.123161137497	8909.9404346127
0	6151	321515.310325068982	5572.8507487595
0	6156	321818.005369025535	5206.4165453632
0	6161	322163.471241687058	5494.2124758412
0	6176	322493.378756977215	5021.0701090146
0	6201	323340.675599621952	5744.0027149152
0	6214	323878.559396209858	5523.0556738408
0	6223	324175.057500692794	5504.5085851892
0	6236	324786.051391039235	5455.9208442592
0	6245	325080.022609860466	4496.6242303182
0	6250	325458.793089896233	5242.622931475
0	6263	326779.288463869356	5841.207527733
0	6280	327442.376237179834	5124.0259864221
0	6285	327737.102051510425	5559.8208778696
0	6310	328848.217118502893	5568.6945991301
0	6345	331407.205547567993	7445.5969949834
0	6357	332025.181179146848	3923.5647185965
0	6362	332278.464946850482	5627.4852756364
0	6379	333141.846576719167	5134.5270566205
0	6396	334264.173708212461	5389.5283149644
0	6405	334774.170520988433	4619.1149297421
0	6415	336033.361256692271	5734.7295128934
0	6424	337544.944857648614	5079.3955177358
0	6468	344627.494978212677	4383.9180008163
0	6473	344926.831435309852	11567.880206232
0	6484	347664.692625398176	6608.0525443033
0	6545	353375.016321815735	9485.4714807885
0	6558	353995.691808441926	4991.764160072
0	6609	355969.143064357827	6618.804825979
0	6614	356267.730842189779	5404.9923709024
0	6623	356851.778575076664	5679.2477936829
0	6643	357609.458487106928	4837.9439811612
0	6671	358529.770856212921	5188.7282048644
0	6679	358860.011185836412	4957.6946219646
0	6699	359482.782528460217	4754.6789869806
0	6722	360023.444106680778	5900.046231411
0	6782	362377.504655292405	7414.704348724
0	6791	362617.817976482358	7430.715245974
0	6819	363591.383813678122	6552.5877723585
0	6832	364200.678640532654	6784.4408340561
0	6838	364459.401882898199	5873.4233779026
0	6861	364782.667760082178	7149.2391250283
0	6891	365969.99741600002	6499.5671785451
0	6900	366271.324931315542	6467.7178951956
0	6914	366891.980094376191	7075.0073959669
0	6919	367201.867497549613	7433.2022258505
0	6927	367491.569296082896	7561.1007997392
0	6933	367787.592788863887	7658.9797200406
0	6941	368111.772695781026	7608.3999905413
0	6949	368369.998871367598	7084.888270186
0	6958	368683.282413702512	6233.4958696391
0	6963	369001.436998695198	6266.437384742
0	6971	369305.048403502053	5832.870730538
0	6977	369577.37306718926	5070.5329048856
0	6985	369854.442800963996	5265.9174771485
0	6999	370545.571631932253	5857.34103747
0	7046	373884.125823123783	7895.0835205533
0	7092	376473.791341249788	6867.9368855891
0	7097	376765.588005264712	4469.8927989628
0	7102	377080.433944611287	5193.3158086119
0	7129	378150.408216322987	5653.1374041294
0	7139	378726.949298570171	4936.3213668344
0	7148	379004.882591526581	5827.2077307551
0	7153	379308.131431389781	4698.0816623117
0	7162	379728.411535734571	5517.6770629734
0	7172	381741.682522734673	6489.1478879343
0	7197	382856.852137789019	5283.0850217772
0	7236	386202.561319267515	8333.9275432197
0	7253	386777.068567954156	5006.0209874007
0	7271	388799.247952251121	6615.4249415695
0	7296	389622.612486097058	5165.1362836217
0	7304	389893.454106608771	4231.0989866319
0	7329	390782.562051224286	5621.7874053062
0	7335	391043.882448904323	5021.9223209709
0	7344	392466.174979890917	5916.5264125832
0	7360	393618.484646818046	4641.9700229612
0	7385	394594.608849436231	5900.8840677866
0	7396	395242.447761951024	5379.620343256
0	7449	397472.150726524392	7338.4564261921
0	7455	397764.374677044255	4169.7835010414
0	7463	398442.520078795117	4744.3137600696
0	7480	399267.759741995531	4852.0425900472
0	7489	399751.7475900233	4326.1167454707
0	7517	400771.165682143685	5263.0943841561
0	7525	401107.314753113795	4496.1592260328
0	7531	401375.662459674912	5764.8016505801
0	7560	402918.233649529771	6130.7202132722
0	7588	404222.458550381041	4286.4054032426
0	7599	404819.659665401328	6359.4719144496
0	7627	406139.436960181284	6082.3739304653
0	7636	406464.819541692106	4872.3041302959
0	7649	407010.028353472116	4677.9655177602
0	7681	408282.634308243212	5422.4721695253
0	7692	408887.264361889094	5280.7670442739
0	7711	409644.347119126061	4485.7435018556
0	7717	409922.532808929015	5985.9410940747
0	7737	410874.277175950556	5414.4726935155
0	7757	412211.242729000335	5885.810881421
0	7769	412522.616121338178	5122.1167718326
0	7816	414427.394634822588	6983.8928877271
0	7824	414737.873441064385	6619.8075609201
0	7833	415050.349832191247	6005.1271107918
0	7843	415638.486276894725	5668.875076051
0	7864	416580.856505991658	4293.7302068344
0	7872	416872.576857383227	6143.3185942868
0	7880	417186.779186498164	4572.0489715012
0	7905	418177.653662285448	5040.117156412
0	7914	418534.824361179392	6126.0118683503
0	7927	419132.643044144151	5958.0881410297
0	7956	420388.858841518986	5443.6540324123
0	7990	421797.727406965149	4781.5847054893
0	7995	422117.123563019128	6148.7284090557
0	8007	423203.337879496252	5734.1774492793
0	8041	424356.673185021528	5919.1053630037
0	8052	424681.103707345127	5350.0213617132
0	8060	424982.478648800898	5192.4047755189
0	8085	425835.242484234143	5672.7879899389
0	8096	426462.35167546487	5962.7546673084
0	8116	427340.248307959957	4101.6407846108
0	8121	427649.224098364734	6593.0045839078
0	8136	427971.495159180773	4898.0091575355
0	8155	428891.222186001822	4093.7603184482
0	8163	429289.678200150099	5876.242569603
0	8192	430814.955782349792	5711.3336976551
0	8206	431373.169561422854	5693.1660344915
0	8218	432304.381013056857	5592.861082045
0	8223	432588.697976746923	4807.1065449922
0	8232	433216.933118893312	5412.9075723334
0	8252	434241.895227142878	4947.1797677888
0	8266	434955.900323613928	5030.250231727
0	8305	438576.184288560052	8003.7968009313
0	8311	438939.840326568276	5303.5617227932
0	8356	441337.554996131174	7169.0333415214
0	8362	441664.769791409879	4427.7328118363
0	8370	442134.839104756105	4534.109655392
0	8418	443965.157736018873	6114.5097610485
0	8432	444534.261389610763	4626.3673763246
0	8437	444805.554850540155	4975.5203817271
0	8446	445168.30694340677	5195.6609941186
0	8461	446355.985447049298	4004.3478077648
0	8467	446645.543873361786	6463.4065595015
0	8475	446925.291433094341	4728.9743345113
0	8483	447233.861836234679	4470.3125752122
0	8489	447555.475923722122	4817.8333831439
0	8544	453879.353011945773	10136.087379684
0	8553	454473.118165186085	4382.1314850874
0	8590	456377.60135706724	6042.6110060748
0	8598	456688.760050650187	4242.1120553158
0	8604	456973.196281625857	5137.0208522196
0	8630	459090.094843952919	6304.3704478259
0	8658	460139.792423805107	4868.8546919159
0	8683	461076.105616341596	5981.6193977026
0	8697	461666.577324912399	5964.8975544078
0	8706	462338.748668930495	5108.3324644861
0	8729	463283.626127275864	5072.3534913427
0	8746	463906.446288506706	4737.3775256148
0	8754	464252.765576724939	4902.5725207125
0	8768	464887.314323300436	4711.2938294342
0	8773	465178.107596674996	5332.9288957614
0	8794	466921.664993989815	5995.2572428286
0	8811	467663.937557196365	5024.1670131315
0	8825	468570.327598113256	5453.2871607542
0	8846	469992.160568692764	5809.5797411251
0	8871	471100.249403630754	5413.6774685304
0	8888	472084.011567853628	5393.3747211135
0	8919	473408.164826190186	5800.1094750411
0	8934	474734.308733922992	4368.3786489644
0	8943	475013.528639711475	5121.6638383015
0	8953	475655.180391741103	6878.2557059166
0	8996	477219.770726810199	5269.4965955472
0	9007	477841.086121235464	6871.3021716055
0	9012	478102.455085191308	5916.95383735
0	9021	478902.785158560896	6073.015504115
0	9050	480418.335439347102	5442.8242350361
0	9055	480696.906982287462	4930.9607064574
0	9067	481158.027517117378	4848.1665267794
0	9072	481413.594733504827	4950.5554826577
0	9134	484139.356122995432	5007.3165021909
0	9140	484430.803711889788	7435.6121512804
0	9164	486597.897625106703	6745.0136748375
0	9181	487200.811043904871	4892.4064367454
0	9195	487499.391684416412	6052.3501117776
0	9206	488069.490282307125	5191.2373010272
0	9211	488360.089279246402	5852.0553622631
0	9220	488644.04208495093	5439.7481108367
0	9225	488951.654858384421	5634.195238308
0	9243	490665.966643676528	6062.9055671984
0	9260	491541.425068540598	5044.2773573913
0	9294	493478.99582470574	6268.3652967442
0	9336	495256.997045653169	5666.1340814567
0	9348	496171.701857739101	5227.8232139844
0	9365	496743.10563553112	4566.0682717676
0	9373	497067.181452635553	4890.3172605881
0	9387	498002.086625896499	4199.9631624062
0	9406	498997.601603550517	6166.3159531988
0	9416	499581.105319493817	5250.1660748212
0	9422	499866.576368771603	5999.5773042443
0	9447	501250.694757681836	6571.9649194734
0	9459	501986.542092007308	5840.0032335374
0	9509	503838.70593941268	6991.7729383701
0	9530	504969.87112245186	4696.3771477783
0	9540	505551.859284200485	6727.5230983237
0	9560	506437.855387999722	4449.146314563
0	9572	506693.986501294314	4871.0749500643
0	9577	507029.955086333243	6502.5808618871
0	9585	507365.044059331091	5064.1870143041
0	9597	507649.571016300384	5199.3153566602
0	9627	508811.956205083053	5969.4126135587
0	9635	509139.553041624513	5510.8533041432
0	9658	510197.385158634956	5263.1238520875
0	9696	511922.979934040469	6060.4527174662
0	9718	512835.001467035199	5294.3068629647
0	9740	513773.932362846461	6279.2731302173
0	9753	514295.184393772863	6375.2559827534
0	9762	514589.124899369361	5668.4254803281
0	9767	514909.709156244245	5675.2445101507
0	9801	515913.001145212382	5173.9495564816
0	9812	516468.226795091926	5535.252312858
0	9820	516747.189672993577	5034.8095036194
0	9837	517621.534929565232	5836.9909890963
0	9843	517881.380202971781	5311.9950340885
0	9851	518494.903367459884	5474.336519763
0	9860	518979.439163663617	5461.9652837779
0	9869	519714.652515051718	4793.4830824338
0	9880	520063.704237885685	5102.9080868633
0	9894	521136.893975923312	5314.8809736237
0	9946	524387.901253155858	7675.7763094562
0	9991	526056.322787863103	6147.3694704074
0	10000	526301.219774824551	4967.7929750696
0	10005	526595.864543144725	4298.8478887952
0	10013	527023.835912358335	4585.5687220181
0	10031	528052.078130321664	5216.8681580757
0	10039	528391.869038570316	4672.1450555171
0	10047	528763.921879593524	4232.4526372051
0	10059	529570.556009293727	4759.4539503143
0	10065	529871.591673185405	4805.0940118864
0	10078	531831.94858425835	6472.5806378744
0	10115	536482.988388943077	9197.0141367179
0	10146	537821.466609546194	6000.1280271172
0	10169	538909.246417497153	5761.6661444145
0	10193	540868.881987451166	6355.173816082
0	10198	541152.230922276493	4896.4979044659
0	10221	541764.895189461357	4782.5303980595
0	10234	542377.963169603608	5234.498811258
0	10251	543043.075440230551	4881.1651279499
0	10268	544217.498090468265	5515.577431059
0	10291	545362.559511865211	6650.8282121686
0	10330	546787.950632216603	5621.6201122857
0	10344	547388.393393868778	5883.1181150508
0	10350	547730.213574626747	5522.6419855784
0	10391	549255.678369453333	6504.7458287413
0	10403	549724.604214475217	4982.6939872299
0	10417	550019.285349973575	5963.9924060522
0	10423	550318.70255329787	4762.5648311044
0	10428	550642.76578627544	4938.4824717741
0	10439	550926.092479880035	5290.4246894097
0	10458	551754.739790578194	5226.1767258843
0	10470	552176.405441993823	4206.1105664753
0	10475	552468.775212691779	4732.2485800418
0	10483	552784.136751615294	4408.8870722946
0	10505	555035.078063088654	6404.8528536393
0	10510	555371.405214177457	4713.9930623731
0	10540	557999.676978142377	7157.9947263287
0	10571	559704.437370156162	5312.7247544221
0	10591	561779.177074082078	4582.0050289708
0	10624	563079.785798973074	7218.8141209031
0	10638	563620.1192222539	5719.2465206224
0	10649	564226.29141684178	5526.1653621892
0	10678	566417.595269077731	7310.4892184058
0	10687	566735.058574454424	5190.1763688468
0	10701	567043.787753300578	5455.6990132371
0	10737	568654.58133522383	5747.549248934
0	10745	568903.24450340583	6561.1375453836
0	10760	570270.126542971749	6917.9332639149
0	10768	570606.336349969884	5067.1769205902
0	10791	571546.314808669664	5726.1588767224
0	10811	572172.174368082715	5319.7276253908
0	10822	572770.464278697158	5878.1833585181
0	10830	573085.772995688807	6080.9143943941
0	10852	573926.638044739841	6136.4522224393
0	10870	575159.633077861212	6326.6588136112
0	10887	576098.081398303428	5170.9637562094
0	10899	576878.421917181283	5442.7610766395
0	10904	577184.147932821643	5291.2105105231
0	10916	577786.255086111671	4816.8096662564
0	10921	578089.192692689551	4806.8603299819
0	10946	579234.034019478502	5221.5951878615
0	10977	582379.612986966431	7203.636685911
0	10991	582991.291758217098	4622.7039047915
0	11001	585119.944116195283	6415.769222908
0	11010	585704.156521514919	4634.2982365601
0	11019	586531.885353085939	5269.7873951921
0	11063	591442.563854637651	9103.6810403716
0	11082	592592.329877360411	5323.792142875
0	11091	593176.168930033541	4595.6765286723
0	11136	595613.592869796465	6301.0391456224
0	11150	596223.725913094934	5023.8045189027
0	11202	598813.656418348259	5459.9022103893
0	11207	599103.034327882731	7745.1478312259
0	11216	599387.283148775087	6014.8633694239
0	11221	599695.38738510063	5724.0870915985
0	11226	599968.767224711057	5259.4347291966
0	11235	600571.929195337453	5169.466409547
0	11289	602624.24217720888	6209.5555626189
0	11300	602899.661846828597	5388.6815385868
0	11310	603366.716311426125	5686.9879093101
0	11326	605154.621190801963	4257.6337425394
0	11358	606080.927814527807	8098.0533353116
0	11368	606662.269242364822	5634.8278721368
0	11377	606950.382594028252	6003.0428769564
0	11382	607266.696426230109	5812.2945036191
0	11390	607608.068321748589	5651.5604187766
0	11432	609381.185507847296	4474.4064711936
0	11446	610050.933863236463	7411.0317139431
0	11471	611029.23489713635	5782.9042303929
0	11491	611916.832212512011	4283.2859517697
0	11542	613321.518397293306	7342.6793099774
0	11556	613977.284936390072	6584.3608099398
0	11570	614617.460786545657	6327.5408828141
0	11578	614911.539968205724	6148.8236138826
0	11583	615164.700701957747	6038.6759191427
0	11595	615471.1102728291	5394.0378017402
0	11626	616359.268488867991	6273.9587458177
0	11667	617875.337527320436	6560.8712321473
0	11673	618156.881837683932	6515.9432683747
0	11684	618426.746616591981	6464.5274541237
0	11706	619312.915680349032	7249.9518422175
0	11731	620121.424126874639	7603.0428236923
0	11790	621749.67929110406	8657.4207855437
0	11798	622029.922911902977	8155.4405328747
0	11804	622320.522568174557	6624.2956293247
0	11812	622626.99829707002	7394.9499738433
0	11823	622972.647201852059	6814.6703032816
0	11840	623632.857528840352	7293.6856062408
0	11857	624302.526256984735	8094.9793643641
0	11865	624614.982004109292	7395.7415308646
0	11871	624886.349734182729	6574.2238022889
0	11882	625211.531531709087	6705.0980475443
0	11887	625523.722005669472	6402.3941527839
0	11899	625816.37741320098	6457.6816297341
0	11915	626740.155776663839	6860.115983857
0	11926	627036.371132355158	6487.2942124171
0	11948	627899.884035866089	7687.7666387599
0	11953	628204.900333783097	7618.1465549985
0	11959	628517.178246315972	7780.1895639326
0	11964	628800.390869074606	5841.9700845934
0	11973	629316.655214328972	5941.6537049581
0	11982	630473.414079162566	4768.2188982477
0	12002	631333.426332294585	4427.8751342256
0	12007	631621.529143418337	5883.7639000626
0	12030	634600.538187695398	7351.3400658981
0	12052	635707.305424901701	4933.0180989809
0	12082	638053.100126949695	6022.6828635731
0	12132	640197.94903454081	5186.8533924369
0	12138	640444.464682660461	5997.847834851
0	12147	641219.945917325504	5409.4033818873
0	12167	642268.438984566365	4256.957189756
0	12175	642579.734324806831	4425.3851006701
0	12184	642907.786857193897	5485.228390888
0	12189	643178.700824309182	4318.9805149491
0	12201	644352.754778030163	5321.7028350858
0	12248	646172.790520469129	6826.8343950775
0	12290	648965.630433715583	7382.4575686742
0	12295	649256.804960467551	4584.897083993
0	12303	649563.010782209274	5482.4022892497
0	12309	649829.135924592686	5396.6621196085
0	12317	650372.83718668743	5429.9412218742
0	12326	650797.293197130646	5604.5663749917
0	12335	652218.928581845911	4567.4488802398
0	12344	652694.681273753939	5016.8745389664
0	12405	656813.902120207541	8898.5650323295
0	12428	658034.560138480016	5137.1564357676
0	12450	658965.554866006715	5511.8991439556
0	12459	659214.308462490676	5229.4725407479
0	12467	659574.575747657176	3785.636084367
0	12506	660757.520041562671	6540.8104795169
0	12573	663116.623346889213	5249.4070989365
0	12581	663421.187636845082	7628.4672071109
0	12598	663968.739471946728	6598.2542094299
0	12615	664589.45332899123	6366.4379158813
0	12623	664894.582638829157	5588.3392406842
0	12635	665185.991737787488	5149.7024208975
0	12657	666086.299581959015	6399.1216708271
0	12668	666371.873532950411	5911.3382175694
0	12676	666663.218661266396	6089.1051810796
0	12713	667773.908515646421	7147.5571266633
0	12718	668125.300490153552	7033.4816566937
0	12726	668406.320969170575	7249.9074180315
0	12768	669928.918173666511	8364.7056119327
0	12776	670186.616675741641	6886.5954200253
0	12790	670781.875257197935	8968.1606192215
0	12813	671366.218682621584	7440.9735002134
0	12832	672314.586370367856	7412.2959723586
0	12843	672637.471360598625	5993.8264434925
0	12883	673886.063934133131	8944.1971086339
0	12888	674189.764876554015	7323.7865474411
0	12899	674433.56081245648	5756.2995430248
0	12919	675466.537805794363	6576.4999166414
0	12930	675796.727817323598	8894.5323414352
0	12963	676893.492666789201	8534.455088199
0	12972	677238.824236349262	8208.0043136379
0	12988	677775.566973242775	7689.0723071018
0	13003	678099.751549963123	6990.0714040531
0	13019	678956.392852071139	8281.858224749
0	13027	679225.144054402906	7671.5559171334
0	13032	679535.701917424099	6647.8447855997
0	13044	679828.298152215438	7472.0437873017
0	13052	680078.276865932127	6854.4171082507
0	13065	680582.656719322099	6240.5360486944
0	13074	680892.082328529227	6146.8206497686
0	13079	681204.476809798676	5607.47148801
0	13091	681500.277922428316	5943.2410537326
0	13104	682099.38075989527	6002.3185236073
0	13113	682424.362930682606	5410.4626183701
0	13123	683048.825885581355	5194.4860697237
0	13141	684382.866217112266	6390.7643078826
0	13166	685482.483263221605	5624.9719138497
0	13195	687009.605334769271	5516.8771235023
0	13212	687917.764813075626	5786.5047918137
0	13232	689089.12807838231	4437.2748868174
0	13243	689619.302162230025	5990.9919958034
0	13255	690452.365000222751	5662.8681981013
0	13260	690730.130669565745	5047.264041873
0	13269	691083.173836145812	5001.9624024793
0	13278	692262.834770206338	5414.6206932405
0	13287	693142.739558503097	5537.6521223858
0	13367	697197.748679212702	3898.7176909656
0	13381	697961.550908787669	8887.0826339117
0	13395	698335.106439502315	4341.7278336987
0	13409	698875.034618372899	5301.2570344469
0	13423	699170.474240559626	4520.2528047999
0	13434	699800.63253621698	5186.026618179
0	13439	700095.252540399064	5441.8604972546
0	13470	701134.187895261787	5355.851487047
0	13481	701664.043423029802	5031.4665868162
0	13493	702665.384840845951	5471.5475032165
0	13518	703672.991836327611	5614.5811363635
0	13527	704027.73986577542	3796.6441226206
0	13541	704653.930087528964	5583.0282382241
0	13556	705550.968633450958	5006.2048865976
0	13575	706726.760863867985	5682.428780508
0	13584	707180.496429123405	4787.6685264882
0	13621	709004.770388933612	5937.7955771388
0	13671	710859.876662459255	6851.3555652768
0	13679	711175.674953209446	5886.8706029695
0	13688	711490.954631630753	5984.7467102185
0	13729	712991.753936811542	5489.3174169484
0	13747	713370.673114431968	5980.9474592131
0	13780	714723.613357115606	5899.1459039839
0	13789	715045.191217291086	6669.0610784935
0	13806	715739.693347153363	6615.6313724763
0	13814	716003.355815738684	6746.7994723441
0	13819	716329.961576370891	6916.4409259746
0	13828	716621.735390286605	6657.1140691421
0	13833	716922.349788223881	5242.2796700473
0	13841	717161.941181507752	5885.7659522221
0	13847	717448.085803891593	5424.7817273778
0	13852	717690.531470654772	5473.2510412513
0	13872	718631.997462957625	5404.1017324226
0	13880	718943.177976404193	5739.0054294164
0	13911	720064.595101546735	6309.3186162861
0	13946	723014.345123127937	8123.4305019983
0	13958	723574.020971210621	5536.6923043142
0	13966	723889.217335328172	4924.7870897653
0	13971	724179.757215137389	5404.3569274036
0	13991	725086.791611877692	5826.6473092862
0	14020	726183.047530273447	4957.2341072116
0	14030	726662.36587308445	4964.8045898186
0	14044	728984.677206739996	7142.263295993
0	14049	729276.562883497315	4427.8359646129
0	14058	729785.603952392465	5293.846999914
0	14067	730672.555185529915	5038.7366500414
0	14118	735089.490979751613	4264.7518456704
0	14129	735654.820414699092	9487.7636772525
0	14170	737325.535127988666	4337.3610329544
0	14205	739053.353728918613	7493.1903901838
0	14213	739408.203460668871	6027.3690052015
0	14233	740400.719086696594	5545.9276716408
0	14239	740767.562913836241	4796.9401121372
0	14270	742041.500557998305	5415.9885373857
0	14279	742358.864674869059	5228.0274156308
0	14287	742662.920130565558	5687.1284648924
0	14292	742949.24072160793	5663.2917922493
0	14298	743269.334950122658	6085.5159217216
0	14306	743982.12262597557	6379.3868650521
0	14324	745224.988811948591	5620.9638711831
0	14332	745588.905484459084	4441.8075412971
0	14429	750861.458942631818	9535.7283588662
0	14435	751187.650196410538	6553.021139717
0	14443	751705.325515771348	4491.5379347844
0	14460	752355.184306003366	4991.2815909335
0	14475	752814.120112651747	4577.139676307
0	14503	753731.936815994384	5473.0201328993
0	14517	754046.460140094872	5723.3103702477
0	14528	754598.190042015031	6221.2130173789
0	14536	754910.341131093134	6246.3674996817
0	14558	755947.06325339501	7413.1522540813
0	14564	756227.203308948861	7290.4091121845
0	14569	756582.524146076615	7351.6180290341
0	14578	756943.48746002178	5175.326814009
0	14598	757836.910545530384	5057.7328330636
0	14611	758462.972021640683	5480.9877078432
0	14623	758975.335191439234	5062.8116382947
0	14648	759907.584561723195	5139.1709435479
0	14662	760949.866129103316	6011.9511591845
0	14677	761553.949426234913	4311.2113079172
0	14719	763720.981856877459	6007.1052310585
0	14725	763981.992473109647	5026.7726433574
0	14730	764254.491925722357	5037.1374954571
0	14740	765481.645428719808	5612.143685501
0	14751	766178.371107092279	4800.7286686767
0	14768	767069.025578947334	4346.9999397899
0	14774	767410.908852352397	5926.4793903343
0	14801	770213.960623670901	7155.7045256915
0	14835	772134.400939863207	6201.7935687557
0	14852	772788.411705631756	4775.2757845772
0	14881	774617.778110261287	6244.7151510156
0	14895	775156.341357618249	4675.0501102624
0	14906	775565.489928425635	4970.7501540354
0	14924	776799.314100024437	4552.1191826511
0	14932	777086.960746652255	6278.7310177779
0	14991	778948.314112346331	5834.0517546411
0	15024	780436.985603817049	6443.2625171262
0	15029	780763.144782689353	6388.4366022038
0	15041	781165.732274706686	4362.357038916
0	15052	781485.671758248804	4394.0146062335
0	15063	782009.630955329576	6647.2827016329
0	15074	782515.36074700693	5060.4101541451
0	15080	782748.521026220888	4922.6943509914
0	15106	783481.207087247779	5263.1484775236
0	15119	784059.697838516401	5272.9163765191
0	15125	784312.10273343189	5605.7984231891
0	15133	784644.707954403739	5411.2212888525
0	15155	785586.713068811534	5960.1107588693
0	15173	787329.806911777788	6026.1870722382
0	15182	788059.782304036973	5193.084005394
0	15190	788280.38483890748	4976.0277969128
0	15210	789254.33929691567	4712.1519575029
0	15244	790820.253934304712	6043.7883939515
0	15287	792834.419196653412	6704.9774430997
0	15351	795258.820218422679	6194.4316575661
0	15360	795543.502238947706	6895.899870278
0	15365	795840.71025599416	6209.1692487818
0	15370	796104.195709620055	5955.3424444487
0	15382	796425.594452750772	5709.1207884174
0	15390	796753.744772656482	4922.5488229742
0	15395	797039.694053393433	6000.2835200694
0	15401	797398.068147705979	4847.1034113909
0	15412	797760.388308669166	5003.8613335629
0	15421	798098.265084658973	5333.1932525294
0	15429	798402.435114285812	5679.4487749414
0	15434	798670.169651062485	5554.1972182
0	15443	799054.627637132713	6080.1097955197
0	15502	805924.542634180544	4375.5879116707
0	15510	806163.255491498111	12447.270380059
0	15518	806435.878056523475	4746.449629538
0	15541	807628.000101430774	4583.4421040448
0	15561	808866.423533689663	5656.4729301532
0	15620	811274.312329865664	7138.9259074557
0	15625	811618.823583364404	5304.6821851789
0	15634	812157.760618898279	5060.2839010716
0	15659	813359.961903482572	5101.3781185598
0	15674	813908.868472095641	4501.8376897548
0	15679	814212.716196802511	5400.84694582
0	15688	814516.1326978566	4783.9333195238
0	15696	814833.99461714908	4873.7732351533
0	15704	815124.89641381835	5371.0741231472
0	15718	815884.448244014678	5767.3279696462
0	15735	816868.95261998939	4696.3034728446
0	15754	819132.829192885156	6653.6441405801
0	15775	820714.192208762469	4448.4296024451
0	15783	820994.178537544247	6077.1152321923
0	15840	824467.859797150934	7583.3896484716
0	15860	825183.012509516007	4404.4204323851
0	15866	825450.991327352216	5528.7130269986
0	15877	825757.115562920244	4696.6133032335
0	15882	826067.033405008134	4259.0614041886
0	15891	826490.296498070526	4405.6051856192
0	15922	827853.771340324316	5230.3398248993
0	15950	829081.728670629842	6353.9382620917
0	15959	830308.479809614282	5748.52177104
0	15968	831074.664552288933	4559.4860178989
0	15984	832491.122597517081	5823.2528968784
0	15989	832830.004062161677	5128.884799749
0	15997	833126.336917878225	5575.7194925569
0	16024	838055.691427101459	9898.7902050004
0	16036	838858.024676816728	5859.2821654791
0	16070	842920.723263166268	7567.8706406681
0	16087	843648.989115675073	4955.2070084096
0	16104	844800.320653706886	5368.1748911056
0	16127	848140.949318303986	8084.1680411232
0	16132	848438.005696051217	5425.0551675734
0	16175	851044.341196419405	6892.6178801018
0	16216	853673.582044132503	6075.7240729922
0	16222	853993.386696516588	5529.4430553763
0	16227	854238.802663483233	5244.5250010703
0	16236	854627.678175604899	5095.6253794879
0	16253	855838.778042570915	5708.672169425
0	16262	856579.092817805851	4120.4804742171
0	16290	857705.759243110136	4946.3912207711
0	16330	859996.224922334279	7129.3427913809
0	16348	861024.893935208222	5760.0054809797
0	16370	861870.654525777691	5199.5839118617
0	16378	862182.6163789818	5408.8964558201
0	16406	862989.531833545966	5528.5203494838
0	16442	864472.348500489688	6309.7092015222
0	16447	864777.377311423414	6219.2792509119
0	16462	865526.907386998555	4594.0797265142
0	16468	865815.091724471617	4515.7886773269
0	16473	866083.139400109827	7223.6620770879
0	16482	866759.817651800532	4028.1426996158
0	16493	867100.719473800684	4901.2804754273
0	16498	867423.068467715746	5276.0120815551
0	16513	867844.449597924114	4841.4611251678
0	16535	868780.700775881315	5342.4544596805
0	16615	872826.620249159403	5154.0616767322
0	16620	873111.023078587577	9407.2909308339
0	16625	873383.449640412669	5286.6579050225
0	16651	874870.362631422661	6140.094358622
0	16666	875525.57114177485	4443.071638835
0	16674	875789.469878464415	5428.2351974673
0	16686	876095.212125093308	5475.738740292
0	16694	876436.577507064912	5795.9324857922
0	16716	877347.861210308442	5780.4731131617
0	16778	879505.599257655266	8377.2639138153
0	16788	880091.535760795307	8070.446857805
0	16797	880361.425620662496	6810.601713207
0	16805	880629.491987122942	4335.6421262066
0	16838	881808.319197335442	7518.3016236322
0	16850	882107.801741489671	5398.9027225762
0	16855	882445.980259106355	5278.9629842498
0	16860	882741.063913681411	5224.0022580118
0	16883	883364.696301963478	4853.2463819821
0	16891	883639.973079530254	6022.7297600509
0	16897	883935.822675879144	5795.4241948153
0	16902	884223.204807923262	5660.2800771643
0	16942	885915.241767377034	6717.976141397
0	16947	886244.999924588905	5848.4958281309
0	16953	886521.927621048282	5628.5199514167
0	17003	888466.679130392383	7303.0240844182
0	17051	890085.515338205226	5258.1652343298
0	17065	890355.974957987849	5641.0209393822
0	17087	891234.430686571234	8469.7116600943
0	17093	891551.959950342738	6482.9237997372
0	17101	891843.676225953563	5239.2392553827
0	17109	892172.842085021123	5548.4679718776
0	17127	892471.483284633599	5474.2692257711
0	17137	893036.71977218993	5264.9960900035
0	17146	893323.516642145817	6280.9104294077
0	17168	894174.63991118731	5316.3196438778
0	17176	894432.770963719231	5782.9192411687
0	17181	894684.271275564493	5535.493461391
0	17190	894994.601798353031	5764.5867206888
0	17195	895301.267827325349	5100.2412012111
0	17216	897185.23036423264	6938.1418770403
0	17230	897788.077256069286	5471.1554623438
0	17239	898348.895629439683	5039.7408630459
0	17264	899957.75527979916	6355.1646686377
0	17285	901490.509646162548	5586.3807350302
0	17319	903099.589054783168	4365.4839282766
0	17324	903356.427689857988	6244.0030167907
0	17345	904835.337112246661	5431.4562726367
0	17363	906317.590269548221	5499.1989437013
0	17428	908596.801853105883	7277.2843976136
0	17436	908886.700301902817	6714.8559442679
0	17447	909456.531270248641	7191.5772936433
0	17452	909746.597745735687	5543.9141231869
0	17464	910312.922737280127	4147.385245357
0	17483	910945.691382621031	6313.8625970521
0	17500	911541.125286617699	5115.6233833145
0	17508	911873.086590248023	5124.8544038476
0	17514	912170.798568622809	5014.729971834
0	17519	912494.853328646982	4913.954888358
0	17536	913252.658046531595	5425.0999371653
0	17562	914621.60281820812	5789.7980259175
0	17579	915636.135227513636	5505.5010424869
0	17588	917061.300169371358	6305.2924350565
0	17620	918313.241921224526	5706.6551158369
0	17634	918931.013929724039	5201.3656962337
0	17642	919227.582200490942	5476.8399663784
0	17673	920952.496814789841	6082.2910284903
0	17682	921875.845650999124	4795.2003370511
0	17691	922408.438692533913	4662.3456623203
0	17708	923276.64645279333	5064.427430203
0	17716	923716.128386425221	4447.3505379373
0	17731	924350.514144072127	5146.8084700396
0	17754	926560.040215874223	6690.1317092924
0	17782	929177.065722505293	6548.1361608705
0	17790	929489.995654047931	5277.1987544912
0	17816	931161.455694298231	6914.1440006639
0	17821	931473.382506348817	5170.1234630464
0	17850	932810.796784794964	6058.4922353764
0	17863	933441.43837989645	4226.6971906739
0	17917	936000.613236843705	6380.9500363057
0	17923	936307.40698248347	4594.7077085208
0	17932	937134.602372085062	5376.9025061298
0	17950	938337.174950975226	5828.4529288981
0	17964	938966.6628346828	4949.2973938657
0	17969	939317.682365025538	5282.2791483461
0	17978	939613.74779795904	5319.1388916875
0	17983	939939.748493535836	5555.8949759259
0	18068	944071.88894276383	8965.7721046737
0	18080	944685.804752870848	6466.4012655693
0	18108	945590.679215168383	5132.3015332881
0	18119	945906.117051521483	5269.2360106181
0	18124	946195.844235665933	5352.7507309023
0	18130	946464.1860133993	4486.3197948412
0	18135	946797.887097219836	4519.9252262026
0	18144	947291.987628232072	4857.7720052868
0	18186	948507.667491593913	5656.1556250337
0	18200	949052.674537641873	6042.3899589758
0	18208	949329.061197382935	4737.8342927362
0	18219	949928.599254942694	6536.1178495544
0	18239	951118.07067088689	6240.0484734523
0	18253	951688.431060234968	4349.9967700601
0	18273	952520.805371521578	5161.5299063134
0	18278	952829.253472780634	4967.3146023642
0	18286	953092.336000753735	4668.0239742918
0	18312	954516.405733848267	5392.3852072898
0	18320	954833.616608748496	4791.0129133167
0	18347	956633.395393771136	5740.65826335
0	18355	956928.883596145005	4956.8902327032
0	18373	958462.065710065217	5263.149972843
0	18382	959362.955769103966	5751.9888092622
0	18399	960406.244400980737	4662.3350921209
0	18428	962212.183867678474	6383.4512020506
0	18451	963997.146745964797	6149.3049648837
0	18488	965877.301300836031	4564.022245594
0	18494	966156.947018586054	6689.2322331526
0	18502	966740.798865993384	5150.7986659867
0	18520	967774.187032385907	5727.653888801
0	18528	968455.556314842553	5800.1295363677
0	18546	968986.796034212373	4146.166751454
0	18562	969873.110195096618	5139.1473192568
0	18588	971964.919175013176	6717.0100633966
0	18597	972720.383842981001	5606.452252856
0	18609	973530.245121800698	4680.5559801838
0	18615	973842.534525100282	4925.3490338497
0	18636	976001.783828316798	5885.197271682
0	18684	978508.247948120981	7208.528649854
0	18719	980510.015165027736	6286.2620350589
0	18733	981082.403290271588	5086.9569961443
0	18766	982247.40968722447	5875.51091747
0	18775	982553.039178488088	4915.6384770266
0	18788	983158.256788303765	6426.7467087419
0	18794	983429.069463039117	5690.1421177399
0	18802	983866.262913443259	4596.5167357007
0	18820	984952.301868704903	5086.7726166771
0	18834	985350.97701715603	3998.2902798678
0	18842	985639.094045434218	4732.336467208
0	18853	986198.633459790182	5853.7658333256
0	18868	986711.249247310747	5040.7587328784
0	18896	988952.987405423027	6577.1074869774
0	18917	990196.688181392054	5879.6390794612
0	18930	990841.630870955138	5360.4357293814
0	18942	991289.906354727712	4880.0392139454
0	18956	992276.431037142511	5805.3633372931
0	18996	994222.90389428739	4603.6797062053
0	19013	994824.70822027058	6490.814222142
0	19024	995380.931989546645	5266.2153541593
0	19057	996657.106589624143	5653.804775068
0	19092	997811.976853448828	5351.0565559216
0	19102	998438.180560144391	5426.4751755052
0	19108	998714.111362518557	5133.8149728398
0	19116	999348.514416700529	5137.8388843399
0	19128	999734.438554555703	4341.9624399975
0	19133	1000089.84760255927	5339.0655734179
0	19142	1000429.697991415948	4957.0079925714
0	19151	1001355.355404904509	5290.763759711
0	19162	1001790.853785893455	4853.3161528909
0	19168	1002066.330076198806	5026.8995235684
0	19255	1008149.678346063297	10427.397164188
0	19266	1008510.020701846514	4032.4564185243
0	19277	1008821.682976967079	4914.5499333893
0	19299	1009659.421941447255	5629.3970985027
0	19308	1009987.860465990453	4228.2369143167
0	19313	1010291.585317185475	5506.0269259575
0	19417	1013714.891665044031	7844.7393011771
0	19422	1013943.747209799375	8057.965280114
0	19431	1014244.085917783557	7381.0903930948
0	19439	1014565.555737330307	7361.1103152494
0	19470	1015429.344892183783	6678.9680759294
0	19496	1016056.218727301032	7066.9988337441
0	19518	1016941.438754516002	6504.4832041784
0	19534	1017438.517239146837	6992.3292369521
0	19543	1017786.300287599637	6524.5946481522
0	19554	1018327.769891840625	7387.9869161485
0	19562	1018618.983039835381	6901.2269022336
0	19570	1018894.478086962895	7619.7638473764
0	19576	1019220.353390730752	7548.5954169727
0	19587	1019510.09039349909	7196.3479029301
0	19601	1020119.649444176813	7783.558247857
0	19606	1020396.963016504004	8016.7368875013
0	19614	1020679.231987084258	6216.5302121319
0	19623	1021009.869285694369	6312.1394895708
0	19628	1021262.374156392355	5870.3931801138
0	19633	1021599.857401301342	5687.1465431447
0	19639	1021876.143244412125	5938.1148808044
0	19648	1022686.330804595755	5817.5859089483
0	19664	1023356.909181606581	5843.1811137462
0	19709	1026913.022802685231	7487.9935711488
0	19721	1028164.386307238945	5418.5669305821
0	19729	1028414.414132150824	4085.1186294114
0	19738	1028657.307568986386	4891.894582662
0	19763	1030017.214902362696	5314.2165563942
0	19795	1032381.118610064209	6824.3515872671
0	19850	1034878.342904263155	6378.4619814726
0	19861	1035540.831545700337	6365.2118408395
0	19869	1035871.271015999949	6007.9931681919
0	19880	1036435.02936662049	6330.5338296073
1	2593	121375.520540199086	0
1	2645	124445.288484688107	51.230370551793
1	2670	125992.451522645317	0
1	2679	126384.055957569128	0
1	2687	126661.344695299739	262.78483851757
1	2733	131200.740299739242	60.887140356998
1	2741	131867.910252647089	0
1	2750	132724.503052877294	0
1	2759	132998.072362761406	186.7602029659
1	2767	133288.424148610062	255.2872047454
1	2777	134766.469004585515	0
1	2788	135076.523508017396	56.626143649995
1	2814	136302.474959960845	251.69005731584
1	2844	137542.426625440005	256.97318968417
1	2852	137883.826693136706	58.773295703168
1	2861	138560.098687324083	0
1	2887	139779.441195506089	0
1	2895	140097.060177220133	59.027046986673
1	2938	142696.604881893603	219.60967851252
1	2947	143721.865170568826	0
1	2956	144045.426738151897	23.137672525866
1	2982	145752.236324241466	0
1	2990	146557.688325419808	0
1	3016	148168.227813555083	288.50376419627
1	3033	148804.660276123053	252.95982420595
1	3042	149335.518507446202	0
1	3058	149898.746782661603	74.17630834516
1	3067	150226.889722583452	285.52174023409
1	3078	150535.555804439974	1.574542293274
1	3093	151730.970756231632	0
1	3104	152079.245576035842	253.09213913459
1	3109	152339.122842535714	396.2465088682
1	3151	154152.696492361003	0
1	3163	154437.774046751877	44.237265241305
1	3188	155302.051530203169	213.57090806976
1	3204	155903.8474724877	172.58860244894
1	3221	156541.630450283228	266.54469654924
1	3230	156882.895373094522	74.110137140448
1	3252	158057.732005179345	26.215386882624
1	3269	158596.068134911057	30.334402349432
1	3297	159724.747769418551	173.35855849708
1	3302	160062.499936133239	382.49298231481
1	3311	160343.869605803913	59.774075247138
1	3327	160960.788322070803	102.2594541229
1	3347	161645.953227863379	337.36466729539
1	3361	162241.339883547859	95.3539779659
1	3412	165330.964828651339	160.39145155112
1	3424	165657.427464659447	179.20744187508
1	3440	166276.213863704198	59.912768529627
1	3454	166897.813717862208	227.29451929949
1	3462	167118.58217385674	51.309078318562
1	3471	167440.937642115077	97.182308575276
1	3479	167738.841510107621	219.87526291826
1	3488	168737.817119908134	0
1	3522	170511.215054465654	0
1	3531	170816.552661319561	6.80728281458
1	3545	171195.274402614175	285.1258649142
1	3591	174425.678283270064	0
1	3625	176163.149974297172	0
1	3634	176685.73018143319	0
1	3642	176962.371405448956	52.950676919422
1	3651	177533.841139261918	0
1	3668	178950.483368075305	0
1	3677	179248.551534410439	208.60144802729
1	3688	179576.307787824987	306.28652127563
1	3693	179820.570825748733	426.56957510392
1	3727	181329.423328718572	7.710857736821
1	3735	181612.860843276732	153.29274295647
1	3787	184333.076732461372	0
1	3795	184992.837175928473	0
1	3812	185612.962950047602	0
1	3829	186256.607946750867	110.5115279064
1	3837	186576.205737609911	193.06710981902
1	3846	187070.388500107911	0
1	3855	188058.744805500802	0
1	3909	190822.650485999789	141.65186722511
1	3917	191121.521285027811	39.56285721246
1	3931	191870.847799943214	0
1	3946	192178.850922689139	262.11808900291
1	3951	192474.793240394897	443.40162763472
1	3965	193062.942124049944	0
1	3973	193396.332933741756	19.316457180349
1	4028	196790.381139260855	222.55079672293
1	4036	197112.111517560676	410.60934772669
1	4056	197764.898017299843	223.0634022881
1	4062	198095.675450256777	503.74252464115
1	4089	200701.937226999441	180.95585194983
1	4120	202588.123982252997	0
1	4129	203300.98675041003	0
1	4138	204723.538802127293	0
1	4156	205790.377901891965	0
1	4167	206106.807099784539	36.043539280625
1	4175	206422.857285767265	325.14909860434
1	4189	207031.378687405694	266.70175141549
1	4206	207724.827624980742	267.94449624454
1	4214	208062.198309330135	208.96587235385
1	4226	208343.740108954509	235.0572492674
1	4231	208627.100845188324	338.20301831527
1	4248	209223.907767605155	212.75238337978
1	4281	210845.417289007349	143.27836792515
1	4301	211441.973398452921	205.10874328456
1	4367	215879.480684659918	0
1	4377	216983.779224350587	0
1	4386	217946.785306577261	0
1	4394	218260.365689709631	202.47419624222
1	4403	218784.08219679736	0
1	4420	220051.967637213647	331.59630246988
1	4429	220392.073093430075	0
1	4472	223244.084718887737	0
1	4495	224147.678603770127	268.94992094369
1	4500	224476.595877769589	445.6770162267
1	4516	226834.89553237395	0
1	4533	227603.814197250489	0
1	4541	227894.849637575575	266.77609261973
1	4561	228573.180550226646	29.534417108682
1	4597	231840.873739545447	248.2082902867
1	4605	232144.210912701236	385.95576399073
1	4630	233125.768685880123	209.2699567854
1	4636	233366.944603424569	379.37615044599
1	4644	233622.875311576025	84.372681026685
1	4655	233894.077568501807	263.21002100375
1	4661	234184.841755825831	512.84899679
1	4670	235180.019856173036	0
1	4690	235916.282124220247	220.07197297234
1	4712	236967.009100304462	156.62138525907
1	4757	239002.416443307915	18.695226968427
1	4777	239552.578514881347	264.00783005808
1	4782	239882.012051398409	380.65669842622
1	4791	240205.766574983658	672.70021439933
1	4849	245067.174038052641	0
1	4859	246432.840785213387	0
1	4867	246708.266013424093	220.9596008715
1	4877	248322.214247303344	0
1	4886	248610.304257546527	102.13264809665
1	4903	249690.095491675389	0
1	4911	250023.055528299641	0
1	4936	251051.008142522032	0
1	4945	251344.648839914977	264.53974695554
1	4973	252545.552365533725	278.64493586244
1	4979	252879.697407049417	579.21360524783
1	5004	254034.377028828389	270.83669680461
1	5015	254330.678219648668	285.73001199707
1	5021	254646.496326099819	334.37036915667
1	5029	255195.284091489968	0
1	5054	256032.249318272142	0
1	5080	257371.644326088175	0
1	5108	258556.903612134126	130.12940555419
1	5119	258842.602204226913	364.39550622841
1	5128	259102.672383718815	30.053009395143
1	5165	261803.514425367518	0
1	5173	262272.90870989268	0
1	5182	263073.822610610196	0
1	5200	263314.126860968709	104.62229817555
1	5225	265411.692510520251	0
1	5242	266173.411790497919	0
1	5259	266745.889492058706	0
1	5279	267460.537242034236	46.575252072822
1	5302	269804.013733886834	0
1	5322	270806.68897711918	8.310570910502
1	5346	272684.937503994279	0
1	5354	273183.331229395108	0
1	5374	273932.569263747636	261.34270116293
1	5379	274273.178187730664	509.19773386543
1	5391	274576.426775980475	274.21537401285
1	5405	275588.117378161229	0
1	5425	276818.903612639623	119.12573766541
1	5447	277654.570368379192	117.46004937732
1	5482	279733.99656105009	248.76686918177
1	5490	280134.249384612226	0
1	5499	280482.565577068913	0
1	5524	281955.631732813478	261.53804973565
1	5533	282675.686910323838	0
1	5551	283725.408694728429	292.51815815673
1	5559	284039.801212477999	19.321645281672
1	5579	284676.120221410639	140.21037909517
1	5601	286197.248081314055	0
1	5610	286619.354202043773	0
1	5653	289644.133824486671	0
1	5680	291869.475437825389	0
1	5688	292127.298540607916	10.975552618232
1	5706	293573.971136374116	116.4456693956
1	5717	293876.011837036414	282.7528675034
1	5723	294177.959827632446	311.36259060218
1	5731	294511.821203921981	298.39029640649
1	5757	296570.340755469357	0
1	5766	297123.154318043453	0
1	5809	299176.647512969996	0
1	5835	300910.495623656953	198.77640231691
1	5844	302048.63006725649	0
1	5872	305357.230363616105	0
1	5883	305653.654571590841	114.70700349214
1	5897	306286.105715238909	314.20655384974
1	5905	306725.513712753345	0
1	5916	308971.753580099325	0
1	5927	309273.800520361303	199.39678358037
1	5952	310187.879190692048	234.60520668774
1	5964	310451.87746156439	16.000484603811
1	5972	310772.844005734057	72.661279209263
1	6036	315942.45957630949	0
1	6045	316611.588823662296	0
1	6053	316986.514218111027	317.25545226512
1	6062	317472.308647962586	0
1	6070	317799.919878535895	203.24699382918
1	6079	318355.503722369062	0
1	6087	318671.744030081974	1.195114578419
1	6104	319610.123161137497	279.99261435744
1	6113	320216.170158421202	0
1	6122	320583.398379542292	0
1	6136	320950.740820379533	12.659884243206
1	6178	322493.378756977215	316.09758333635
1	6183	322791.796947071811	473.44669631405
1	6203	323340.675599621952	61.153080249169
1	6225	324175.057500692794	213.44894810816
1	6265	326779.288463869356	128.3087926553
1	6290	328007.31952009868	0
1	6298	328287.907150340339	186.29068978995
1	6315	328874.645393248106	0
1	6325	330155.055591246328	0
1	6333	330453.905432196428	155.27368839753
1	6367	332465.549339912818	0
1	6384	333358.951229077617	0
1	6432	340243.576977396387	0
1	6441	341056.64008109486	0
1	6453	343889.544841027255	0
1	6491	349003.927648369951	0
1	6499	349350.338238378847	0
1	6509	350862.738471287359	0
1	6517	351172.53078139373	0
1	6527	352771.514505945722	0
1	6547	353375.016321815735	33.973670467211
1	6560	353995.691808441926	93.375244570096
1	6569	354351.496796714058	228.0989214443
1	6577	354728.103541479621	0
1	6589	355032.159667269993	69.359360701582
1	6597	355333.823935052623	146.72120454422
1	6628	357038.796041319594	0
1	6645	357609.458487106928	193.22068063035
1	6653	357901.213932979672	267.7852979258
1	6681	358860.011185836412	274.03268084079
1	6701	359482.782528460217	12.352291005347
1	6724	360023.444106680778	254.77883498171
1	6732	360318.478841637117	514.87180551719
1	6740	360600.363413412446	783.39071500316
1	6749	360913.040950369162	982.57245402544
1	6754	361151.774067335865	1023.1609985126
1	6765	361448.42105008042	945.04834484067
1	6771	361755.808457377169	470.69785619561
1	6793	362617.817976482358	168.03143241893
1	6804	362944.567631898746	209.56801794556
1	6821	363591.383813678122	119.20614071404
1	6863	364782.667760082178	275.82759777847
1	6868	365096.117716217765	507.59239240224
1	6877	365389.372849087904	701.14225462569
1	6902	366271.324931315542	282.28262874503
1	6987	369854.442800963996	248.58834530326
1	7005	371887.118135999374	0
1	7014	372295.695206301871	0
1	7022	372636.555061429658	139.2842492361
1	7031	373177.674860771461	0
1	7048	373884.125823123783	93.497891388012
1	7056	374226.354851424455	15.620378663253
1	7065	374610.049769078065	0
1	7073	375252.534634800423	0
1	7108	377573.767116011797	0
1	7131	378150.408216322987	281.77444027521
1	7177	381771.047580553484	0
1	7185	382183.823010681649	0
1	7204	384457.476202475338	0
1	7213	385160.774645918113	0
1	7221	385662.355119976912	0
1	7238	386202.561319267515	180.60119133409
1	7255	386777.068567954156	227.42000064639
1	7273	388799.247952251121	105.52317060144
1	7281	389050.727456264503	74.212832407616
1	7306	389893.454106608771	30.626687913779
1	7318	390198.778732518474	65.084432186192
1	7362	393618.484646818046	23.893470815149
1	7373	393951.05152061818	252.84520189264
1	7387	394594.608849436231	178.89169748789
1	7401	395425.630844552613	0
1	7412	395706.620804988475	198.54950700092
1	7417	395991.048161375254	380.18735228043
1	7426	396611.155527081005	0
1	7435	396912.216096668929	124.70266041134
1	7468	398460.187750951754	0
1	7494	399936.053147138449	0
1	7505	400237.543485800386	180.48045608443
1	7536	401592.515411396237	0
1	7545	402332.062835711904	0
1	7562	402918.233649529771	58.071510811825
1	7570	403606.497317615222	0
1	7590	404222.458550381041	285.86683552669
1	7604	405158.603617270478	0
1	7613	405479.090133947958	19.285651512859
1	7638	406464.819541692106	139.3876941128
1	7655	407400.49934950554	0
1	7663	407735.333591513893	291.83184441842
1	7683	408282.634308243212	164.56842809895
1	7697	409045.222721399412	0
1	7722	409969.611200843689	0
1	7739	410874.277175950556	145.01891285412
1	7771	412522.616121338178	235.48982218088
1	7779	412809.959210650639	401.14671782155
1	7787	413129.08740212044	514.35718712352
1	7799	413473.911042332639	336.37453645921
1	7804	413780.056567504356	605.50166438989
1	7835	415050.349832191247	105.14502308454
1	7849	415968.395153963423	0
1	7882	417186.779186498164	170.63648502229
1	7897	417534.761388334928	65.600958117984
1	7916	418534.824361179392	97.25653916152
1	7933	419331.082345631953	0
1	7941	419790.073873281975	0
1	7958	420388.858841518986	226.40434722377
1	7966	420685.269245889833	185.6722377334
1	7975	421056.219514456975	0
1	8009	423203.337879496252	129.85187785102
1	8024	423486.956510267939	248.34898691877
1	8029	423766.293493281787	352.8578627347
1	8062	424982.478648800898	185.01678124723
1	8074	425293.569517118367	189.94743242372
1	8087	425835.242484234143	155.23895730282
1	8101	426711.519931011862	0
1	8138	427971.495159180773	189.90372742605
1	8143	428277.762371382234	473.73682482229
1	8168	429294.71545935406	0
1	8177	429925.650091886942	0
1	8194	430814.955782349792	242.56829472108
1	8237	433636.278603775056	0
1	8254	434241.895227142878	73.373572533107
1	8274	437237.036979573586	0
1	8282	437600.729449364106	0
1	8293	437922.439002923591	71.791027953197
1	8317	439830.034468813016	0
1	8328	440104.256425670417	196.36241238429
1	8336	440408.10591778568	435.4599684975
1	8342	440642.658886248303	460.52157238806
1	8375	442196.317098583086	0
1	8384	442493.29317205282	141.65553276832
1	8392	442757.985764216565	20.343223638392
1	8400	443005.367336691861	241.81807566942
1	8420	443965.157736018873	221.89210375756
1	8497	450090.986680098645	0
1	8505	450426.043941948177	91.053590955703
1	8515	451836.175429406218	0
1	8523	452446.647995334372	0
1	8532	452785.72439612706	0
1	8558	455094.486218638974	0
1	8567	455401.142051256498	130.20431936727
1	8575	455761.925246424636	60.245475920051
1	8609	457230.416204444433	0
1	8618	458211.272635933165	0
1	8635	459169.068762891932	0
1	8644	459453.497654640571	103.30459862808
1	8660	460139.792423805107	294.61372289154
1	8672	460420.563773355273	244.543279489
1	8685	461076.105616341596	149.69786518036
1	8711	462639.770544064853	0
1	8731	463283.626127275864	166.58568991679
1	8756	464252.765576724939	70.184749157275
1	8779	465686.571935100343	0
1	8796	466921.664993989815	231.02814724971
1	8813	467663.937557196365	55.882206047237
1	8830	468776.924685824488	0
1	8848	469992.160568692764	100.29576728284
1	8856	470365.930084958568	0
1	8873	471100.249403630754	130.46545400076
1	8890	472084.011567853628	133.7374365906
1	8899	472365.63754831142	180.13630047014
1	8907	472829.769654445856	0
1	8945	475013.528639711475	38.017435400507
1	8959	475765.946275830033	0
1	8967	476309.860990337995	0
1	8982	476616.627544667701	153.58829382059
1	8998	477219.770726810199	224.57916620083
1	9026	479132.039620804564	0
1	9035	479852.883950269185	0
1	9077	481447.041572638791	0
1	9086	482308.4046071595	0
1	9095	482597.607875190813	89.573958207539
1	9103	482889.841278157423	11.588296877488
1	9111	483251.187498352688	46.893524238506
1	9126	483545.044827618193	227.58520754177
1	9145	484603.061076478168	0
1	9166	486597.897625106703	100.74991395744
1	9197	487499.391684416412	288.76115645488
1	9231	489590.862964196499	0
1	9248	490943.878643754681	0
1	9266	492176.864192047425	0
1	9274	492454.30867506859	277.2713113051
1	9282	492831.285650351695	0
1	9300	493802.123463490283	0
1	9308	494068.005157851093	201.00609332383
1	9316	494383.819641341819	52.880396669173
1	9328	494693.863464574631	15.133626366237
1	9350	496171.701857739101	25.162999269229
1	9375	497067.181452635553	220.24845159295
1	9408	498997.601603550517	173.26541767371
1	9427	500273.49397467356	0
1	9439	500623.677600751354	96.303376305184
1	9461	501986.542092007308	163.63054077729
1	9473	502329.699809012646	340.99073557588
1	9481	502662.539650199888	361.68260517285
1	9489	502935.270112077265	485.01445243712
1	9498	503256.951290040683	414.4076985163
1	9511	503838.70593941268	210.00620193136
1	9532	504969.87112245186	35.609815904442
1	9546	505862.52721657429	0
1	9599	507649.571016300384	154.91178367119
1	9604	507911.01046514582	370.3158610753
1	9615	508208.777113378027	288.84870235855
1	9637	509139.553041624513	218.85362258325
1	9646	509458.385010993912	223.92036490037
1	9663	510739.051588730815	0
1	9672	511045.233143611222	112.25866137733
1	9698	511922.979934040469	210.59976466633
1	9703	512255.254474779175	470.71053431024
1	9720	512835.001467035199	265.6162981519
1	9728	513129.517065272892	108.95021757597
1	9742	513773.932362846461	256.45848296078
1	9772	514921.16943261787	0
1	9784	515258.619148797497	297.82299777509
1	9803	515913.001145212382	90.988142912721
1	9822	516747.189672993577	35.064729293906
1	9882	520063.704237885685	154.75092042994
1	9900	521333.426799754911	0
1	9909	522297.016654349548	0
1	9917	522607.376092557365	169.10890221718
1	9926	522975.962961113995	140.75298886804
1	9934	523719.723983053171	0
1	9951	524531.469242388441	0
1	9960	524832.97881971232	21.876760732859
1	9968	525121.420009073485	54.922347774488
1	9976	525428.251815929944	68.883869546029
1	10019	527285.974252225152	0
1	10080	531831.94858425835	10.610001829334
1	10089	533147.580273082662	0
1	10099	534513.708171369149	0
1	10117	536482.988388943077	227.25537113249
1	10126	536982.364791401835	0
1	10137	537267.017089875631	123.55273153
1	10151	538161.91031228062	0
1	10171	538909.246417497153	207.32575808785
1	10177	539264.981194753827	553.24989505719
1	10203	541166.330519930881	0
1	10223	541764.895189461357	259.61991064339
1	10236	542377.963169603608	170.39158055525
1	10253	543043.075440230551	292.14289951855
1	10270	544217.498090468265	162.20514654691
1	10279	544741.910227245287	0
1	10296	545556.137722193465	0
1	10307	545833.160288205815	197.49249773552
1	10316	546187.837711084126	483.5543965828
1	10332	546787.950632216603	259.38756752272
1	10355	547736.526632649957	0
1	10363	547995.057959416	24.763083897439
1	10371	548375.24967932071	0
1	10383	548656.949402138239	26.724192688848
1	10441	550926.092479880035	268.6803280757
1	10447	551172.244209701322	330.5619578876
1	10490	554391.712615734023	0
1	10516	555860.971678069979	0
1	10526	557197.172045111237	0
1	10542	557999.676978142377	98.804276510875
1	10551	558700.126054652617	0
1	10560	559107.106050671945	0
1	10593	561779.177074082078	234.2948684745
1	10601	562115.696938933829	527.60819887033
1	10610	562419.692922573898	77.585964551632
1	10626	563079.785798973074	172.75371268326
1	10640	563620.1192222539	267.9259431971
1	10655	565539.159429379667	0
1	10664	565822.816132119633	2.66020017234
1	10703	567043.787753300578	191.34101060862
1	10708	567348.330441776817	456.0495215978
1	10714	567662.930178598281	658.07157730359
1	10728	568016.798895991678	226.61307369111
1	10747	568903.24450340583	70.270239155853
1	10774	570927.117642093983	0
1	10793	571546.314808669664	110.6539681279
1	10813	572172.174368082715	279.23694578415
1	10832	573085.772995688807	116.32757583354
1	10843	573359.469884283551	77.137521575865
1	10857	574012.438831617038	0
1	10875	575175.976301055406	0
1	10926	578368.587853425588	0
1	10935	578704.17489328731	0
1	10953	581069.85828495483	0
1	10962	581385.273073727747	123.17511583387
1	10979	582379.612986966431	40.73017270042
1	11025	587268.537734485429	0
1	11034	588580.492401361216	0
1	11043	589312.553724174107	0
1	11065	591442.563854637651	242.64246044539
1	11070	591729.288688996594	371.40219233981
1	11096	593353.754207958949	0
1	11104	593635.110141916744	262.69036256551
1	11112	593971.300293502151	0
1	11121	594709.332495514491	0
1	11138	595613.592869796465	211.13008400606
1	11155	596414.686614590007	0
1	11165	597510.980308241843	0
1	11179	597774.557125761834	94.828723645784
1	11190	598141.893752461711	159.01927324554
1	11241	600896.987448262569	0
1	11252	601248.608579667171	301.26886259529
1	11263	601520.956045554223	493.51467532624
1	11269	601772.083301883905	317.68137927291
1	11280	602008.182984614208	51.675081642234
1	11302	602899.661846828597	259.75969753521
1	11328	605154.621190801963	247.84215414828
1	11343	605503.111534694665	256.78086795124
1	11360	606080.927814527807	102.08872721193
1	11392	607608.068321748589	215.14419529834
1	11401	607887.127318899006	253.58105815672
1	11409	608289.919903731517	0
1	11418	608762.716354323165	0
1	11434	609381.185507847296	255.16072503226
1	11451	610077.072471088942	0
1	11463	610407.937001682154	322.62725863185
1	11477	611314.466295173117	0
1	11493	611916.832212512011	275.89364320279
1	11505	612169.817975351981	207.59881288375
1	11513	612452.004422257091	389.0405841256
1	11524	612708.02665261852	189.6453494362
1	11544	613321.518397293306	229.2598917329
1	11558	613977.284936390072	102.80255736182
1	11597	615471.1102728291	239.06194960239
1	11605	615742.822571734735	46.595632884893
1	11628	616359.268488867991	201.29159029749
1	11636	616686.062748975914	478.51585635529
1	11647	616944.928268049521	605.75634545
1	11656	617250.410826335859	31.170353091145
1	11686	618426.746616591981	114.62068469812
1	11694	618696.366988270741	189.93350410594
1	11708	619312.915680349032	191.58782746342
1	11716	619541.025180084323	182.32939661745
1	11733	620121.424126874639	241.38433406778
1	11747	620396.229732005067	184.11233489886
1	11762	620663.964959165437	114.88803922735
1	11770	620921.811161337564	335.05738255294
1	11781	621214.087368258256	477.09868587489
1	11825	622972.647201852059	14.22641737085
1	11842	623632.857528840352	257.85601946943
1	11901	625816.37741320098	111.18223228607
1	11906	626133.146492554246	395.38124919852
1	11928	627036.371132355158	130.81993428621
1	11936	627367.508664469547	118.31054267223
1	11987	630774.28732592079	0
1	12013	632030.417263376621	0
1	12032	634600.538187695398	153.9213398859
1	12040	635011.09564210393	0
1	12057	635810.54253543824	0
1	12067	637422.558466305896	0
1	12084	638053.100126949695	41.618332139368
1	12092	638392.206637411187	237.85741327448
1	12101	638859.720309360036	0
1	12112	639194.256482761355	163.20453981704
1	12121	639533.295727202431	187.33960181083
1	12152	641583.17286504136	0
1	12203	644352.754778030163	272.1462850706
1	12212	644658.469650529797	225.99584554561
1	12223	644964.907709918301	292.99983344379
1	12231	645246.079737899437	303.18377308618
1	12240	645591.519474736231	398.7926525973
1	12255	647651.479701606076	0
1	12266	647943.358349361084	265.55161457358
1	12275	648322.789095240667	407.45200736261
1	12349	652897.40370271241	0
1	12358	653453.65572205107	0
1	12366	653984.83592174281	0
1	12375	654265.555049133794	48.845487088019
1	12385	655788.939663290163	0
1	12393	656070.456803123773	277.73637338958
1	12410	657370.485262516779	0
1	12430	658034.560138480016	167.34389052733
1	12442	658337.910920940363	114.89550783042
1	12469	659574.575747657176	268.33234951221
1	12480	659886.201262548105	199.02335141621
1	12489	660192.064167455937	155.77485056599
1	12508	660757.520041562671	296.98472618167
1	12514	661070.173788630671	496.06030844388
1	12525	661337.02659854319	710.67520956005
1	12536	661638.880678067947	547.0618446081
1	12548	661879.976880802984	723.56332966387
1	12556	662185.898313441185	621.68575170737
1	12561	662497.846131594002	684.13149361754
1	12583	663421.187636845082	121.16638112874
1	12600	663968.739471946728	43.4942895385
1	12637	665185.991737787488	283.70133977828
1	12642	665418.332950444154	476.46612494496
1	12678	666663.218661266396	19.573744160254
1	12693	666933.910654269046	67.932325156096
1	12698	667199.273105173983	297.07762928555
1	12728	668406.320969170575	47.283390580376
1	12740	668739.739627476175	62.478358044462
1	12748	669001.646060854814	111.60817170185
1	12759	669325.970387218181	295.15046450686
1	12778	670186.616675741641	100.12200960063
1	12792	670781.875257197935	107.34062987582
1	12815	671366.218682621584	256.5385367116
1	12823	671666.959516438744	113.37137916924
1	12845	672637.471360598625	281.21699568486
1	12857	672968.35768723303	80.500555408584
1	12871	673287.176502436116	63.316744754713
1	12901	674433.56081245648	91.440141828797
1	12910	674762.04413300271	16.782454242133
1	12932	675796.727817323598	239.69094862791
1	12943	676033.163072211722	436.157750423
1	12952	676319.425881559436	222.36364527142
1	12974	677238.824236349262	224.92392403672
1	13005	678099.751549963123	245.41173410544
1	13010	678387.236089073342	395.1341798437
1	13054	680078.276865932127	220.76551656025
1	13093	681500.277922428316	7.549711161317
1	13115	682424.362930682606	293.10290942073
1	13129	683628.310166426657	0
1	13146	684651.853191564893	0
1	13158	684902.248910464356	112.75210834287
1	13171	685682.86662769273	0
1	13180	686081.211433666522	0
1	13197	687009.605334769271	161.39125780345
1	13214	687917.764813075626	312.67737695834
1	13234	689089.12807838231	14.659803506294
1	13292	693299.030988247119	0
1	13301	693573.777583926036	0
1	13309	693993.378605803596	0
1	13318	694614.605918038018	0
1	13329	694916.270447046503	266.04901128675
1	13335	695213.909626585189	560.51758344068
1	13343	695778.336408214744	0
1	13352	696632.576836213607	0
1	13369	697197.748679212702	3.911341583231
1	13397	698335.106439502315	276.69573953817
1	13425	699170.474240559626	99.572391254783
1	13444	700231.095743154792	0
1	13453	700544.763746853389	0
1	13472	701134.187895261787	89.855811901781
1	13495	702665.384840845951	272.55693821074
1	13504	703066.974811794777	0
1	13529	704027.73986577542	19.218768592934
1	13558	705550.968633450958	262.16428321099
1	13563	705875.515800469647	369.30787905736
1	13589	707389.725655218861	0
1	13597	707681.488152630859	179.05163276775
1	13606	708376.130138797572	0
1	13623	709004.770388933612	180.30293580188
1	13634	709331.644034863812	207.58206018674
1	13648	709587.018412547044	330.46206915243
1	13654	709891.052252946992	477.53160255072
1	13662	710203.75301877476	239.13169763029
1	13690	711490.954631630753	214.7794023451
1	13698	711779.006566668129	98.936448491527
1	13709	712057.703733619267	34.399657105466
1	13721	712367.587169499246	150.30674009578
1	13749	713370.673114431968	166.5005674442
1	13757	713718.10814071576	490.21241018069
1	13769	714070.901741328271	315.6252560676
1	13791	715045.191217291086	154.27659616145
1	13857	718037.328666896427	0
1	13882	718943.177976404193	167.77768867041
1	13891	719232.32138153041	267.89113596752
1	13899	719477.715276554341	217.57097396284
1	13917	721225.813423061887	0
1	13925	721697.561283265815	0
1	13934	721995.685719467864	153.27180872087
1	13977	724491.756952478457	0
1	13993	725086.791611877692	238.06469299326
1	14002	725633.818535488473	0
1	14022	726183.047530273447	15.990792826882
1	14072	730824.739134081169	0
1	14081	731560.163338734814	0
1	14091	732988.174095034244	0
1	14099	733380.834455467419	0
1	14120	735089.490979751613	234.69956469583
1	14134	735970.622801699	0
1	14143	736625.512020612644	0
1	14172	737325.535127988666	349.74346231551
1	14180	737657.199906134895	526.36264689661
1	14185	737942.420982289274	758.60195388823
1	14191	738179.585989225205	893.63705986653
1	14196	738471.880604813725	869.14484389027
1	14218	739604.024940765472	0
1	14244	741147.097943161957	0
1	14255	741432.617104340629	106.88652057504
1	14312	744634.629056693527	0
1	14339	747213.787580986947	0
1	14348	747507.920759434272	144.01804436436
1	14356	748236.980436344764	0
1	14371	748527.585172576007	268.66848948091
1	14385	748827.786621221199	504.63685137398
1	14393	749124.473219350747	747.49619471462
1	14402	749410.5839316826	876.67293236892
1	14407	749723.183561802639	1059.2099303912
1	14413	750026.829017613365	1090.034820849
1	14418	750300.277998119847	1069.3718810774
1	14449	751768.160646012742	0
1	14477	752814.120112651747	34.942400184944
1	14491	753138.386636776776	156.40232297932
1	14519	754046.460140094872	133.93658695032
1	14538	754910.341131093134	141.92751291788
1	14547	755226.081880408114	288.16691048931
1	14583	757242.73811831769	0
1	14600	757836.910545530384	123.03391971142
1	14625	758975.335191439234	20.115361686947
1	14633	759259.515082540503	42.160652275251
1	14650	759907.584561723195	38.082818504418
1	14679	761553.949426234913	176.30698781938
1	14684	761868.304208976852	383.87474695876
1	14693	762722.025639157395	0
1	14708	763068.505195760937	10.249097781506
1	14753	766178.371107092279	245.76373598478
1	14779	768013.135921054569	0
1	14788	768373.062959245665	0
1	14806	770481.291247355892	0
1	14815	770804.935896942026	210.1961225518
1	14823	771092.56951297952	284.33978410519
1	14840	772247.194917373289	0
1	14857	773114.262357705223	0
1	14866	773993.723086690874	0
1	14883	774617.778110261287	243.06992977574
1	14908	775565.489928425635	203.141674729
1	14934	777086.960746652255	283.58551086156
1	14942	777373.042737987036	281.38558597175
1	14954	777672.366532922275	217.41594006048
1	14962	777978.038072094335	152.21139686487
1	14971	778325.221928758966	107.16331903481
1	14993	778948.314112346331	242.00980210354
1	14999	779210.196558358427	423.41509636111
1	15007	779551.387423865527	317.90075831431
1	15015	779845.028407036794	218.42609709452
1	15054	781485.671758248804	182.0519187092
1	15085	782866.698298642963	0
1	15108	783481.207087247779	176.85004525313
1	15135	784644.707954403739	102.52061499098
1	15143	784954.446659294815	177.98111894162
1	15161	786129.441753553672	0
1	15196	788647.602368669696	0
1	15212	789254.33929691567	189.95073605904
1	15221	789631.54100721234	0
1	15229	790148.853265171315	0
1	15246	790820.253934304712	103.78026997132
1	15254	791131.850720480378	92.440187156375
1	15263	791831.195949682258	0
1	15289	792834.419196653412	283.45446033834
1	15301	793137.898698850267	414.91235950588
1	15309	793414.229416941426	657.7024418352
1	15321	793766.423838550283	1001.3520064208
1	15329	794135.372253345578	1160.8544117326
1	15334	794402.51815022021	1286.5457173577
1	15340	794687.903363000846	971.91825156206
1	15451	801548.954722509828	0
1	15459	801836.23884544354	146.81041845807
1	15468	803044.557997385969	0
1	15477	803342.00689450614	132.05629096965
1	15486	804135.386422409954	0
1	15520	806435.878056523475	121.73665833796
1	15529	807097.476717826643	0
1	15546	808258.583784922741	0
1	15563	808866.423533689663	54.554282707165
1	15572	809407.030782340882	0
1	15580	809732.199378332771	0
1	15592	810026.678091085829	272.8558004147
1	15600	810373.785705741788	413.56432374598
1	15605	810622.03799993816	504.91772556972
1	15639	812172.649147144745	0
1	15647	812501.630073726369	22.445021421288
1	15706	815124.89641381835	207.83310846639
1	15724	816265.762606317401	0
1	15741	816884.470148679293	0
1	15760	819922.278300353661	0
1	15785	820994.178537544247	215.58646041331
1	15794	821241.224931510535	180.72267182383
1	15802	821807.972000819505	0
1	15811	822114.470471812907	29.779159361532
1	15819	822623.431515424982	0
1	15828	822910.52580411472	182.73539557658
1	15845	824559.958038574261	0
1	15896	826515.178534390064	0
1	15904	826817.714771624428	149.84507098578
1	15924	827853.771340324316	303.15391500303
1	15933	828153.055357470336	451.93609505766
1	15941	828470.11918775024	313.21796564923
1	15999	833126.336917878225	127.59440654055
1	16010	835352.852622498199	0
1	16038	838858.024676816728	164.24256955125
1	16047	839432.145762601244	0
1	16056	840056.781277180831	0
1	16075	843012.950528477796	0
1	16092	844151.723316317591	0
1	16112	847597.8579711403	0
1	16137	848463.943641140256	0
1	16146	848994.277662412977	0
1	16155	849532.052796117041	0
1	16163	850130.105873145905	0
1	16182	852458.612343588773	0
1	16193	852767.601442389468	8.233420050475
1	16208	853128.903909881269	262.02177892787
1	16241	855264.888454228496	0
1	16267	856671.070613916002	0
1	16275	856942.005659592956	168.28573643126
1	16292	857705.759243110136	244.747759048
1	16301	858162.639298967461	0
1	16309	858558.09806051148	0
1	16317	858859.477323021878	0
1	16350	861024.893935208222	92.066274723911
1	16358	861363.304153624434	64.001106479725
1	16380	862182.6163789818	35.559992821176
1	16389	862426.511098414665	227.07210004124
1	16408	862989.531833545966	257.85688136123
1	16417	863272.378829941564	269.39035718522
1	16425	863601.949080336464	163.70276413567
1	16433	863898.772570745075	195.04042299145
1	16515	867844.449597924114	171.89102549693
1	16523	868166.313377710296	69.521642320175
1	16537	868780.700775881315	50.432503080688
1	16547	870361.234680997146	0
1	16558	870652.294679102315	32.821294300982
1	16564	870947.258640878775	306.61361960611
1	16575	871282.517092852244	200.01758991244
1	16583	871612.03804338557	483.70269954556
1	16592	871910.677405811516	343.28930866478
1	16603	872250.804421378868	229.71551838852
1	16631	873550.823907455507	0
1	16639	874290.017573703214	0
1	16696	876436.577507064912	142.72764614861
1	16704	876712.031977953944	3.132959040485
1	16718	877347.861210308442	180.8439354519
1	16732	877683.38014739879	166.31849172914
1	16738	877996.175083859864	378.93176438055
1	16746	878307.459668803173	167.06118773935
1	16760	878584.231783463559	72.781863482153
1	16766	878900.898768707002	337.97403794805
1	16780	879505.599257655266	308.33363167525
1	16807	880629.491987122942	232.98789066494
1	16818	880952.906839930633	59.499170299026
1	16830	881254.258696805619	90.603650831426
1	16865	882764.71902647692	0
1	16908	884714.954018605621	0
1	16922	885020.532937687848	193.18283381242
1	16933	885283.554364489999	214.51821388445
1	16958	886604.436970570849	0
1	16969	886888.763703456265	264.38959031273
1	16981	887194.925576209149	197.71151734663
1	16986	887501.990405782748	459.38419304462
1	16994	887799.960394739182	28.236712552739
1	17008	888649.851722550562	0
1	17020	888946.774525649515	88.454258340045
1	17034	889209.225746681566	60.447932508096
1	17042	889481.525797360068	251.51071969587
1	17067	890355.974957987849	154.94833187359
1	17073	890636.664328373043	389.57584118072
1	17129	892471.483284633599	154.56149090813
1	17148	893323.516642145817	14.361875751993
1	17156	893620.817856624125	18.227245462709
1	17201	895904.128911132312	0
1	17218	897185.23036423264	72.805691165337
1	17244	898734.105126506584	0
1	17253	899403.88083960997	0
1	17270	900818.391325846962	0
1	17287	901490.509646162548	170.99219067023
1	17296	902171.844357634925	0
1	17304	902485.726884984276	220.7729083789
1	17330	904202.683622548812	0
1	17347	904835.337112246661	203.50832667776
1	17365	906317.590269548221	152.0527776251
1	17379	906643.73361950691	218.23171620375
1	17388	907005.789690025251	257.55750362486
1	17396	907349.321913281706	193.25331649291
1	17404	907676.673822590669	95.775382301667
1	17413	907935.604355722537	108.04624635627
1	17438	908886.700301902817	54.895509612157
1	17466	910312.922737280127	182.2885522534
1	17485	910945.691382621031	189.68364830619
1	17524	912606.586805387633	0
1	17541	913729.64823349038	0
1	17550	914061.116976318473	310.37474220594
1	17567	914870.20578629954	0
1	17593	917080.645313948047	0
1	17602	917746.093030213644	0
1	17622	918313.241921224526	101.0228986342
1	17644	919227.582200490942	23.87652645845
1	17652	919524.732782637455	255.95493414956
1	17661	919869.908506581841	0
1	17696	922628.929561634795	0
1	17733	924350.514144072127	137.71724451541
1	17738	924644.834307808303	397.52261417396
1	17756	926560.040215874223	256.78117257181
1	17765	926909.728380596634	157.4238311781
1	17792	929489.995654047931	275.25446482538
1	17800	929736.193084574797	116.52988403681
1	17826	931712.699273962714	0
1	17835	931988.389296862445	230.68943090721
1	17852	932810.796784794964	302.07476271784
1	17869	934017.365440817083	0
1	17881	934316.954949972271	281.55173329283
[...]
7	14207	739107.575530922754	7
7	14222	739885.628712247971	8
7	14224	740128.228586023376	7
7	14229	740182.295034351227	6
7	14249	741404.424266394563	5
7	14253	741432.617104340629	6
7	14258	741502.107789655768	5
7	14261	741690.977487532301	4
7	14265	741734.530107697492	5
7	14274	742169.179519435306	4
7	14283	742564.168157714589	3
7	14300	743664.809759322293	2
7	14314	744851.477792141199	1
7	14319	744937.001074197245	2
7	14326	745239.568296624124	1
7	14346	747507.920759434272	2
7	14351	747815.872585829942	3
7	14369	748527.585172576007	4
7	14379	748817.111005707737	3
7	14383	748827.786621221199	4
7	14391	749124.473219350747	5
7	14400	749410.5839316826	6
7	14405	749723.183561802639	7
7	14411	750026.829017613365	8
7	14416	750300.277998119847	9
7	14420	750499.731810757457	8
7	14424	750569.501632088753	9
7	14437	751374.934239793334	8
7	14451	752003.248527585187	7
7	14455	752052.44510813227	8
7	14462	752555.791444385458	7
7	14468	752762.264880971425	6
7	14479	752859.110801173362	5
7	14485	753076.178419713777	4
7	14489	753138.386636776776	5
7	14495	753454.988491178719	6
7	14499	753630.763390043825	5
7	14510	753926.764462286973	4
7	14513	753937.167829055003	3
7	14522	754285.825155282909	4
7	14545	755226.081880408114	5
7	14549	755325.942844160226	4
7	14553	755582.307332154221	5
7	14571	756638.424817427299	4
7	14586	757553.898457932562	5
7	14588	757559.123025525501	4
7	14602	757884.414556614841	3
7	14606	758226.563262835655	4
7	14614	758684.716471522181	3
7	14631	759259.515082540503	4
7	14636	759492.145279701683	3
7	14640	759545.970581573816	4
7	14653	760219.860803429297	5
7	14656	760662.403740589419	4
7	14665	761251.520198476729	3
7	14682	761868.304208976852	4
7	14688	762138.893499920159	5
7	14695	762764.87642130597	4
7	14699	762902.522608395395	3
7	14706	763068.505195760937	4
7	14710	763372.328728524146	3
7	14714	763414.127901405321	4
7	14733	765182.777119956398	3
7	14742	765852.826517483411	2
7	14757	766440.808639171212	3
7	14759	766778.312837739728	2
7	14764	767055.782747235981	1
7	14783	768296.75945450983	2
7	14791	768645.105283615997	3
7	14795	769889.359797202525	2
7	14813	770804.935896942026	3
7	14821	771092.56951297952	4
7	14826	771348.364892936362	5
7	14829	771844.315489844774	4
7	14843	772461.334151304977	3
7	14847	772511.413971804748	4
7	14861	773380.067408764787	5
7	14869	774079.015631321226	4
7	14873	774307.964816634472	5
7	14885	774620.640235162257	4
7	14889	774870.445544790801	5
7	14897	775300.817906990299	4
7	14912	775834.030725562975	5
7	14914	776458.182563523686	4
7	14920	776654.419990684605	3
7	14940	777373.042737987036	4
7	14948	777656.568775484417	3
7	14952	777672.366532922275	4
7	14960	777978.038072094335	5
7	14969	778325.221928758966	6
7	14973	778446.66655445429	5
7	14977	778633.359686467435	6
7	14987	778809.722471535059	5
7	14997	779210.196558358427	6
7	15005	779551.387423865527	7
7	15013	779845.028407036794	8
7	15019	780160.178589730563	9
7	15032	780926.067699537325	8
7	15037	780983.942286132144	7
7	15048	781387.209942868629	6
7	15058	781756.06830625282	7
7	15065	782192.271568717657	6
7	15070	782252.559709020135	5
7	15087	783010.61938204401	4
7	15091	783222.656111492989	5
7	15098	783344.142316321026	4
7	15101	783405.606270283962	3
7	15111	783742.953103469007	4
7	15115	783835.950122079154	3
7	15141	784954.446659294815	4
7	15145	785063.661378140369	3
7	15150	785312.873132832413	4
7	15164	786421.011442874686	5
7	15167	787027.773996452191	4
7	15176	787730.5046216354	3
7	15184	788075.151680127876	2
7	15198	788789.376284876808	1
7	15202	788929.205855394339	2
7	15216	789584.924489378954	3
7	15224	789925.664548350392	4
7	15231	790272.986139073227	3
7	15236	790499.642201561122	4
7	15252	791131.850720480378	5
7	15258	791421.391926479456	6
7	15267	792221.89081294998	7
7	15269	792526.918847032442	6
7	15299	793137.898698850267	7
7	15303	793394.483152480791	6
7	15307	793414.229416941426	7
7	15311	793691.385174319413	6
7	15319	793766.423838550283	7
7	15323	793852.124702438334	6
7	15327	794135.372253345578	7
7	15332	794402.51815022021	8
7	15338	794687.903363000846	9
7	15343	794979.542781544262	10
7	15347	795166.676406704386	9
7	15355	795371.070504089859	8
7	15375	796351.336342203818	7
7	15378	796364.693822783319	6
7	15386	796613.201261774964	5
7	15403	797431.034705699646	4
7	15408	797517.547730993213	3
7	15416	797823.390261559023	2
7	15425	798176.388038234756	1
7	15436	798736.268288181322	0
7	15457	801836.23884544354	1
7	15462	802096.98820947122	2
7	15475	803342.00689450614	3
7	15480	803675.118091634703	4
7	15489	804470.474531645218	5
7	15492	805618.256622810542	4
7	15498	805820.023428566389	3
7	15506	806135.146489134717	2
7	15524	806757.231358666453	3
7	15531	807356.929772308584	2
7	15535	807388.035406813087	3
7	15549	808462.572196011493	2
7	15553	808538.706350218146	3
7	15567	809199.828917346726	4
7	15575	809681.874076067458	5
7	15590	810026.678091085829	6
7	15598	810373.785705741788	7
7	15603	810622.03799993816	8
7	15607	810686.279414140639	7
7	15612	810958.649630497447	8
7	15616	811098.346231761294	7
7	15628	811883.038015499515	6
7	15645	812501.630073726369	7
7	15651	812792.489787896126	8
7	15653	813048.934899435757	7
7	15662	813613.751360800729	6
7	15667	813691.800170259426	5
7	15670	813887.103451930705	4
7	15683	814236.647779321914	3
7	15692	814737.272238263407	2
7	15710	815400.37115779434	3
7	15712	815599.059019154541	2
7	15726	816326.986536495412	1
7	15730	816560.575510507534	2
7	15744	817252.699264128012	3
7	15748	818815.501448783575	2
7	15763	820235.457502565299	3
7	15766	820399.742835520146	2
7	15771	820558.950544478258	1
7	15792	821241.224931510535	2
7	15797	821511.461235252767	3
7	15809	822114.470471812907	4
7	15814	822364.513470401569	5
7	15826	822910.52580411472	6
7	15831	823188.721648037269	7
7	15834	824188.526765918038	6
7	15849	824793.88966140082	7
7	15851	824855.856604286298	6
7	15856	824875.706823076899	5
7	15868	825457.418322014449	4
7	15873	825728.232473301237	3
7	15884	826173.470289394884	2
7	15902	826817.714771624428	3
7	15907	827056.405425910235	4
7	15910	827497.177356171675	3
7	15926	827972.299208967956	2
7	15931	828153.055357470336	3
7	15939	828470.11918775024	4
7	15944	828776.137265509436	5
7	15953	829994.031288491579	4
7	15962	830718.303067533618	3
7	15971	832191.78732732593	2
7	15976	832276.101029596025	1
7	15980	832435.495554857396	0
7	16003	833395.454431440706	1
7	16013	835662.191166342854	2
7	16018	837785.952030697779	1
7	16027	838520.45638857154	0
7	16042	839186.939107166739	1
7	16050	839739.591622076614	2
7	16059	840282.203616688761	3
7	16064	842618.828316704067	2
7	16077	843305.368100497323	1
7	16081	843336.486350237952	2
7	16095	844304.020214665245	1
7	16099	844428.979875805025	2
7	16114	847636.148446318051	1
7	16119	847841.659664858505	2
7	16123	847934.215740627147	1
7	16141	848794.535794352392	2
7	16149	849302.795742935896	3
7	16158	849860.607845836539	4
7	16167	850450.435097440171	5
7	16169	850746.672884723635	4
7	16184	852611.827194481447	3
7	16191	852767.601442389468	4
7	16199	853079.59408791898	3
7	16202	853124.164657904092	2
7	16206	853128.903909881269	3
7	16211	853405.371898312512	4
7	16229	854372.454890545949	3
7	16245	855514.663660327606	4
7	16247	855549.733509311601	3
7	16255	856278.70634556526	2
7	16273	856942.005659592956	3
7	16279	857218.720129010988	4
7	16281	857440.100640311533	3
7	16295	857984.7886653475	4
7	16304	858457.567224853251	5
7	16312	858803.984592947698	6
7	16321	859171.401812826503	7
7	16323	859670.13090138646	6
7	16333	860693.922597208759	5
7	16338	860860.390174431521	4
7	16344	860961.047887874235	3
7	16356	861363.304153624434	4
7	16361	861528.119850264183	3
7	16365	861638.169165266277	4
7	16387	862426.511098414665	5
7	16391	862585.091981152918	4
7	16394	862683.574741932415	3
7	16398	862689.960027440317	4
7	16415	863272.378829941564	5
7	16423	863601.949080336464	6
7	16431	863898.772570745075	7
7	16437	864184.220187422499	8
7	16450	865242.092697246601	7
7	16455	865272.924236879975	6
7	16458	865324.315095378183	5
7	16475	866418.859430798988	4
7	16484	866776.383650393425	3
7	16489	866888.426176447642	2
7	16501	867610.939934153985	1
7	16506	867616.229786114285	0
7	16521	868166.313377710296	1
7	16527	868459.402232183395	2
7	16540	869073.446575811297	3
7	16556	870652.294679102315	4
7	16562	870947.258640878775	5
7	16573	871282.517092852244	6
7	16581	871612.03804338557	7
7	16586	871837.611910481748	6
7	16590	871910.677405811516	7
7	16597	872152.374924788311	6
7	16601	872250.804421378868	7
7	16606	872568.611060869285	8
7	16611	872592.567403046768	7
7	16634	873813.153041069768	8
7	16642	874533.423638446076	7
7	16646	874578.117411364148	8
7	16654	875208.650610569298	7
7	16659	875246.694805304518	6
7	16662	875276.649698585297	5
7	16670	875759.216984847516	4
7	16678	875826.016214798458	3
7	16682	876073.071955734298	2
7	16702	876712.031977953944	3
7	16708	876984.596363336678	4
7	16720	877361.216192487153	3
7	16730	877683.38014739879	4
7	16736	877996.175083859864	5
7	16744	878307.459668803173	6
7	16748	878335.550898574752	5
7	16758	878584.231783463559	6
7	16764	878900.898768707002	7
7	16769	879167.175891382172	8
7	16783	879790.652759591731	9
7	16792	880223.251226240273	8
7	16809	880796.54557588541	7
7	16816	880952.906839930633	8
7	16820	881117.896269549807	7
7	16828	881254.258696805619	8
7	16833	881508.813407855562	9
7	16843	882042.306233073014	8
7	16846	882073.806867556218	7
7	16867	882818.766797604085	6
7	16871	882886.063143223554	5
7	16874	883043.006161132483	4
7	16878	883054.663796094086	5
7	16887	883564.990750803994	4
7	16913	885003.801400707884	3
7	16916	885009.398683622028	2
7	16920	885020.532937687848	3
7	16924	885042.923755802058	2
7	16931	885283.554364489999	3
7	16937	885625.568423537567	4
7	16963	886686.204638233549	3
7	16967	886888.763703456265	4
7	16979	887194.925576209149	5
7	16984	887501.990405782748	6
7	16992	887799.960394739182	7
7	16998	888090.774925276286	8
7	17010	888663.235022716444	7
7	17018	888946.774525649515	8
7	17022	888963.141908378365	7
7	17025	889018.906025280302	6
7	17032	889209.225746681566	7
7	17040	889481.525797360068	8
7	17046	889810.284930594803	9
7	17061	890340.066899392756	8
7	17071	890636.664328373043	9
7	17075	890794.128787949618	8
7	17079	890929.804228799519	9
7	17083	891121.7771716697	8
7	17097	891586.504727993883	7
7	17105	892085.57044435132	6
7	17113	892254.724421769884	5
7	17120	892356.241181773361	4
7	17123	892365.440437022785	3
7	17132	892725.956371718156	4
7	17154	893620.817856624125	5
7	17158	893758.496832685066	4
7	17162	893891.335796851274	5
7	17172	894339.579677672201	4
7	17186	894888.171343466637	3
7	17204	896154.692221832592	4
7	17207	896905.537865981449	3
7	17220	897347.615299469551	2
7	17225	897495.357821259443	3
7	17232	898083.863416891018	2
7	17247	898997.611496484812	3
7	17255	899438.618433339782	2
7	17259	899631.942234769567	3
7	17273	900986.349472991881	2
7	17277	901144.422873881884	3
7	17291	901802.245089804569	4
7	17302	902485.726884984276	5
7	17307	902652.1473597079	4
7	17310	902657.926953150893	3
7	17314	902779.30822046897	4
7	17334	904478.780398032659	5
7	17336	904582.805043420349	4
7	17350	905134.438018435915	5
7	17353	906011.500197007211	4
7	17367	906327.51220356658	3
7	17373	906627.995510864543	2
7	17377	906643.73361950691	3
7	17386	907005.789690025251	4
7	17394	907349.321913281706	5
7	17402	907676.673822590669	6
7	17411	907935.604355722537	7
7	17415	908272.426277639545	6
7	17419	908284.828051542868	7
7	17423	908471.217916015075	6
7	17441	909161.156784602462	7
7	17454	910018.611936920503	6
7	17468	910335.686730043622	5
7	17472	910675.915657983565	6
7	17479	910930.601080186296	5
7	17489	911239.73485928401	6
7	17493	911442.064113630927	5
7	17496	911537.079650562758	4
7	17504	911719.780239075867	3
7	17528	912930.242792193606	4
7	17530	912985.973650730576	3
7	17548	914061.116976318473	4
7	17553	914311.794997102494	5
7	17555	914339.845836814421	4
7	17570	915148.590500430792	5
7	17572	915340.631092018131	4
7	17582	916789.168016919629	3
7	17597	917409.659676812952	4
7	17604	917912.661356983988	3
7	17607	917927.782701224389	2
7	17611	918001.397722480655	3
7	17624	918513.275020713609	2
7	17628	918617.360306066903	3
7	17650	919524.732782637455	4
7	17656	919787.355992872434	5
7	17664	920151.1897349691	6
7	17667	920689.78927765158	5
7	17676	921603.313374012702	4
7	17684	922100.694492389807	3
7	17698	922878.44020539951	2
7	17702	922977.362951470849	3
7	17710	923384.368802134088	2
7	17719	924063.196389840544	1
7	17736	924644.834307808303	2
7	17742	924931.127925107964	3
7	17745	926279.223739123248	2
7	17763	926909.728380596634	3
7	17768	927173.844579336064	4
7	17772	928864.130022534974	3
7	17778	929164.43955895443	2
7	17798	929736.193084574797	3
7	17804	930045.61463140211	4
7	17807	930889.52049011227	3
7	17812	931050.930534392241	2
7	17833	931988.389296862445	3
7	17838	932299.050607944525	4
7	17840	932463.792392092724	3
7	17854	933105.84466606664	2
7	17858	933128.242875124061	3
7	17879	934316.954949972271	4
7	17887	934617.640268967565	5
7	17892	934863.379067603591	6
7	17901	935171.619236630149	7
7	17906	935461.874648967175	8
7	17908	935708.451538354848	7
7	17913	935819.906083261251	6
7	17925	936857.370961745314	5
7	17935	938073.562614640698	4
7	17940	938172.040491517258	3
7	17943	938201.60722681194	2
7	17956	938670.693328563373	3
7	17960	938836.50869859851	2
7	17973	939335.105527111334	1
7	17995	940750.9107630315	2
7	18003	941074.79367586465	3
7	18009	941318.493911671321	4
7	18018	942252.763618778547	5
7	18029	942603.606103730186	6
7	18033	942615.973147985759	5
7	18040	942864.180217585464	6
7	18049	943159.123345074773	7
7	18057	943458.573189593258	8
7	18063	943798.198310351669	9
7	18070	944443.690269688991	8
7	18084	944730.080641044432	7
7	18091	944978.428916397243	8
7	18096	945271.507777360776	9
7	18101	945576.643087419136	8
7	18104	945580.635061001769	7
7	18112	945749.838372782721	6
7	18115	945862.94302154709	5
7	18137	947001.547744691793	4
7	18154	947384.267164747112	3
7	18158	947616.376224431654	4
7	18162	947725.798894399794	3
7	18169	947922.963663992444	4
7	18175	948222.193512266348	5
7	18179	948325.949205543876	4
7	18191	948790.212684770016	5
7	18195	948792.070456569482	4
7	18213	949605.091296801434	5
7	18227	950377.081629386285	6
7	18230	950822.866139573535	5
7	18243	951398.859711526144	4
7	18247	951422.337777853638	5
7	18260	952072.797068881128	4
7	18264	952257.321970362904	5
7	18269	952503.237339591378	4
7	18280	952841.386596465807	3
7	18295	953559.670661218031	4
7	18303	953894.253318375027	5
7	18306	954261.560193602203	4
7	18314	954556.212996602226	3
7	18333	956028.011570919584	4
7	18337	956128.248528970937	3
7	18341	956367.468971236934	4
7	18349	956668.332689801989	3
7	18364	958138.599050912959	4
7	18366	958188.592428308831	3
7	18375	959066.678867389309	2
7	18390	959762.024418084519	3
7	18393	960120.154340140016	2
7	18411	961627.927174737488	3
7	18416	961828.242216773276	2
7	18420	961932.312085086161	3
7	18433	962510.375958993972	4
7	18442	962982.844642580289	5
7	18445	963707.054059536409	4
7	18463	965039.74968408566	5
7	18467	965157.511331906793	4
7	18475	965320.898862172279	5
7	18480	965609.088650411047	6
7	18484	965767.919137166447	5
7	18496	966421.518622345049	4
7	18510	967287.979068471079	3
7	18514	967470.895142716796	4
7	18522	968184.062551389369	3
7	18531	968725.803523055734	2
7	18539	968893.655500897771	1
7	18551	969309.8437271683	2
7	18557	969619.758074535326	3
7	18571	970376.7375382798	4
7	18579	971436.727045261956	3
7	18583	971626.809911939275	4
7	18591	972389.92565705463	3
7	18600	973208.900303448536	2
7	18605	973483.940907297014	1
7	18623	974452.02608872448	2
7	18627	975677.954694220672	1
7	18642	976310.167594101372	2
7	18650	976665.694382989301	3
7	18658	977068.663799225461	4
7	18669	977751.988653678591	3
7	18673	977930.571164594127	4
7	18679	978246.903895740948	5
7	18693	979581.03637831459	6
7	18701	979945.673180064945	5
7	18704	980117.454054346983	4
7	18708	980178.030414097198	5
7	18712	980212.011904405676	4
7	18725	980775.021413482846	5
7	18737	981292.125436797259	4
7	18740	981333.90756954421	3
7	18747	981369.499726084193	4
7	18756	981679.170102783732	5
7	18761	981951.766863654919	6
7	18780	982883.588896576862	7
7	18784	983022.794225900955	6
7	18796	983529.894866854223	5
7	18810	984550.162648937977	4
7	18814	984635.127573426029	5
7	18822	985026.99948387635	4
7	18827	985166.798708473013	3
7	18830	985305.196329039345	2
7	18848	985961.37247917187	3
7	18855	986381.763100896471	2
7	18873	987028.71722224627	3
7	18878	987311.218295916508	4
7	18887	988468.459173988467	3
7	18891	988630.03876552877	4
7	18904	989820.498866864096	3
7	18908	989880.353472063216	4
7	18921	990214.057895754898	3
7	18925	990522.120451625327	4
7	18933	990987.277013231453	3
7	18947	991585.942661870121	4
7	18950	992019.755823652745	3
7	18965	992760.706444756386	4
7	18973	993309.47631299168	5
7	18981	993726.707614474104	4
7	18984	993856.750736814192	3
7	18988	993883.446145749778	4
7	19002	994565.8389553643	5
7	19009	994765.618821806628	4
7	19018	995061.860185783352	5
7	19035	995684.649927725921	6
7	19040	996001.598143549199	7
7	19048	996258.865766426031	6
7	19052	996364.551074626974	7
7	19065	996939.738173548651	6
7	19072	997248.566101366434	7
7	19077	997559.081730684277	8
7	19081	997573.527969674596	7
7	19084	997687.624736380283	6
7	19097	998098.858319790821	7
7	19110	999021.409762941529	6
7	19118	999414.993263735073	5
7	19124	999552.392284304801	4
7	19135	1000136.154494313374	3
7	19144	1001025.216315258289	2
7	19153	1001492.772945404648	1
7	19158	1001661.387029530167	0
7	19181	1004266.866234784726	1
7	19189	1004545.760608879917	2
7	19198	1004839.214332670095	3
7	19203	1005116.178549054011	4
7	19218	1006036.504746668157	5
7	19224	1006400.899042159686	6
7	19229	1006728.161846785648	7
7	19238	1007192.213438578528	8
7	19246	1007520.957335099022	9
7	19248	1007869.009706438114	8
7	19257	1008211.982864534582	7
7	19262	1008383.189226081968	6
7	19270	1008731.908893920861	5
7	19282	1008949.48335008196	4
7	19289	1009152.053411858117	5
7	19294	1009345.609552360136	6
7	19304	1009791.672334118146	5
7	19320	1010437.118841866783	4
7	19327	1010596.731542068891	3
7	19331	1010725.358960035599	4
7	19335	1010862.602174482931	3
7	19342	1011023.345788957863	4
7	19353	1011346.891093563644	5
7	19359	1011629.912061301594	6
7	19370	1011939.80981958817	7
7	19375	1012227.569889902835	8
7	19390	1012473.909568471565	9
7	19395	1012767.171275453149	10
7	19399	1012884.179170817073	9
7	19402	1012980.189554623734	8
7	19406	1013122.6128208684	9
7	19412	1013390.647575329106	10
7	19427	1014104.68051568151	9
7	19446	1014722.54181046299	8
7	19450	1014801.472539619002	9
7	19454	1014810.04453870758	8
7	19458	1014991.138396090739	7
7	19462	1015134.304823671128	8
7	19474	1015561.835991003714	7
7	19477	1015669.163077714851	6
7	19480	1015701.764661308363	5
7	19485	1015751.576863816508	6
7	19500	1016207.406872544359	5
7	19504	1016324.700047549035	6
7	19510	1016659.895734651255	7
7	19522	1017009.922367820126	6
7	19525	1017069.807010169079	5
7	19529	1017194.520359257996	6
7	19548	1018047.705830542762	7
7	19558	1018348.366436724009	6
7	19566	1018821.831553322523	5
7	19580	1019402.408394250125	4
7	19592	1019824.494355005291	5
7	19597	1020038.289022409225	4
7	19610	1020443.142232411428	3
7	19619	1020951.72705673416	2
7	19641	1022377.557048063707	1
7	19655	1022809.50845994147	0
7	19659	1023083.818467930802	1
7	19673	1024012.420372648583	2
7	19682	1024589.202092202448	3
7	19690	1024999.400855999352	4
7	19699	1025831.02358569634	5
7	19702	1026616.405808280446	4
7	19712	1027807.672055840911	3
7	19717	1028138.822603868724	2
7	19725	1028369.26761584987	1
7	19743	1028963.724627773946	2
7	19752	1029486.489195148652	3
7	19754	1029701.646499772534	2
7	19775	1030311.226768806443	3
7	19780	1030556.577244928323	4
7	19785	1030868.103872089806	5
7	19789	1032105.586135473072	4
7	19803	1033360.227052936205	3
7	19810	1033634.562276679108	4
7	19814	1033706.258342004908	3
7	19822	1033943.11161007451	4
7	19826	1033951.602043798048	3
7	19832	1034255.981666317444	2
7	19836	1034281.051542359409	3
7	19842	1034615.891463314883	4
7	19855	1035228.270533399356	5
7	19874	1036169.653502149917	6
