version 2
run ParkingMeasurement-145-20170108-17:30:15-5273
attr configname ParkingMeasurement
attr datetime 20170108-17:30:15
attr experiment ParkingMeasurement
attr inifile parkingStudy.ini
attr iterationvars ""
attr iterationvars2 $repetition=145
attr measurement ""
attr network controltower.SimNetwork
attr processid 5273
attr repetition 145
attr replication #145
attr resultdir results
attr runnumber 145
attr seedset 145
param SimNetwork.a.parkingLot.parkingDelay "truncnormal(60min, 6min)"
param SimNetwork.a.runway.landingTime "truncnormal(5min, 0.5min)"
param SimNetwork.a.runway.takeoffTime "truncnormal(5min, 0.5min)"
param SimNetwork.a.runway.throughputCheckInterval 14.286min
param SimNetwork.wg.interArrivalTime exponential(14.286min)

vector 0  SimNetwork.wg  responseTime:vector  ETV
attr source  responseTimeSignal
vector 5  SimNetwork.a.runway  landedThroughput:vector  ETV
attr source  landedThroughputSignal
vector 6  SimNetwork.a.runway  tookoffThroughput:vector  ETV
attr source  tookoffThroughputSignal
vector 2  SimNetwork.a.landingQueue  queueLength:vector  ETV
attr source  queueLengthSignal
vector 1  SimNetwork.a.landingQueue  queueTime:vector  ETV
attr source  queueTimeSignal
vector 7  SimNetwork.a.parkingLot  parkingOccupancy:vector  ETV
attr source  parkingOccupancy
vector 4  SimNetwork.a.takeoffQueue  queueLength:vector  ETV
attr source  queueLengthSignal
vector 3  SimNetwork.a.takeoffQueue  queueTime:vector  ETV
attr source  queueTimeSignal
0	2492	121072.521875306116	5335.8137838898
0	2510	123088.895244439661	6565.259563505
0	2519	123961.923867037306	6227.2963854821
0	2547	127070.133053932288	7311.6105992587
0	2564	128395.264173874309	5931.4660016056
0	2573	128992.180597554504	4579.9461947279
0	2627	131966.487522740622	7143.5371393946
0	2662	134217.217257736745	4489.8533655083
0	2667	134540.807075013708	7410.6964438187
0	2679	134999.277746215137	4253.7300395728
0	2702	135721.367305580987	5508.9363811137
0	2715	136285.75069392065	5337.001835747
0	2721	136601.517112949583	5402.2240304454
0	2729	136897.232322062575	5092.7846815742
0	2752	138101.7530290829	5762.0757644262
0	2780	139716.925749329214	6046.1430845685
0	2803	140640.601872581442	5870.2992772647
0	2831	141899.078509675834	6196.951485417
0	2842	142181.056767228138	5553.0840991344
0	2853	142739.044928196355	5258.0115606969
0	2865	143829.599438584715	5385.9222873544
0	2893	144680.986483676768	5554.2948497477
0	2927	145894.922560609894	6394.6926459081
0	2932	146206.99578594394	6194.356891831
0	2937	146488.019531948211	5501.6105482294
0	2954	147291.326845967897	6001.6204914998
0	2966	147696.239797663799	5669.2439504385
0	3022	149821.735585774713	5855.2657202259
0	3028	150150.391572301584	5526.2152325086
0	3033	150469.432643204641	6777.0085259349
0	3038	150791.490983066297	5830.4706332505
0	3047	151385.406026188944	6164.3653815266
0	3059	152096.639908408252	5358.893342102
0	3064	152375.740583623653	3970.7172453844
0	3076	152754.712792385953	5205.2451963206
0	3101	153307.910682827367	4802.5534924643
0	3126	154442.204686584263	5784.1341734845
0	3169	157134.411504632752	8278.0697674994
0	3200	158080.747125097349	5006.4974224882
0	3214	158694.930438614312	6029.9369580804
0	3219	158952.884204991995	5870.9193904175
0	3224	159238.105872266152	5983.4166911393
0	3236	159786.616943425527	4332.285925049
0	3244	160094.104647433903	5808.0657031497
0	3250	160442.638475203839	4650.0548735983
0	3259	161236.948611107791	4974.9346854105
0	3267	161601.389815615721	4529.5662180733
0	3279	162173.003924964711	4686.6994452928
0	3343	167142.445273892025	9238.1999925045
0	3379	168678.556060616029	6577.1992027142
0	3392	169908.453220491078	4023.3168160716
0	3414	170562.475445341951	7132.9565728977
0	3451	171727.27109815341	6102.537866938
0	3476	172596.260709728038	7014.1697365455
0	3481	172871.228985549017	6856.2968868213
0	3487	173146.992252793622	5717.538982984
0	3492	173462.047148590539	6591.9590260674
0	3497	173770.681029536061	6525.3191473119
0	3512	174409.223559407806	6843.2936336378
0	3520	174705.257769747213	4161.2945383446
0	3534	175219.913628549814	5402.0094301705
0	3542	175564.925909610778	4840.7446035856
0	3548	175867.59794025568	5017.7792740059
0	3557	176782.034178065228	5197.6816230206
0	3583	178575.461415283652	6942.7004045146
0	3625	180681.11066508241	6051.6612657648
0	3637	180983.597225736085	3917.6330514782
0	3722	184720.864400691053	7481.8794607352
0	3727	185034.799950454571	6442.4084215535
0	3739	185317.698544225697	5547.506927385
0	3749	185933.488157029302	7033.8898448378
0	3755	186243.297447374272	6173.8434616634
0	3760	186525.857399068466	5553.6716048055
0	3771	186812.961076663143	4103.1511777418
0	3788	187466.232632114167	6313.7303040118
0	3797	187785.578318040498	5303.346455354
0	3811	188120.481836575329	5491.9715158099
0	3886	190707.130830778821	7225.645778956
0	3894	191037.180288019955	8246.4184650226
0	3905	191636.141445050315	7860.8903368112
0	3910	191988.833635489136	6858.7935210959
0	3936	192686.688819421047	4876.777938134
0	3945	192958.926072684623	4578.5613867087
0	3964	193540.098726431612	5460.1938642347
0	3981	194063.77410358636	7490.5152924048
0	3986	194350.628789395235	5783.5925680771
0	3992	194638.136082480564	6190.8268630963
0	3997	194939.926476032105	6374.7271376445
0	4002	195211.804006431954	6409.7187650307
0	4014	195938.555182802273	6340.4412376211
0	4039	196881.779095801957	6164.5964433785
0	4056	197453.095425623265	4664.0689403402
0	4061	197741.852890258542	5608.9487170609
0	4088	199805.979638025507	6474.5492141298
0	4096	200205.036897954336	4428.220157626
0	4116	201070.293650656576	4803.5283232511
0	4141	202020.885013956774	5266.2346923618
0	4155	202885.122019411209	5038.9677177364
0	4193	205360.197328223255	4817.181309023
0	4204	205628.356213924955	7013.6487926187
0	4210	205904.763749254947	4962.5642046995
0	4215	206195.423757573063	5117.5427296068
0	4247	208018.364441392566	4305.2449064523
0	4261	208574.883896519112	4757.7507949195
0	4269	208940.691931697139	7219.8581814108
0	4308	210717.732142434473	6816.4967499329
0	4317	211559.998718047779	4862.3859497178
0	4334	212443.601088300847	5083.7349713659
0	4346	213038.696422576295	4296.3863470047
0	4363	213547.544333313487	5779.8081717602
0	4368	213836.685175881952	4621.9641334745
0	4376	214264.56526680041	4446.2690723175
0	4411	216037.252425206043	5941.1324809307
0	4419	216691.129988964921	4811.3913096224
0	4445	218549.55695329243	5726.4172512978
0	4457	218946.595739845771	4541.2805910025
0	4471	219543.620947321014	4547.5525255826
0	4497	221605.067284640561	6365.3263187036
0	4509	222204.983469206157	4693.8872919176
0	4534	223414.949133064438	4524.149243201
0	4539	223699.793382432796	5869.4339519635
0	4557	224879.940842069441	5001.7231526039
0	4583	226333.836207356222	6041.4516916422
0	4591	226888.31646929898	4905.835203662
0	4600	228002.38222654674	5220.2317204338
0	4610	229172.095113650721	5314.072037905
0	4630	229990.430498064398	5007.0321068638
0	4687	233544.132119268041	8302.6757076522
0	4707	234352.644597258585	4971.2022453754
0	4712	234668.533065820138	4777.0755224105
0	4724	235348.472554457151	4765.7721024285
0	4750	236609.73326709949	5460.332643273
0	4778	237497.42030185029	5098.553975185
0	4791	238108.542801144956	5518.5951179194
0	4797	238431.762073443365	5454.0990000924
0	4806	239435.247540392035	5723.0614680609
0	4818	240032.536250084218	4892.8975825855
0	4834	240748.405623698405	4732.1389145441
0	4846	241048.379822012805	4681.3472565129
0	4856	241620.67483278286	4904.4726285947
0	4891	244104.703818298071	6638.0981424634
0	4920	245220.328341951313	4264.9710071622
0	4928	245563.371994278301	5586.457178358
0	4953	246350.412595975532	4722.2491935519
0	4975	247692.574652811975	6015.3481593343
0	4984	248207.993477346824	5551.7245172263
0	4995	248524.089091472234	4253.9104089903
0	5037	249984.906054299687	5405.9002607428
0	5042	250259.155259706854	4978.6683189683
0	5063	251154.821485432441	5471.1405785176
0	5076	251777.561051072827	5633.1576551637
0	5128	254053.911674471623	5275.3662470929
0	5133	254310.647210463602	6023.9432065508
0	5138	254561.436804674255	7467.1018049722
0	5150	254877.913640912516	5698.4069943382
0	5155	255152.9191076764	4599.4395622318
0	5164	255483.624076674204	6029.1063357108
0	5180	256156.041085811056	5052.6229419436
0	5231	257605.720864469026	5393.3174812052
0	5250	258445.23433742698	5734.6777282786
0	5261	259031.060925465683	6113.9294907281
0	5275	259448.759190004219	6452.3913558309
0	5320	260905.58180401244	5706.7493992931
0	5334	261566.035487673679	5598.2331544927
0	5342	261883.861971254578	5485.4435951479
0	5350	262198.517634481116	5715.1411295046
0	5359	262485.847743934847	5184.3131844282
0	5364	262738.071546573989	5350.4189231752
0	5369	263020.865944942998	6386.4657468432
0	5396	264192.503299705819	4835.4302674325
0	5401	264430.722693252234	4605.9729500491
0	5412	264746.582603886341	6556.7414389664
0	5423	265313.231281095433	6054.8875750306
0	5428	265588.969703997284	5336.8217511336
0	5442	267774.131250878303	7026.5637557794
0	5474	269532.778704931591	5948.4832638801
0	5557	272909.517289767476	8170.4538265469
0	5580	273686.528146813353	6008.8866715755
0	5597	274350.800509414527	5468.3994918077
0	5614	274641.683125838016	5166.4136331503
0	5631	275252.023788091268	5965.2404357254
0	5636	275523.364174106588	5743.0370648242
0	5641	275816.834360710884	5574.2988031385
0	5650	276165.485787168027	6664.64077489
0	5658	276455.604930514036	5422.5422665709
0	5666	276761.127182773341	6391.7602704744
0	5680	277275.677886292937	6090.0951165897
0	5685	277577.250472109234	5986.9951975332
0	5694	277865.805776143438	6023.1602340916
0	5707	278491.522956074468	5375.8954380264
0	5719	279023.484788307619	5375.7323349567
0	5758	280918.263128856608	6306.506566779
0	5768	282207.4981950799	5519.3025535133
0	5786	283076.04289126831	5431.2431903046
0	5825	284593.003498669541	5218.3526781247
0	5830	284887.971052259292	6053.6282536967
0	5838	285209.830789359423	5828.0919307317
0	5876	287401.28066571401	4140.4404599233
0	5884	287712.965133563858	7419.6061406905
0	5889	287994.500199683691	4632.635408564
0	5898	288244.254965624962	5257.9039208566
0	5952	290627.924332914828	6918.856019317
0	5965	291209.66255881076	6038.79240068
0	5974	291496.186887273711	5797.313741167
0	5988	292388.578354247512	5587.0882620225
0	6016	293471.356956093629	5432.838204395
0	6024	293717.597724454308	4696.9531106904
0	6033	294017.247093087641	4624.4266109666
0	6038	294348.111069104877	5142.8295608368
0	6049	294647.655751074389	4792.3709892785
0	6064	295756.804193023678	5323.8725728563
0	6081	296651.343641445093	5367.4802192103
0	6089	297256.77552539237	4762.602268648
0	6113	298888.228288329052	6232.3408770263
0	6157	300751.70687594144	6352.0448229852
0	6181	302563.212719821239	6545.8683621015
0	6215	303691.305407692277	5385.8111931244
0	6223	303970.444667555645	5168.6123534739
0	6229	304299.55698471992	5645.9123820386
0	6243	304583.969749613181	5383.6675935568
0	6270	305896.368698843469	6755.1674292483
0	6279	306195.832749299394	6790.0544119495
0	6287	306447.788882273855	5518.8294671393
0	6295	306762.491219378444	4460.2364893676
0	6315	307268.826025587489	4851.5333804428
0	6342	308537.983040041942	4017.7422232318
0	6351	309111.196739228234	6156.3941792766
0	6359	309414.682795007831	4875.8347466376
0	6377	311084.935023716153	6201.9756728764
0	6389	311479.341464218304	4856.669166914
0	6394	311775.82613076788	4515.8842632059
0	6406	312133.1573964069	4878.1997065063
0	6429	314261.400812804545	6656.3048024736
0	6459	316499.651855190329	6142.4612397278
0	6476	317425.110100598913	5336.9991175453
0	6501	318362.694656264107	4901.6919945801
0	6518	319207.491152775123	4943.8519331543
0	6540	320499.629971303702	6097.1354352709
0	6549	321121.658321367789	4760.5849690252
0	6558	322052.927894383192	4643.5438363994
0	6573	322665.857693548365	5205.4591906591
0	6603	323849.908328756551	5529.5190822378
0	6609	324167.815750447574	5118.7090829855
0	6651	326474.081046437584	7011.2845347926
0	6669	327542.26700556507	4935.9992347043
0	6680	327939.12817656702	5108.9489325097
0	6700	328471.121378837272	5203.0231438589
0	6713	329101.586996649329	4692.1483767625
0	6730	329647.961150162671	4682.1168501033
0	6738	329909.875878242126	4848.2717879086
0	6789	331744.273838650681	5994.8557408897
0	6805	332333.884276074654	5393.0171903485
0	6811	332583.299932237072	4945.6841727124
0	6819	333357.731757185572	5109.8759920977
0	6831	334100.760806965311	3834.6148489985
0	6840	334431.471305751142	5599.529222101
0	6921	337066.132927765319	7189.7659692988
0	6932	337382.274212302142	6932.4195583649
0	6943	337900.006203660026	7338.6055838657
0	6948	338186.415189533599	7382.664326303
0	6953	338464.114283562318	6902.3968530755
0	6974	339213.009151745469	4716.6470574074
0	6988	339902.869980405044	5718.1495909548
0	6996	340146.834895485799	5569.4802254014
0	7002	340471.690241647845	5820.8027048979
0	7010	340806.483502410677	5292.5459103477
0	7015	341134.968558010667	6391.8164102672
0	7021	341417.419824867606	5678.9321150127
0	7029	341743.042354532188	5354.0637379348
0	7071	343437.721443160019	6325.0014749205
0	7101	346163.29630481756	4255.8169385364
0	7138	347285.265463267922	5224.6338016115
0	7146	347530.285549927723	8549.0275708419
0	7157	348135.962583620277	5648.8822333437
0	7182	349278.616907081131	6771.9009185398
0	7191	349883.689127506372	5213.7253592954
0	7200	350770.411586364319	4671.3494313118
0	7214	351139.043299456936	5986.034398857
0	7219	351381.869512316917	5105.2928152218
0	7225	351674.015431704289	5477.407061027
0	7254	353230.58563304543	5877.9844798972
0	7259	353553.281632954158	5144.5574095804
0	7284	356337.980622096841	7684.6124787952
0	7303	357252.708615561438	5194.3321029246
0	7322	359682.11864088883	7029.0722512514
0	7342	360787.312748998088	5497.4987791521
0	7348	361145.016043041031	5000.5533313444
0	7357	362279.200830401356	6013.7697403317
0	7391	364249.307323208453	6251.4590378786
0	7433	367038.738991993874	7058.0148749752
0	7446	367678.030049724437	4759.4383841149
0	7458	367963.266784274859	5013.4307118685
0	7472	368590.282139737862	5011.1300125582
0	7477	368918.470706260224	4330.4442421143
0	7494	369546.627871330517	4719.936142262
0	7519	371036.450311567329	5381.8657975547
0	7545	372272.797221910807	5475.6872126789
0	7554	373012.527637146219	5243.9076142777
0	7565	373687.813419550266	4751.0723024539
0	7579	374454.099330860731	4529.790364086
0	7591	375318.159698269308	5222.658966421
0	7650	377736.847780462857	6430.3559734557
0	7658	377996.232920228788	6565.3944756001
0	7712	380138.325052876881	4978.7524863349
0	7723	380418.470097476715	6927.9431912207
0	7763	381617.683076930813	6285.3304700975
0	7785	382448.368089447481	6264.5906716601
0	7790	382741.095625744325	6038.3747663862
0	7795	383009.827334425668	6606.6014618888
0	7807	383312.710386131816	6541.0144171641
0	7812	383640.75676618958	5903.4630719163
0	7817	383932.789162272919	4897.0617156127
0	7826	384238.540832994596	6072.5854638716
0	7837	384547.899602979709	5375.3448544024
0	7845	384817.031140668136	4064.8057530705
0	7851	385109.763781924484	4932.9691075237
0	7856	385374.199589120496	5973.9348406859
0	7865	385773.289196998104	4966.5437820867
0	7882	386775.585256401653	5411.9190565549
0	7968	391889.526970789959	10083.874922384
0	7991	392645.104838387128	6496.5456192198
0	8001	393157.709831683744	4808.4194131251
0	8013	393550.669647678558	4813.9879290195
0	8021	393838.681984861053	5459.990267699
0	8029	394158.177592343949	5264.8016116182
0	8049	394968.19496753076	4894.3945995192
0	8069	395613.055062871129	5450.1234675977
0	8083	396136.65612451846	5909.8593768546
0	8094	396447.41628613362	5756.2959234506
0	8105	397046.477781280852	5933.4805554344
0	8110	397326.001567963662	5288.6452258828
0	8122	398097.676110298127	4056.5438641292
0	8130	398374.66867784644	5753.8430044385
0	8153	399953.656726888625	5075.1275195207
0	8165	400311.591859006727	4733.4553579007
0	8224	403052.442723669267	6903.0087046514
0	8229	403457.167264054207	5267.1507200775
0	8258	404645.289745487255	5531.7508424448
0	8277	405227.840090383913	4290.1041081858
0	8283	405468.121454871322	5190.8987315088
0	8288	405761.564582662509	4212.2156501728
0	8299	406054.703090247759	5731.2964307112
0	8305	406332.806669208395	4762.2347994042
0	8322	407661.400088577962	5202.9609885638
0	8342	408595.490114522315	5132.2258930417
0	8351	408867.50295957052	4902.9920007274
0	8373	409978.89329298828	5382.580037136
0	8394	411952.859217173991	5616.7024669177
0	8415	413283.660149473947	4418.1531157261
0	8425	413963.637762770234	6253.2608446371
0	8449	415162.182442507782	5757.5646041377
0	8493	416819.410139040526	6565.9189443367
0	8510	418106.505044861954	6384.3940490164
0	8542	419508.957012654198	6361.4818910584
0	8547	419762.753069623972	4850.8282867675
0	8556	420041.32837973822	5687.6650834843
0	8567	420321.550021534415	4735.4363538266
0	8572	420622.42657263457	5065.8526021928
0	8578	420897.253843851105	5897.5901440777
0	8598	422413.676689749724	6744.8679521968
0	8621	423078.894288034266	5572.4063571185
0	8637	423907.736530017854	5248.2608311264
0	8675	426828.49238352451	8019.5341750357
0	8684	427153.308958856915	5387.0658694826
0	8745	429209.773718315587	6399.5467288732
0	8757	429496.50172690482	7129.086418541
0	8776	430373.140128570605	4729.0623865803
0	8784	430673.278909671102	7786.8641036515
0	8789	430913.07569485813	5146.7521655394
0	8866	433377.345412901564	7254.246524685
0	8877	433696.077116224556	6369.7541167241
0	8908	434998.681912653314	7904.4447188699
0	8913	435344.107911913874	8120.8890021099
0	8922	435629.703936048461	8301.4227522734
0	8927	435931.711161313578	8204.6324158589
0	8935	436255.33917185759	7786.0685848875
0	8944	436550.621249616309	7288.118350099
0	8952	436852.140414267225	7085.8791312567
0	8961	437165.421360655959	5692.2604822035
0	8969	437459.020077435243	6124.7367893801
0	8997	438402.825258923794	7017.9253165143
0	9002	438698.692101089444	6377.0031176862
0	9008	439029.140266172292	7434.5448957564
0	9016	439317.423769630173	6768.8211037438
0	9027	439949.601385998335	6392.1956684539
0	9035	440288.270375328026	6830.2554026994
0	9073	442434.519463557422	8187.6552830863
0	9081	442762.079673843135	5359.6361750929
0	9092	443341.803798229636	5831.9327673414
0	9103	443973.809768819699	4684.8536536572
0	9118	445520.562518290003	5270.7264015248
0	9130	445962.48267132365	4419.4407406329
0	9143	446519.163709715752	4948.3822443239
0	9178	448416.478746344372	5919.9444952228
0	9204	450262.487293076982	6445.887006356
0	9221	451123.751890562689	5191.4157533023
0	9260	452521.391731877639	5348.1257058447
0	9282	453432.492271661138	6332.9591645171
0	9291	453741.73905077098	6158.5330817162
0	9296	454004.090592065514	5528.7647730057
0	9305	454469.503283818604	4913.9935693852
0	9314	455226.37448443496	4728.8043984404
0	9323	456054.059381010859	4732.0141820946
0	9346	456945.307303122411	5565.4464771074
0	9351	457243.268524497497	4821.8205422339
0	9356	457544.170835968737	5602.514397613
0	9368	461033.188530083287	8414.8185534191
0	9419	467386.787717273737	11026.890887534
0	9424	467669.370697238166	4721.111859105
0	9471	470887.843934094697	7753.1194681539
0	9476	471205.565885454426	5840.7632770187
0	9498	473416.43541805802	6589.550634044
0	9514	474007.657180103986	4354.3976165253
0	9526	474273.086137190072	5150.2839526971
0	9545	475099.527659467494	5413.5467134314
0	9554	476530.694644413302	6454.1750193355
0	9575	478174.465493316086	4991.3186070233
0	9581	478416.047690170489	6254.0878532717
0	9601	479326.389724571954	5232.5087212544
0	9615	480689.024749553825	6551.5749596873
0	9633	482328.971034522875	5557.369427026
0	9648	483355.697771441909	4884.3117380772
0	9676	484996.96084559881	5925.0348324921
0	9722	487604.003157528454	6669.647497428
0	9728	487952.096029072183	4874.0967607525
0	9764	489191.202270792083	6101.9078394842
0	9781	489775.995804101623	5387.5729615284
0	9798	490349.191780879152	4804.9441601294
0	9803	490670.788857992623	5547.3065080329
0	9828	491640.106626561493	5539.3389822865
0	9845	492600.514488475186	5628.2448535652
0	9863	493025.110476991174	5007.3932176291
0	9885	494047.128201513365	5665.7465266997
0	9890	494295.732486562539	6050.1168190445
0	9899	494585.844272697667	5657.2265678506
0	9907	494891.796708491036	4127.1360212659
0	9912	495150.25809551208	5511.4798833772
0	9930	496885.866224775309	6114.6061424469
0	9942	497407.340327338705	5444.269459067
0	9947	497729.023789477901	4981.1377997526
0	9974	499872.604383333755	6654.7560081897
0	10003	502061.688795702868	6507.6743550689
0	10017	502766.789565690054	4597.5174097308
0	10039	505519.110317892662	6758.2387829258
0	10045	505816.687220776938	4835.3627908423
0	10062	506621.85374883649	5087.0402242504
0	10092	509531.821639188345	7599.2854101257
0	10106	510521.794167354997	6029.9662325791
0	10124	512456.31814736842	6471.5481833796
0	10137	513450.34804158011	5370.2584993204
0	10145	513732.86576598225	4819.4403284133
0	10171	515168.566817815133	5734.0112629878
0	10197	517346.962090318995	6579.4812078614
0	10250	519243.70531601487	5634.1853888155
0	10264	519817.178566394234	5277.1952385842
0	10269	520149.915580328026	4997.9077659026
0	10301	521467.505989323127	4341.7229968018
0	10309	521856.429065838992	6011.9908766105
0	10343	523059.259691247537	5696.0682098285
0	10357	523372.084744280926	5594.7671296648
0	10376	524215.70197564551	6156.7787681586
0	10381	524513.11403746635	6157.2422139475
0	10390	524781.380691762919	5612.4204550501
0	10403	525433.425652523475	4854.7529156372
0	10412	525733.385866687663	4953.7552997697
0	10432	526596.621667720942	4942.6464365221
0	10437	526908.349323275691	4989.3631565126
0	10452	527301.720112863752	4882.0535772049
0	10471	528246.703359151545	4911.542415196
0	10497	529730.728584280812	6392.0289999511
0	10524	530573.569124344155	5866.0959936627
0	10553	531574.155646833983	4484.0485280383
0	10581	532598.190538488285	6610.0684597332
0	10592	533237.59305010715	6101.4846802153
0	10597	533487.616934128474	5213.7012807841
0	10605	533903.142995170706	5276.1051587063
0	10614	534234.909842432572	4470.9236309382
0	10623	535281.83646644692	5407.0888743009
0	10637	535588.039000156938	5061.4457428368
0	10643	535877.500852097937	5131.7010606584
0	10648	536129.285617117068	4634.8529314199
0	10666	537580.314676529525	5773.0472363595
0	10721	541688.386857121698	9349.8929253674
0	10771	543411.109110096126	5189.7040415851
0	10780	543718.514797229846	6870.9506392042
0	10797	544383.070083304922	6042.0918641074
0	10802	544699.647822163898	6080.4706361507
0	10819	545641.073647864477	4875.5329784145
0	10833	545929.107940794999	4391.8800859599
0	10847	546516.947803205872	4505.8163603053
0	10852	546804.618771007229	5706.2222176782
0	10861	547359.21687124642	5333.5102024599
0	10873	547766.445518947967	5078.3255406985
0	10878	548104.305070326875	5828.6131932185
0	10898	548957.150006316691	5306.4619319816
0	10912	549807.325445049492	4902.6787318982
0	10939	552051.661105847087	6287.1519722764
0	10964	552966.089444863293	4835.3481520208
0	11028	555305.43029650363	6370.0393744876
0	11039	555923.652828790617	5147.8482513777
0	11051	556590.818022486073	4465.5508436055
0	11059	556823.587062518525	5690.0725060195
0	11073	557436.50118721906	5267.5490904316
0	11087	557877.964896546131	4370.3819584768
0	11096	558146.499105865836	5094.2068365492
0	11112	558757.721452309386	5170.8710606742
0	11118	559024.839013978637	4778.9317123005
0	11123	559280.648665298921	5517.8459370053
0	11132	559780.31959964158	5513.5088850317
0	11157	561105.565694573388	6045.3122290658
0	11166	561850.102697058241	5206.8187572777
0	11220	564666.048654289305	6591.5176078186
0	11237	565298.347467573377	5063.2950533929
0	11265	566458.20427044601	6053.5866620025
0	11284	567319.265627381626	4925.1053146401
0	11299	567984.654308032106	5031.2323961296
0	11308	568303.714556703881	5217.9675745234
0	11313	568630.629621731098	5161.3450459309
0	11318	568929.594638123061	5068.3318298013
0	11336	569493.790031731358	4272.9917632302
0	11355	570325.986057124931	5833.4504168547
0	11366	570655.201351521417	4789.3233181069
0	11385	571580.36527310173	5399.6405614163
0	11426	573828.028261475512	4585.6950145508
0	11454	574644.145981345386	8417.1658654997
0	11465	575244.465143039207	4692.9045057379
0	11470	575554.335604902091	6163.7427344217
0	11490	576440.697246315224	5847.4850782346
0	11495	576739.087241610634	4948.3487131916
0	11504	577282.970613127703	4899.9185909451
0	11527	578462.752513344701	5524.4135094664
0	11541	578991.19600302018	5182.5021853319
0	11546	579286.199435216078	5260.2831040562
0	11558	579666.286230279373	5137.2812636734
0	11590	582305.486226393251	6462.5325245755
0	11599	583067.659268319056	5107.6449686923
0	11607	583476.615004217054	5223.1314847704
0	11624	584506.818144153953	5057.1966763523
0	11645	585446.051171132056	5360.1163420582
0	11707	588847.222722411499	8112.9330000695
0	11721	589438.306462230054	5870.9466808699
0	11730	589751.324437834835	4965.0408624169
0	11743	590415.593810629204	5216.5637292654
0	11767	591954.75115210157	5920.9835721544
0	11775	592278.525837204872	4745.2086230466
0	11784	592538.106284158295	5268.2782011254
0	11797	593105.139921435604	5339.6931469225
0	11803	593390.208904231497	5652.1827750164
0	11820	594486.479754035328	5874.533759302
0	11857	596554.710205298905	5139.7628907416
0	11866	596870.891827288753	7275.5844964395
0	11879	597395.242747231253	5028.7809290626
0	11912	599402.588824775738	5863.0289874475
0	11925	599987.051144714244	4499.8711533258
0	11934	600305.054741239093	4910.9243127437
0	11951	600934.28745856933	5147.6010299428
0	11981	602208.065526738769	5364.3041039468
0	11998	603091.997040388479	5654.898570627
0	12007	603876.074992448802	5188.0855065337
0	12016	604614.865750830085	5273.4268991689
0	12028	605559.330962517017	5554.2138671503
0	12045	606156.232930690856	5250.3635942349
0	12053	606463.963588534914	5284.7002953967
0	12058	606765.563294651178	5814.7343466567
0	12094	610287.896618456058	7944.9193493391
0	12120	611695.377244535419	6379.2862434442
0	12129	612167.058473746806	4512.6730582014
0	12146	613283.668432199055	5109.810124812
0	12186	614826.589223784759	6024.3749361271
0	12199	615403.14127984303	5041.9463957389
0	12228	617061.595808201373	4339.4911429722
0	12242	617699.486392047368	6803.7326683172
0	12247	617988.201172267019	4432.9768986875
0	12268	618873.546912296706	4620.0420504154
0	12273	619202.206547662603	5441.8525567849
0	12282	620182.199798096622	4955.3550798271
0	12290	620550.865696796337	5957.0317352758
0	12314	621489.956559770584	5343.7387231811
0	12336	622386.839209199573	5483.6602255359
0	12473	627319.663907208403	9069.4387447921
0	12493	627901.44316742798	7044.2366896322
0	12504	628261.661237467005	6782.8687892061
0	12513	628525.796696223786	7299.5908979041
0	12518	628831.58226470382	6724.1230217725
0	12526	629126.734007087662	5842.0208404899
0	12532	629449.913172817106	6825.555952799
0	12537	629702.140587602504	6310.4670274997
0	12548	630006.54554338334	6002.5617936124
0	12557	630310.674764544725	5983.3295908261
0	12574	630654.71218644597	5899.8645970911
0	12593	631499.416216664801	7397.6296149086
0	12607	632119.454479710997	7360.3564735465
0	12612	632390.652203337713	7808.1031592487
0	12618	632706.053120851206	7421.4429831395
0	12623	633012.026664505689	8197.8923404119
0	12628	633355.439889083934	8487.1356768896
0	12634	633664.603286971325	8004.4580678402
0	12643	634513.410449432464	7388.0755471377
0	12652	635235.514306691219	4753.2233810287
0	12663	635831.278426523917	5305.0943862438
0	12756	640137.74971418013	8769.5382922526
0	12771	640455.103495322541	4866.2873021846
0	12807	641667.872964801876	5515.3965082072
0	12821	642296.368084997643	6050.8929075754
0	12832	642589.346257377082	6382.3630449886
0	12846	643171.146071098368	6886.4585536544
0	12862	643708.339469371643	6655.0622414395
0	12868	644058.361848134997	5164.9038562788
0	12876	644363.352728291848	6669.0111243337
0	12888	644645.474798039469	5636.7497286547
0	12924	645763.538660838717	6274.3005456935
0	12938	646362.992085558157	6072.1470507481
0	12949	646599.642185925895	6300.3210066207
0	12963	647238.752646759208	6751.3971802098
0	12973	647861.033290058385	6219.627207707
0	12979	648120.199362340264	5695.3113604684
0	12987	648722.794147619507	5558.9217929682
0	12997	649786.602318841075	5406.4071081682
0	13008	650135.457603616616	5366.0262391671
0	13016	650377.489422341779	5916.5461753325
0	13025	650681.451603694953	5041.9370143107
0	13042	651739.372290551581	5218.846966303
0	13091	655234.373898448814	8193.2309909872
0	13099	655524.623431830196	4098.5721156404
0	13139	656758.059133797839	6152.5371894277
0	13147	657051.518318625169	4706.300508824
0	13169	658029.221896120275	6210.8937431054
0	13175	658367.423091136776	5601.2574415032
0	13187	659420.696637037463	3751.2753459165
0	13192	659790.258047645986	5546.399705938
0	13201	660264.100918828229	4614.6387953087
0	13213	661284.232790483133	5309.680121775
0	13233	661859.075642083617	4889.7329268718
0	13318	666436.914410069022	9303.5748702088
0	13326	666810.020283583853	5795.0198489428
0	13335	667097.260372557838	5438.5630740663
0	13340	667388.723976053824	5441.666296661
0	13345	667648.952939389307	5816.1808780525
0	13357	668138.294073388613	5531.8594995707
0	13383	668740.544471648234	4277.3758771719
0	13427	670614.186808829334	7177.8750076469
0	13432	670886.468138888976	6248.8573044193
0	13438	671235.713488088682	5630.3434867417
0	13450	672061.792661287333	4065.5301909108
0	13455	672351.385178100482	6524.7492180193
0	13476	673557.992583815074	4941.5649232796
0	13495	674398.166899595494	5781.0677476615
0	13501	674691.161782219603	6117.2153765415
0	13509	675003.537397023053	6193.7571295613
0	13533	677582.910823903032	7786.2623424171
0	13542	678257.646991891536	4768.853661829
0	13559	679356.587866956769	5859.567856325
0	13571	680200.478535935508	5241.6050942976
0	13611	682333.016438330992	6323.9912211188
0	13632	684332.950336920412	6060.6572137383
0	13649	685057.291528905866	5033.3095912975
0	13682	686209.150466458594	5906.1646308682
0	13687	686538.534433380816	5105.1810860945
0	13697	687732.819593696443	5930.2226487666
0	13714	688373.124102190436	4637.6769791168
0	13726	689169.956011181732	4949.4679200578
0	13731	689414.82636460169	4574.2156916615
0	13739	689913.889167936859	4708.6640698573
0	13757	691430.447884799495	6048.4037358292
0	13793	695145.636162855115	7396.2845047484
0	13832	698129.687535907379	4377.2239476698
0	13840	698469.394380483237	7761.1536296449
0	13857	699071.670659563861	5269.4808793742
0	13865	699332.24929891157	5441.7117620717
0	13888	701001.54866502907	5683.4162579731
0	13897	701643.974239726179	5390.8403778042
0	13942	703483.048693382587	6057.5300380629
0	13954	703813.294130714943	5470.9927030788
0	13976	704743.392663516407	5500.8496581517
0	13993	705808.614541945582	5345.5983604216
0	14010	706589.05058180368	4897.1864587718
0	14021	706822.463313375391	4310.776396281
0	14035	707403.066666637407	5110.1414185214
0	14040	707684.776992403921	5025.7898548887
0	14049	708128.510047511609	4580.5567821412
0	14061	709509.268949736	5948.3944320277
0	14078	710239.680057687819	5648.4011781879
0	14092	711002.246831638471	5397.849309903
0	14138	713866.711828792449	7215.8926996454
0	14160	714714.597192838092	5286.422811307
0	14191	715715.293747826694	5645.4539918548
0	14205	716287.727369509576	4721.0446854649
0	14233	717168.627137906664	4293.9525998875
0	14250	717791.204514482329	5751.5041692321
0	14258	718069.833369420024	4884.4056311305
0	14277	718925.179100885174	5202.0328653845
0	14292	719257.752774063631	5124.4264994456
0	14305	719922.50286527586	5066.9630323092
0	14314	720149.00962536652	5035.3167370925
0	14322	720416.060057739204	4941.3406211993
0	14330	720729.025190414471	4642.7423025563
0	14361	721950.232081325739	5482.4939217764
0	14375	722557.368724926564	5479.0979364721
0	14389	723150.212353250549	5354.6397029203
0	14420	724477.742096311958	6308.0004007707
0	14440	725180.703439259498	5998.9235082508
0	14445	725495.279372485622	4931.3569969415
0	14457	726237.992731984309	5423.4560639109
0	14470	726838.076451626909	5567.1105585412
0	14490	727491.481013781844	4119.331957608
0	14502	727772.540963206458	5341.483926355
0	14515	728404.004006924227	5284.7600599673
0	14538	729463.220950383981	5801.5029820987
0	14550	730756.696282126014	4790.7904200911
0	14555	731061.127903182587	6453.7895498662
0	14564	731572.856975808122	4714.166718609
0	14573	732365.410920060002	4833.0516899294
0	14590	733030.473372025069	4649.1021215148
0	14618	736948.614666374334	8446.8609665737
0	14630	737756.095730541541	5311.9414796806
0	14671	740694.214530803357	7167.5996908815
0	14691	742124.120410161932	6040.3614094136
0	14697	742454.010032431351	4906.7836677932
0	14719	742977.119310499376	5038.7331766829
0	14736	743541.86264175825	4513.2543102283
0	14781	745743.691791978606	6646.9092193865
0	14789	746225.010599552907	4845.0731415863
0	14806	746922.779961291761	4460.711862353
0	14815	748108.17269209221	4842.9003996381
0	14827	748560.609593672805	4500.9757644291
0	14838	748855.142758617596	5881.354552538
0	14852	749450.114961725279	5976.5451989662
0	14857	749755.693846589961	5599.0883106864
0	14891	751047.572495439287	6096.266760279
0	14917	752856.45065360104	6555.7102143114
0	14954	754305.793803011456	4453.5303963183
0	14962	754606.745231188488	5887.485358382
0	14973	754890.7491726545	4924.5630159794
0	14987	755472.313989332893	5456.3875722665
0	15012	756329.260628632172	5239.9953046859
0	15034	757306.285918506425	5096.1744508629
0	15045	757574.216344466076	4408.6783395136
0	15073	758491.888189840681	5297.9704403743
0	15099	759833.68934539281	4457.0298184714
0	15113	760159.602845987295	6604.2226965171
0	15127	760716.327322687867	4676.5730864285
0	15141	761312.89663623512	5800.3927613591
0	15154	761928.668615873424	7307.182866868
0	15163	762165.629775882234	5634.4791654952
0	15171	762449.540400985144	4967.1131732143
0	15176	762729.496374480788	4872.9073953871
0	15194	763781.688974817456	5488.8033467417
0	15267	766720.480987798103	6744.8002936172
0	15272	766979.291368662536	8512.7383230307
0	15281	767304.216633125782	6697.7491700251
0	15286	767594.859444638275	6409.4450527516
0	15295	768032.375098138837	4872.3895725912
0	15323	768606.576718635561	4169.4787056953
0	15401	771294.569246451531	7045.3008470615
0	15412	771882.188770789849	7181.4990451636
0	15420	772168.088562720493	7043.3673058644
0	15426	772428.810967124251	7287.7976509239
0	15431	772702.297496614591	7467.655537352
0	15442	772992.939002974064	4914.2375692606
0	15451	773301.144113143501	7396.5346132219
0	15459	773595.935893327992	5248.0499731482
0	15467	773914.363324291579	5027.208593708
0	15490	774446.273739834396	5448.2801469459
0	15495	774710.028806249181	5439.5818147344
0	15501	774986.855816193551	6595.2804643942
0	15509	775268.064148450757	5773.2949060379
0	15514	775526.165279545957	5822.4589567281
0	15520	775864.702632233881	5777.6605772126
0	15530	778249.090409187945	7102.8641871434
0	15582	782947.016346557612	9152.5484430104
0	15601	783907.968828510981	5415.83203123
0	15654	786002.108011892871	6399.3711821934
0	15660	786278.563168621996	4314.5528954949
0	15675	787125.09832115351	4477.8166607753
0	15686	787739.278366707916	5434.1396361271
0	15701	788597.682840692383	5658.6060961334
0	15715	788911.729942219269	4879.7725613973
0	15726	789548.382839417163	5304.4187548561
0	15731	789808.480719380037	5129.1721488868
0	15736	790106.71518182316	5964.8943766361
0	15754	791824.216206096064	6390.219948986
0	15784	793928.842477412153	6826.253910493
0	15789	794213.283580866897	5303.5965941688
0	15809	797263.177554452673	6945.7262256393
0	15817	797648.788394167816	4623.6899693566
0	15852	799972.103538187396	6828.6932838712
0	15893	802639.09705404293	7252.4678315938
0	15915	803478.064183271549	5359.4264395246
0	15923	803790.941936514938	4377.9548305494
0	15929	804085.233338187285	5947.4868663326
0	15938	805380.92269201128	5081.3590435004
0	15947	805844.678838906001	4874.5658819056
0	15967	807073.069447165925	5133.4039791299
0	15975	807391.26224310462	4810.4365670007
0	16023	809894.212955404144	6980.8583546663
0	16089	812735.985588951173	5450.2469696625
0	16097	813024.370604369677	6971.9040752913
0	16102	813350.710047298467	5715.322643284
0	16111	813677.817358011315	5256.6036659062
0	16119	814000.798031680633	5197.8831002625
0	16156	815364.877524292974	4788.3174334167
0	16167	815652.71589142345	6392.5904729581
0	16209	817140.387598804339	6176.1823768817
0	16214	817438.364193620581	6601.6967126169
0	16220	817739.846607345246	6262.0971944195
0	16231	818013.747535846414	6523.1713722067
0	16245	818619.960827507531	6917.0970419951
0	16250	818899.240545866015	5120.2249391875
0	16270	819472.613370627558	4930.0501635696
0	16284	819733.975242791396	5168.1044510674
0	16309	820684.277089887012	4930.2274212445
0	16320	821352.319099853973	5702.0602705098
0	16331	821691.035270408981	6013.470592324
0	16362	823027.467194383091	6796.500459179
0	16367	823345.034129785256	5512.4033755898
0	16382	824394.127029212471	5478.5563474001
0	16404	825327.838818279419	5617.9098301143
0	16416	825661.752418425085	5859.1846713683
0	16466	827437.390335655246	7002.2222918967
0	16471	827745.675329621558	6321.0342152659
0	16477	828043.373005564856	6648.9232921237
0	16485	828680.478076660071	4308.6548637273
0	16494	829215.765899462206	7441.0140836429
0	16503	829963.614133806415	5323.4317522243
0	16514	830537.282780194955	5207.9707136152
0	16537	831129.479658162341	5563.7419116633
0	16551	831677.112311284281	5580.076284353
0	16570	832566.72569636947	6198.7110763061
0	16616	835168.091376836239	8503.6520479558
0	16624	835511.512179246812	5230.1075182202
0	16633	835807.273709802291	4900.4436291861
0	16646	836442.847274705244	4789.1037335559
0	16658	836834.404185278856	5130.0218258753
0	16669	837165.324005156992	4331.1306224445
0	16680	837716.159190380811	5083.0561738591
0	16695	838788.761745238514	5747.4272332593
0	16731	840335.339931737832	5743.6529512276
0	16740	841169.913450444467	5601.5108961692
0	16750	842935.696097125718	5779.7616755509
0	16761	843374.419403895699	4765.8949514561
0	16770	843714.872277356158	4959.7662433507
0	16792	844699.413553985275	5816.6141910898
0	16836	847749.220701411882	8618.0879562284
0	16865	848618.165998777515	4938.7417484905
0	16928	850919.572175408219	6935.447460462
0	16937	851244.971752661201	6367.506246862
0	16950	851813.695880900511	7101.3117573899
0	16959	852135.985850572022	7176.8360402964
0	16987	853006.58790371753	6542.7884071588
0	16998	853329.163725322195	5354.3785199604
0	17003	853614.505804239235	5278.8945445453
0	17009	853922.912033530254	4801.5755605022
0	17014	854143.50062996209	5585.4366807888
0	17025	854489.3141377029	5930.5145809582
0	17031	854814.665139212316	5105.1815522165
0	17039	855126.458069414043	5959.8131865406
0	17045	855464.603573881584	5441.2006839642
0	17065	856606.347204849135	4735.6245383814
0	17070	856885.727365202992	5689.8646312465
0	17106	859809.991905283243	7618.8847420825
0	17159	862296.385423106381	4739.1524995938
0	17168	862616.943487354303	6641.588486468
0	17176	862928.705789767325	4806.0777657507
0	17213	864580.912456631872	6054.377884199
0	17219	864888.58455280642	4678.5071890534
0	17224	865213.392617623665	4904.2193299314
0	17244	865953.9034648443	5038.9861759195
0	17249	866244.18509732528	5465.7917921679
0	17261	867396.208510645422	5758.4027375407
0	17267	867646.341192763751	4817.8941562592
0	17282	868364.092842246901	4653.9569018251
0	17317	870007.880979242728	6166.207084314
0	17344	872170.772619597	6854.1834745164
0	17356	872657.948141104908	3753.1981970967
0	17364	872979.216990616019	4762.0231398112
0	17386	873848.571823753427	5520.2214644082
0	17395	874545.819785791973	5465.5488820513
0	17432	876229.484000843259	5653.0789994549
0	17454	877328.419541930679	4572.1532466087
0	17462	877650.586064287539	6036.4739187865
0	17494	878905.064247236225	5848.2928169056
0	17519	880095.232290829101	4854.5089012507
0	17525	880358.72847834596	5421.2825791217
0	17530	880681.706345638289	5074.091099031
0	17541	881120.352645392442	4905.6644441954
0	17593	883107.075396455047	5078.4861147632
0	17603	883673.070972167557	6975.4295970636
0	17609	883965.395503547907	5909.8349342109
0	17614	884246.829705966198	5579.4834607507
0	17623	884856.976762065116	6101.4262351357
0	17635	885805.697964527515	4770.5099960443
0	17640	886097.583645900015	4725.5743980101
0	17655	886653.940580651482	5208.3389060925
0	17666	887295.738373902611	4807.1805277298
0	17713	891000.475043295719	8035.2653129216
0	17731	892648.311661681415	6151.9047892367
0	17742	892935.197937107101	4513.6948020189
0	17789	894744.258746432939	5962.25213482
0	17798	895124.56444196646	6140.7374457583
0	17859	897284.23698898725	8143.6443617318
0	17871	897594.364572905644	4870.6843463999
0	17887	898157.27939236211	7452.4788328984
0	17893	898477.624217237022	5566.714863074
0	17901	898778.068243447029	5576.5985750672
0	17906	899110.486639796106	5790.2725327484
0	17915	899376.984612759795	5954.7738608642
0	17926	899703.191129676019	4783.1298927502
0	17931	899963.363123790204	4741.6660989515
0	17937	900233.288138943825	5011.5426667616
0	17951	900632.656093578137	4213.533870429
0	17973	901510.715766234681	5605.6222152172
0	17982	901804.084860478087	5591.4245550797
0	18039	905055.06161677161	7660.8905378337
0	18058	905973.680366922691	5624.5073666678
0	18070	906293.995324425044	4302.6355428817
0	18075	906571.188641945912	4863.5583418883
0	18084	906898.106236102909	6117.9201673137
0	18089	907222.442535033146	4724.2630443852
0	18098	908073.363533539563	5110.5508327871
0	18176	911135.12430058853	7644.3853481726
0	18182	911459.874052336423	6487.9685942245
0	18190	912017.068702552549	7013.2453882764
0	18209	913257.053227137279	4700.2443805407
0	18217	913613.66845760931	4912.3074878641
0	18234	914226.379507806335	5045.9060100378
0	18242	914551.199768161253	5638.8233612423
0	18248	914845.298839580562	5504.3278526537
0	18253	915192.708404635796	5547.9943842722
0	18265	915526.754615257396	5989.437904277
0	18310	918174.840246294169	8282.1538621313
0	18323	919859.474198864689	4654.6942426848
0	18331	920144.685120694658	4756.1421297572
0	18348	920800.015685244534	7386.661257179
0	18353	921029.981525470536	4759.0330766308
0	18362	921727.170005062669	5438.9226767938
0	18381	924693.130623016744	7081.0925846657
0	18432	926779.803782924377	6764.6073685079
0	18492	929231.70590916437	4260.6239240546
0	18505	929864.893654235745	7857.6050322804
0	18514	930126.320669792366	4858.3210194357
0	18519	930419.732015806954	5057.4641497495
0	18530	930748.292066874468	5428.1851881684
0	18547	931359.928741121453	5581.2189008651
0	18558	931945.678943275345	5107.5439778109
0	18577	932512.161839634978	5161.7145007565
0	18586	932832.070975413248	4485.4670670528
0	18605	933421.169718733273	4849.9930731856
0	18616	934034.744263478854	6098.2475361827
0	18633	935141.995259263929	5928.5085156552
0	18642	935607.731622498742	4966.1523362123
0	18693	937463.157447623247	6401.8519440363
0	18707	938035.185771461381	6083.9339153102
0	18724	938617.315244492972	6048.0608133002
0	18734	939304.181815074325	5909.6079359676
0	18743	939783.975070223065	5316.8194383878
0	18802	941622.488137247836	5788.7485979508
0	18810	941936.47287696504	5872.9299764958
0	18819	942264.805989810451	6202.641219375
0	18833	942897.836399215224	6547.4072916317
0	18838	943199.18500524829	5967.758718981
0	18846	943534.227163729551	5647.8629954162
0	18852	943824.58901058193	5220.8358475183
0	18866	944214.382462040923	3862.6141309675
0	18880	944798.343947560295	4960.915061245
0	18885	945090.121045903224	5035.6544598284
0	18894	945471.402688246971	4811.9345418325
0	18914	946994.18016645842	6080.9908814763
0	18940	948216.074526955618	6196.7679840072
0	18977	949739.676360294637	5705.6733911449
0	19036	952305.477126361159	5587.7302744528
0	19044	952610.123163450054	7045.1952097496
0	19052	952900.165318416248	5377.0548740374
0	19058	953263.274560856849	5248.9846641468
0	19066	953593.44821894169	5294.9488453676
0	19097	954643.448476663734	5137.1895557262
0	19150	956497.560289718063	7847.2164127148
0	19156	956751.916515148698	7122.8719026282
0	19161	957083.471285272568	6043.9717056047
0	19166	957378.828316676752	6625.8654755139
0	19178	957622.855169840955	6761.8800480588
0	19191	958198.459924520872	7062.521539897
0	19197	958452.21931251672	4809.0870499627
0	19211	959009.846233089256	5533.9601994176
0	19231	959629.190441668814	5098.8590988113
0	19253	960527.868289850279	5730.5134916362
0	19258	960818.519457943928	6132.9003313728
0	19264	961149.083066523399	6291.5604623683
0	19273	961897.082258946274	6917.765471419
0	19293	963377.202246885544	5887.9896539453
0	19310	963993.098804116642	5074.9952586191
0	19319	964317.921414247076	4868.2849482369
0	19333	965879.239402634123	5998.7654213008
0	19368	968220.907891713312	6153.8657251079
0	19393	969186.494321457376	5941.1957912243
0	19467	972127.209212581024	7920.2801879779
0	19478	972486.09135635676	5240.0846111649
0	19498	973053.096059710536	5971.0942909162
0	19520	973981.512467276055	6679.7229766994
0	19551	974813.623472662126	6541.6645455728
0	19559	975131.64495276793	6449.0070184844
0	19564	975440.269308435545	5842.4755493189
0	19576	975762.655114971799	5813.5709859564
0	19584	976100.550360413385	5646.0458241069
0	19660	978512.592434035209	8134.7100452804
0	19671	979130.090552571904	8547.2684942889
0	19676	979457.444059726296	8707.6568269857
0	19682	979756.119740282576	9129.2353496555
0	19687	980027.045430310576	7704.6405422366
0	19698	980340.728727902538	7303.84170332
0	19707	980673.600565411803	7475.3230412778
0	19718	980997.446183063223	7150.5045395342
0	19735	981582.745295485686	5670.6009387803
0	19743	981858.524231137422	7809.9560569781
0	19751	982200.096730654336	5966.0078320703
0	19777	983181.261353184195	6482.8098042711
0	19787	983746.099349812208	7491.352239297
0	19793	984080.648667585894	6683.2022245796
0	19798	984352.762257683739	7121.2758684717
0	19803	984678.142402006634	7235.7929401021
0	19815	985123.161791171487	6869.895026094
0	19840	986286.405749877939	5344.1680776811
0	19865	987212.722890847648	5270.4278744782
0	19871	987499.738587477078	5171.0989209072
0	19917	990143.740480295132	7264.0374747045
0	19931	990395.041981448648	5451.1987754561
0	19950	991415.020012404948	5753.9156449245
0	19955	991708.623409202648	5431.9488974732
0	19964	992189.68411349472	5624.1024324353
0	19981	992847.927696890927	4432.5083006689
0	19989	993374.233944253946	4952.4566498757
0	19998	993742.462223812973	4525.7672919165
0	20029	994972.266475405876	5640.9191365078
0	20048	995865.784402216149	5715.2990634308
0	20063	996761.306612075424	6570.6131872645
0	20100	998481.733562515474	6174.9840218887
0	20139	1000008.099800391286	6044.2435952587
0	20148	1000311.719460039074	5524.2162967081
0	20161	1000911.312748573546	6920.3526733777
0	20170	1001209.946071943847	4699.5367996072
0	20178	1001465.22447443568	6314.7919717689
0	20192	1002172.688940290794	5413.6430465166
0	20204	1002895.470609836578	4488.6985153226
0	20212	1003252.187503581506	6140.7607370086
0	20229	1003901.990728962902	4924.6394681198
0	20234	1004179.62998764967	5735.3780967323
0	20243	1004830.211453821661	5641.3166884777
0	20258	1005538.904101425024	5417.9425043723
0	20294	1007379.387703927164	6114.8876837569
0	20335	1009965.55164560604	4740.1762849839
0	20351	1010536.476959691765	7566.9353447811
0	20413	1012585.438471798789	6166.382530757
0	20421	1012866.60695976032	7572.0275997862
0	20426	1013151.926780301006	6610.8869407589
0	20432	1013510.639420298721	5523.1248087918
0	20437	1013793.01086376903	4758.148176122
0	20480	1015062.257613622883	5979.7388544605
0	20488	1015363.323064296389	5426.8016015315
0	20493	1015685.31595814581	5371.7989475735
0	20505	1015982.006720724103	5230.9404639332
0	20510	1016303.363543766003	5213.2386291288
0	20515	1016585.444730797765	4874.82220327
0	20521	1016871.666588027762	6479.0222988804
0	20533	1017497.719506774268	5548.866436862
0	20605	1019780.848497606549	5942.9667427078
0	20621	1020643.04552712547	6799.9581627301
0	20633	1021322.40837545297	7349.855605155
0	20650	1021987.79823015749	4717.4352282072
0	20664	1022266.808311490033	4524.6863314804
0	20678	1022926.882784669546	4945.3918374587
0	20692	1023479.73918974784	5537.700605179
0	20706	1023766.181949999409	5620.2801920233
0	20720	1024426.095892967649	5650.0342263372
0	20725	1024768.354907118159	5557.9525604193
0	20733	1025121.350911573334	5604.0752316451
0	20739	1025397.782514655819	5620.3118465305
0	20748	1026275.248296760573	5190.1366235082
0	20774	1027081.106781741503	4872.8720727517
0	20812	1028545.533632183576	5844.4040934658
0	20841	1030957.42310014932	7452.3525221525
0	20850	1031284.178797963051	4728.9735993464
0	20858	1031620.735807563813	4757.2151088655
0	20866	1032003.821616137499	5123.0549493023
0	20884	1032505.350339993572	5625.9053047463
0	20901	1033166.943333800062	5956.8626516619
0	20928	1034304.043316997405	5795.7218089594
0	20934	1034640.09708000945	6289.1282721999
0	20951	1036283.345165268628	7416.6990183225
1	2498	122463.798172268696	0
1	2525	124412.234402826641	0
1	2533	124822.950383345984	0
1	2552	127130.110631195055	0
1	2579	129727.363892228402	0
1	2587	130212.430924467248	0
1	2596	130745.547706642363	0
1	2607	131059.274442366913	110.52558419331
1	2616	131340.085763844693	140.79268134047
1	2629	131966.487522740622	162.03988225227
1	2638	132339.677264656749	0
1	2647	133670.782664760748	0
1	2681	134999.277746215137	228.97515089842
1	2704	135721.367305580987	19.240281322152
1	2731	136897.232322062575	269.25965396883
1	2740	137481.033367499463	0
1	2757	138443.677151230277	0
1	2766	139126.691633929053	0
1	2782	139716.925749329214	216.69583462742
1	2794	140032.927511395327	20.288617282428
1	2808	140986.408983718796	0
1	2816	141289.706354468066	0
1	2844	142181.056767228138	154.06092000281
1	2867	143829.599438584715	137.175321315
1	2879	144114.96507550952	148.49520996067
1	2895	144680.986483676768	56.810143883755
1	2907	144983.907586398901	22.887236583127
1	2918	145297.558529692682	76.517885030298
1	2943	146737.746566306275	0
1	2968	147696.239797663799	146.77220159848
1	2977	148405.02333823927	0
1	2988	148655.848747922583	150.49155755952
1	3005	148930.246747045698	272.17623394589
1	3011	149204.837195605797	348.49545847245
1	3078	152754.712792385953	89.719311852077
1	3103	153307.910682827367	233.66098021823
1	3109	153591.802698995267	509.83788442076
1	3114	153889.703419280157	635.01423815326
1	3128	154442.204686584263	156.16574230007
1	3137	155454.33101837654	0
1	3145	155792.583601605502	0
1	3154	156262.013925697276	0
1	3171	157134.411504632752	62.587907090282
1	3179	157486.304479671908	0
1	3202	158080.747125097349	176.50184370982
1	3281	162173.003924964711	71.647067062912
1	3290	163429.518872444234	0
1	3301	165582.090973182505	0
1	3312	165905.117929675652	280.38469846024
1	3323	166196.858798301709	311.7223938822
1	3329	166520.520825574455	505.58872684672
1	3345	167142.445273892025	272.35715136886
1	3357	167439.378389245002	194.01650702086
1	3365	167803.448972050212	373.99570224057
1	3371	168137.011842161604	571.08191639164
1	3394	169908.453220491078	90.549022111792
1	3416	170562.475445341951	18.51221393934
1	3431	170851.880545613538	127.69923958836
1	3436	171149.839241512707	300.02057526289
1	3453	171727.27109815341	142.91854310874
1	3464	171995.564695140396	362.80368437138
1	3522	174705.257769747213	75.808370429601
1	3562	177065.964174257882	0
1	3570	177339.568054189085	100.58311423319
1	3588	178592.391528901044	0
1	3596	178899.598312191483	0
1	3605	179770.191616840697	0
1	3614	180092.596876917139	23.142891206261
1	3639	180983.597225736085	11.411431473127
1	3647	181269.02938867287	116.5270605705
1	3656	182482.231862686488	0
1	3674	182791.088981736748	162.57866097131
1	3682	183087.362348496595	377.55244957527
1	3690	183393.971932222155	603.21010922483
1	3702	183709.409795011471	227.9247431887
1	3710	184065.973995659363	290.72288742029
1	3741	185317.698544225697	187.65842983249
1	3773	186812.961076663143	239.70226548153
1	3813	188120.481836575329	310.57095528823
1	3824	188405.030150000642	325.12528780373
1	3839	188699.995408309779	319.63072233382
1	3847	188945.41399162206	498.1047722378
1	3852	189201.838580625269	636.63924223764
1	3858	189481.560804015092	914.524582697
1	3866	189757.958612582202	955.87337118098
1	3874	190065.536005390363	467.4220602092
1	3896	191037.180288019955	319.9976355965
1	3916	192132.904173197632	0
1	3947	192958.926072684623	169.89958740155
1	3966	193540.098726431612	208.66830253594
1	4016	195938.555182802273	161.73844247395
1	4027	196270.560968707221	3.795641301695
1	4041	196881.779095801957	127.128774207
1	4066	197846.154301674835	0
1	4075	198614.707421306232	0
1	4101	200543.016019200266	0
1	4118	201070.293650656576	128.09410610112
1	4126	201379.079476261959	301.19844829572
1	4143	202020.885013956774	300.05126367043
1	4161	203713.119534940217	0
1	4173	204018.944589146032	201.81148754641
1	4178	204350.725403152012	449.49001065049
1	4221	206697.612768329991	0
1	4229	207359.866116934897	0
1	4249	208018.364441392566	250.62827983925
1	4271	208940.691931697139	198.38185612551
1	4280	209251.008963596467	36.287921189006
1	4288	209818.296194482861	0
1	4297	210096.119944275358	0
1	4323	211879.738679342476	0
1	4348	213038.696422576295	215.5567205817
1	4382	214405.315148843253	0
1	4390	214996.068421738421	0
1	4399	215293.626085142492	53.885119205514
1	4425	217511.096177288596	0
1	4434	217830.359430469345	0
1	4459	218946.595739845771	55.795849982347
1	4476	219878.217689465509	0
1	4485	220292.384515714001	0
1	4511	222204.983469206157	222.50220356921
1	4519	222782.150506112906	0
1	4545	223858.023075745692	0
1	4562	224983.398391200582	0
1	4570	225311.720193560166	70.26378194431
1	4615	229381.442351883219	0
1	4632	229990.430498064398	98.972954654753
1	4641	230582.700452028617	0
1	4649	231149.400623826521	0
1	4659	232398.86632666527	0
1	4667	232737.072329711113	147.12464648558
1	4678	233009.127285058904	31.464211707958
1	4692	233712.186072331107	0
1	4726	235348.472554457151	208.83388695839
1	4735	236016.266709154267	0
1	4752	236609.73326709949	242.70070159955
1	4766	236913.810556404074	197.60835221596
1	4780	237497.42030185029	30.814626015628
1	4820	240032.536250084218	55.621434163892
1	4848	241048.379822012805	93.022487223648
1	4861	241628.163402423618	0
1	4870	241919.04875730251	241.82226382487
1	4879	242656.268960120501	0
1	4896	244270.178682481885	0
1	4905	244579.005793556852	0
1	4930	245563.371994278301	282.88505353979
1	4941	245844.166932738843	160.48602582397
1	4955	246350.412595975532	206.00920006643
1	4964	247094.334999702077	0
1	4997	248524.089091472234	237.3850875594
1	5006	248821.60142250327	43.055995124525
1	5014	249179.506646574283	0
1	5023	249454.517740963371	0
1	5048	250553.479545444588	0
1	5065	251154.821485432441	51.403341565024
1	5082	252212.403383263845	0
1	5090	252710.556609148376	0
1	5114	253045.514429758448	128.38299502089
1	5119	253347.500942455755	351.13310828247
1	5166	255483.624076674204	284.79167195486
1	5182	256156.041085811056	188.23875263007
1	5191	256433.731528464851	35.313152358145
1	5205	256710.351588569771	226.9750835933
1	5213	257001.76886464782	367.36866654801
1	5233	257605.720864469026	304.18630496238
1	5238	257879.593147272846	491.94052387402
1	5252	258445.23433742698	255.393172507
1	5277	259448.759190004219	190.41548393943
1	5282	259688.973557144789	331.90052487147
1	5297	260036.035651183542	211.28590798041
1	5305	260293.953028627223	41.805075763502
1	5322	260905.58180401244	158.01430891355
1	5375	263584.295441051516	0
1	5414	264746.582603886341	7.519140665813
1	5444	267774.131250878303	96.489775640464
1	5453	268882.401017606787	0
1	5476	269532.778704931591	245.99535256568
1	5484	269829.742186120106	354.47269343235
1	5490	270147.057873849813	646.21286157175
1	5501	270444.237217034751	663.91010775236
1	5506	270763.380749740958	520.8451921686
1	5515	271035.213817693263	665.84690539432
1	5523	271372.306285377998	339.24362143486
1	5534	271689.130821827644	503.54805212438
1	5543	272046.265427188389	456.01015261231
1	5548	272334.207421807187	491.56187975534
1	5562	273115.627518048049	0
1	5582	273686.528146813353	38.775693462385
1	5616	274641.683125838016	29.92656376036
1	5668	276761.127182773341	72.931541206708
1	5696	277865.805776143438	221.00607517971
1	5721	279023.484788307619	189.14198974498
1	5729	279374.650820544816	0
1	5738	279657.487515605325	275.74865697761
1	5747	280293.358992873327	0
1	5788	283076.04289126831	89.691846499984
1	5799	283371.01865325431	110.17844746358
1	5804	283608.395342512283	246.53055139257
1	5813	283883.347986118516	174.2796725207
1	5840	285209.830789359423	38.960631228682
1	5849	285698.873146106707	0
1	5858	286801.490092224997	0
1	5900	288244.254965624962	205.7362139263
1	5909	289020.644613763875	0
1	5917	289325.692123802439	120.41061553439
1	5928	289691.100653361242	298.28017124025
1	5940	289992.070752092076	136.78599029619
1	5954	290627.924332914828	194.9927127474
1	5976	291496.186887273711	212.32346503889
1	5993	292494.173256744366	0
1	6007	292828.505862444356	172.6184511416
1	6051	294647.655751074389	247.99369811819
1	6069	296017.34435771976	0
1	6096	298305.494214567882	0
1	6115	298888.228288329052	234.58368564772
1	6127	299208.485184207252	406.65287012548
1	6135	299556.223335555128	415.02206595995
1	6140	299861.49897732701	661.19682127064
1	6146	300173.214362800322	767.43602545043
1	6163	300928.959415134505	0
1	6183	302563.212719821239	260.95798981042
1	6192	302888.084928176589	470.79228303195
1	6206	303124.537110667043	169.73455071544
1	6245	304583.969749613181	63.728932803009
1	6256	304899.671557450306	360.82350908012
1	6262	305207.48868986462	324.52933902491
1	6297	306762.491219378444	139.81892207416
1	6317	307268.826025587489	13.868335686848
1	6322	307594.696129575341	334.75426201332
1	6331	307899.181778388574	294.08576805767
1	6366	310357.190615462487	0
1	6408	312133.1573964069	45.046413353306
1	6417	313461.002661683984	0
1	6434	314263.639219620805	0
1	6443	314604.828416635918	202.33388060309
1	6461	316499.651855190329	138.57850284777
1	6478	317425.110100598913	15.726042615077
1	6486	317729.170512664102	268.77200977484
1	6503	318362.694656264107	42.305409745359
1	6520	319207.491152775123	158.38448531309
1	6528	319534.304544965482	71.508033320457
1	6575	322665.857693548365	59.589922687583
1	6583	322994.975313290602	164.79606923327
1	6592	323303.49082942453	35.392594446203
1	6614	324409.438619886786	0
1	6623	324965.844300059379	0
1	6631	325276.500132290127	214.8960419566
1	6640	325749.418097760977	0
1	6657	326940.867085726112	0
1	6682	327939.12817656702	301.51241704237
1	6702	328471.121378837272	223.26561374939
1	6715	329101.586996649329	269.64491299923
1	6740	329909.875878242126	33.508919775558
1	6749	330266.145957966858	0
1	6757	330540.66148468943	90.806830752146
1	6771	330854.409967225421	293.00934743112
1	6777	331162.428083994646	358.67722076406
1	6791	331744.273838650681	182.55640816384
1	6842	334431.471305751142	246.75091630093
1	6865	334728.467900419299	232.10580608119
1	6873	335046.619366626301	469.26469654186
1	6879	335390.729742065607	739.84220531569
1	6887	335674.99794887456	931.84580113114
1	6898	335929.865574568051	415.92798250505
1	6904	336214.006261748281	475.51855189333
1	6912	336467.436771637716	78.458155040307
1	6934	337382.274212302142	269.5542440626
1	6976	339213.009151745469	231.75117265961
1	7034	341907.479366281142	0
1	7043	342185.856827880648	125.22516622423
1	7051	342493.59222141032	6.511871133715
1	7062	342831.367247670913	324.65125912954
1	7078	344669.963768210938	0
1	7086	345153.008900599985	0
1	7103	346163.29630481756	64.234149765079
1	7115	346442.489066118367	245.88069544108
1	7126	346747.44984543519	470.87314834012
1	7148	347530.285549927723	177.68439677946
1	7162	348408.724223373807	0
1	7170	348711.532118085796	58.163974784117
1	7230	352058.376512636815	0
1	7239	352653.046389637474	0
1	7266	355289.813969845982	0
1	7286	356337.980622096841	193.51791040024
1	7292	356665.810807509554	400.37971743993
1	7309	357997.848285329855	0
1	7327	359980.724117018696	0
1	7363	362918.591665609526	0
1	7371	363233.642193796139	283.80612138979
1	7383	363589.907174721933	10.755047542274
1	7397	364588.026464145923	0
1	7405	364902.039998181424	75.348269112906
1	7414	365654.58451401259	0
1	7435	367038.738991993874	241.62898276198
1	7460	367963.266784274859	194.64676140635
1	7482	368936.741117096356	0
1	7499	369924.308966774717	0
1	7507	370263.382328061943	167.88159621368
1	7525	371306.491807007175	0
1	7533	371594.109843124047	163.27139849539
1	7567	373687.813419550266	197.28651329429
1	7593	375318.159698269308	158.58713172737
1	7602	375656.611334362625	324.25872752931
1	7610	376183.777417787384	0
1	7622	376465.601122788617	62.375250251726
1	7633	376817.259506255692	114.53864689756
1	7639	377153.043920128755	381.34795116103
1	7660	377996.232920228788	258.93922595547
1	7669	378337.6923453581	171.73697623512
1	7678	379035.727446660246	0
1	7686	379310.572156260233	138.01740768296
1	7697	379603.362725429762	203.09797699519
1	7725	380418.470097476715	241.67542307591
1	7737	380756.33377455278	4.108386955128
1	7745	381049.535847579639	242.79043266819
1	7765	381617.683076930813	254.01687708405
1	7773	381877.632529871871	71.980481465532
1	7870	386148.55921916735	0
1	7889	388349.290418558691	0
1	7897	388633.88816466242	255.19644750032
1	7908	388958.296458419854	221.61473976078
1	7914	389295.233579236163	401.85759851044
1	7923	390073.800368011579	0
1	7937	390402.216571702737	239.28497642928
1	7945	390743.59837405666	516.80162639276
1	7951	391019.952945946977	328.83258326391
1	7959	391341.297567356486	228.30034150999
1	7973	392037.356342080881	0
1	7993	392645.104838387128	24.279164979235
1	8031	394158.177592343949	117.04534617503
1	8051	394968.19496753076	89.665760162835
1	8071	395613.055062871129	34.918561765067
1	8096	396447.41628613362	297.98226711571
1	8132	398374.66867784644	184.65213386976
1	8141	399113.538903042419	0
1	8167	400311.591859006727	34.369135644185
1	8175	400595.123148923876	271.71648938732
1	8183	400937.73598219808	0
1	8192	401549.348932489724	0
1	8200	401840.496006088164	269.92413628397
1	8209	402458.439100014172	0
1	8234	403463.264221480623	0
1	8243	403964.510958843147	0
1	8260	404645.289745487255	48.976489634927
1	8310	406336.156750256286	0
1	8327	407710.376918133144	0
1	8353	408867.50295957052	1.995925822625
1	8361	409404.61783837013	0
1	8378	410253.491194703819	0
1	8396	411952.859217173991	230.74822132847
1	8417	413283.660149473947	136.1850278782
1	8431	414353.663296253882	0
1	8451	415162.182442507782	250.25765965132
1	8456	415442.284507802345	442.62080802897
1	8473	415716.600759214609	160.02678877286
1	8479	416015.633130089636	429.51946238184
1	8484	416295.992983234023	627.18424568109
1	8499	417506.48793091573	0
1	8516	418659.47569889146	0
1	8533	418961.758732482167	152.80052399337
1	8584	421766.243089374362	0
1	8600	422413.676689749724	46.261381385907
1	8623	423078.894288034266	268.66729859185
1	8628	423341.744125420649	455.32931940109
1	8644	425644.077741990258	0
1	8655	425927.763692172233	161.44016285355
1	8664	426190.765770753211	67.666882536626
1	8686	427153.308958856915	59.071765073481
1	8706	427468.496886922427	245.27797711847
1	8715	427745.677180196937	419.35418069653
1	8720	428073.010952202588	744.72976842756
1	8725	428443.444090240489	716.36534478586
1	8734	428746.557392645671	277.28680567559
1	8759	429496.50172690482	233.99882738752
1	8767	429798.758125434757	32.496842424256
1	8795	431334.283288055172	0
1	8812	431627.511663231441	242.61172082199
1	8820	431846.48749487481	373.32661642231
1	8832	432198.562330913966	603.96696049812
1	8843	432475.399819039302	153.71083563609
1	8854	432743.5887357048	194.98606981839
1	8879	433696.077116224556	238.06214359589
1	8888	434038.891559017308	481.48584147286
1	8896	434318.072023600085	71.20784312898
1	8971	437459.020077435243	56.576578684981
1	8982	437774.081480617167	264.2104497289
1	9018	439317.423769630173	28.467654467712
1	9037	440288.270375328026	38.434258562785
1	9047	441543.0419306908	0
1	9061	441808.843902525666	238.06243713381
1	9083	442762.079673843135	265.54542272153
1	9105	443973.809768819699	157.20948209871
1	9132	445962.48267132365	30.146534063238
1	9149	447099.533107144066	0
1	9157	447402.024267414992	228.75824138203
1	9166	447727.415853595746	144.20988454097
1	9183	448475.325819059774	0
1	9192	449555.509714433358	0
1	9209	450497.570085994599	0
1	9226	451322.045198916288	0
1	9240	451632.63863325152	252.77780723647
1	9249	451952.889438048265	11.232999692576
1	9262	452521.391731877639	99.943749614009
1	9274	452819.388296418878	201.01831975468
1	9328	456359.896829739735	0
1	9376	462948.258838133165	0
1	9384	463235.031346308082	100.30688036731
1	9394	465364.802608435681	0
1	9404	466826.884784014011	0
1	9431	469122.802184492994	0
1	9439	469653.25956357866	0
1	9451	469940.739132804341	254.75818676825
1	9459	470243.83041771698	167.31079263919
1	9482	472161.959836898788	0
1	9500	473416.43541805802	233.28853176525
1	9528	474273.086137190072	179.20513387248
1	9533	474550.645905630777	413.19611576426
1	9560	476771.60160749691	0
1	9586	478471.386033364747	0
1	9603	479326.389724571954	254.46371146527
1	9621	480934.355660100423	0
1	9650	483355.697771441909	277.69850312226
1	9656	483670.267037839892	580.97260653201
1	9665	484388.422842573242	0
1	9681	485123.482349959756	0
1	9690	485544.247620749736	0
1	9699	486100.767644274996	0
1	9708	486972.269634910025	0
1	9733	488017.717259362029	0
1	9741	488333.564577926785	87.948910408779
1	9753	488590.86418362438	209.48250881073
1	9766	489191.202270792083	262.58456594502
1	9783	489775.995804101623	137.21759196671
1	9808	490764.660687225166	0
1	9819	491037.776000228344	266.51591789998
1	9833	491963.070868271714	0
1	9865	493025.110476991174	277.22448726591
1	9873	493364.850943613969	147.0025684699
1	9918	495554.01444063392	0
1	9953	498169.272155959299	0
1	9961	498760.87153496686	0
1	9980	500981.324429934685	0
1	9989	501534.813524586065	0
1	10005	502061.688795702868	129.15256664017
1	10024	504491.827934775935	0
1	10050	505984.769963988829	0
1	10068	508080.089542259719	0
1	10077	508913.425437568903	0
1	10094	509531.821639188345	97.266084361035
1	10111	510767.480882457563	0
1	10147	513732.86576598225	123.34583878289
1	10156	514539.983327810036	0
1	10173	515168.566817815133	16.559003389704
1	10181	515844.438189228521	0
1	10199	517346.962090318995	221.17909779767
1	10207	517690.286556539037	327.09507511996
1	10216	517972.898707943874	195.58109332779
1	10224	518264.725656239686	205.80244875278
1	10233	518629.107295710853	273.23547219196
1	10252	519243.70531601487	74.745079302054
1	10275	520578.672736886241	0
1	10283	520871.640498241299	92.00993132336
1	10311	521856.429065838992	202.45383464018
1	10323	522157.202658884648	238.2164921216
1	10331	522441.986718692102	22.320183033295
1	10359	523372.084744280926	36.923800325392
1	10364	523720.034340092677	381.33475576299
1	10392	524781.380691762919	73.907561081433
1	10417	525988.122078755063	0
1	10454	527301.720112863752	211.61299406803
1	10459	527596.811403146299	460.7030332544
1	10476	528273.915653344346	0
1	10484	528627.037836464369	0
1	10502	529763.986211494376	0
1	10510	530020.560618462356	145.81302631635
1	10526	530573.569124344155	46.975867023993
1	10535	530936.916374538933	191.11658309944
1	10555	531574.155646833983	79.722961136768
1	10563	531935.087654946202	127.8202147762
1	10583	532598.190538488285	259.69660673403
1	10654	536847.564158025615	0
1	10671	538221.405068510992	0
1	10680	538492.085566193508	151.10734699595
1	10688	538776.862056304858	157.68487029167
1	10698	540765.540669450018	0
1	10707	541098.396553329054	0
1	10723	541688.386857121698	151.15900228664
1	10735	542061.5773164773	50.445873576704
1	10746	542325.325758834753	299.61909004826
1	10752	542586.160707439608	310.46883033123
1	10763	542828.351919507759	140.23194125826
1	10782	543718.514797229846	67.826722894763
1	10807	544904.646713151248	0
1	10835	545929.107940794999	164.59880722427
1	10883	548130.74129284254	0
1	10900	548957.150006316691	21.759084300658
1	10918	550775.804577412875	0
1	10926	551133.514556499022	0
1	10944	552125.2671788806	0
1	10955	552404.335813353839	235.38371656636
1	10969	553052.292269316587	0
1	10977	553507.582938069326	0
1	10989	553827.58585234251	240.73546070731
1	10994	554099.611821811135	336.80909351747
1	11005	554369.793522112168	123.88622043399
1	11014	554728.426559416607	461.61584480669
1	11030	555305.43029650363	245.17683099606
1	11061	556823.587062518525	180.30312273794
1	11098	558146.499105865836	71.968059395172
1	11137	560235.052414180445	0
1	11149	560587.378297226895	182.76068878341
1	11172	562394.160312741486	0
1	11180	562953.421911902475	0
1	11189	563282.746356740125	196.99937455961
1	11197	563620.192012921303	150.90743712113
1	11205	563955.656412366919	94.393604045132
1	11222	564666.048654289305	173.51301401903
1	11239	565298.347467573377	77.549199072268
1	11248	565865.87803341451	0
1	11267	566458.20427044601	277.47955876054
1	11273	566708.247547770353	481.26743192468
1	11338	569493.790031731358	251.45678480667
1	11343	569765.530915872682	374.93804539229
1	11368	570655.201351521417	103.6407142201
1	11377	570955.545207135743	362.33303905513
1	11391	571790.738528419032	0
1	11399	572383.052022182594	0
1	11408	572938.339003878275	0
1	11428	573828.028261475512	19.334443787231
1	11436	574114.884073850827	88.96774269097
1	11456	574644.145981345386	115.14101473943
1	11475	575842.953701817738	0
1	11510	577960.014299626741	0
1	11529	578462.752513344701	209.26899389808
1	11560	579666.286230279373	216.66476247768
1	11568	580085.934829073895	0
1	11577	580734.289722342043	0
1	11612	583567.35978136019	0
1	11630	584786.283575417886	0
1	11647	585446.051171132056	247.02108976821
1	11655	586033.767579947161	0
1	11665	587269.828083032853	0
1	11676	587624.814808129598	91.497593971361
1	11687	587948.043776955222	210.01764774009
1	11693	588237.952627922648	472.50585340957
1	11709	588847.222722411499	235.27672767816
1	11732	589751.324437834835	156.01710698561
1	11749	591414.947314557266	0
1	11786	592538.106284158295	171.64446598967
1	11808	593539.559837328278	0
1	11826	595394.130428495443	0
1	11840	595676.518558529026	189.3385671406
1	11849	595959.912896512827	173.22646788633
1	11868	596870.891827288753	27.130404496826
1	11884	597437.098469761429	0
1	11894	598687.989485915107	0
1	11914	599402.588824775738	61.149973114506
1	11936	600305.054741239093	299.93764587235
1	11953	600934.28745856933	28.4181221134
1	11964	601294.180702576847	343.35175458238
1	11969	601586.065646814396	406.80235367617
1	11986	602342.977269116963	0
1	12030	605559.330962517017	243.23996142581
1	12064	607654.385415545377	0
1	12073	608173.858307387013	0
1	12082	608802.214287657653	0
1	12100	610361.194884104106	0
1	12108	610895.753723730155	0
1	12134	612722.104665229161	0
1	12151	613555.224273579509	0
1	12160	613817.24853784578	56.894546968054
1	12168	614253.504861881295	0
1	12188	614826.589223784759	232.75526226421
1	12201	615403.14127984303	176.29656157355
1	12210	616146.217836589502	0
1	12230	617061.595808201373	158.4168245377
1	12253	618250.225162416269	0
1	12296	620857.206477795735	0
1	12316	621489.956559770584	263.75076145092
1	12324	621817.713332213038	338.92088395218
1	12338	622386.839209199573	279.37996626828
1	12346	622676.26802136896	51.910801350872
1	12355	623284.713166597786	0
1	12363	623593.946722972498	202.27316286969
1	12371	624003.983749770949	0
1	12380	624308.604890570204	206.81828881402
1	12394	624610.940086503769	283.59491278517
1	12412	624953.42012494789	370.87108085891
1	12417	625233.314286712241	478.46669735738
1	12431	625533.422202674007	774.32419650951
1	12440	625876.589122435778	1062.454798342
1	12448	626181.1401951035	1312.8359829092
1	12453	626473.983883615402	1189.3737459036
1	12459	626762.935687590346	1102.7904684592
1	12475	627319.663907208403	194.32900491362
1	12576	630654.71218644597	172.42126078349
1	12582	630919.248839332153	393.06479905205
1	12595	631499.416216664801	131.2047947373
1	12665	635831.278426523917	242.462233386
1	12674	636185.819424990326	33.342968395604
1	12688	636509.629834958497	302.64662257004
1	12693	636826.176814625409	580.70163720321
1	12702	637117.628149906493	832.94063246253
1	12707	637420.375255980168	367.09802804802
1	12715	637713.60291013428	19.261306176121
1	12725	638893.457991856151	0
1	12733	639209.740033938335	201.0149645536
1	12742	639489.238115145218	0
1	12773	640455.103495322541	164.25846051244
1	12784	640778.347631475259	479.02645217003
1	12792	641085.878341163942	598.52287461456
1	12809	641667.872964801876	26.466882450483
1	12834	642589.346257377082	164.45825550525
1	12848	643171.146071098368	7.273716447086
1	12890	644645.474798039469	265.27958736659
1	12901	644954.736044917791	493.79279790852
1	12906	645201.284742791275	431.85337834173
1	12926	645763.538660838717	124.02407145448
1	12951	646599.642185925895	79.116861677355
1	12965	647238.752646759208	197.60973929759
1	13027	650681.451603694953	75.929659324833
1	13044	651739.372290551581	313.32097436174
1	13052	652050.814095219506	232.48594220466
1	13061	652345.217809801164	0
1	13069	652766.165649633613	0
1	13079	654243.858341707944	0
1	13104	655649.462123519495	0
1	13113	655928.106420242891	258.68512912189
1	13124	656172.694653992368	198.14198528424
1	13149	657051.518318625169	82.175603413343
1	13157	657390.390853847246	257.05131398705
1	13215	661284.232790483133	269.23235584208
1	13235	661859.075642083617	200.37834359212
1	13243	662154.658756506072	321.88669516925
1	13248	662442.04337549897	494.98569610619
1	13257	662757.605440186849	151.17086636889
1	13265	663436.311801182457	0
1	13275	664463.168594476336	0
1	13283	664738.267055162021	100.65622069234
1	13292	665605.370001347031	0
1	13303	665846.136228994236	19.500268913013
1	13359	668138.294073388613	142.03160301208
1	13385	668740.544471648234	166.59806597017
1	13396	669034.098491404586	417.67083086912
1	13401	669336.295643091074	719.19649115705
1	13407	669643.571012426863	833.79074496511
1	13418	669947.641486883234	150.99300539729
1	13478	673557.992583815074	69.199253752492
1	13484	673810.577255183031	313.55724455123
1	13511	675003.537397023053	44.663955385113
1	13520	676009.025217212238	0
1	13547	678272.293123182157	0
1	13573	680200.478535935508	176.49659832712
1	13581	680502.170269125044	199.18443353469
1	13590	681433.353347286314	0
1	13599	681802.596944929848	0
1	13617	683735.447123073604	0
1	13634	684332.950336920412	112.46224579647
1	13651	685057.291528905866	216.68085596572
1	13662	685363.20540247449	157.98030439491
1	13673	685629.59322899668	247.54908002636
1	13702	687749.351658106757	0
1	13745	690708.240750838325	0
1	13765	693752.4635882376	0
1	13776	694061.918537306282	259.72875711664
1	13782	694379.80779613691	489.27025929701
1	13799	695318.132407056019	0
1	13808	696253.133861921941	0
1	13817	697425.518655319674	0
1	13842	698469.394380483237	127.09295284711
1	13867	699332.24929891157	89.706293546821
1	13877	700463.016181524013	0
1	13902	701691.864123031856	0
1	13911	702292.925248115958	0
1	13922	702588.255228757072	76.56831166271
1	13931	702946.086060938715	287.09892342347
1	13956	703813.294130714943	265.34086534452
1	13961	704124.964038266249	564.08952055798
1	13978	704743.392663516407	152.11378401647
1	13995	705808.614541945582	204.21702021007
1	14023	706822.463313375391	171.64418422839
1	14063	709509.268949736	81.094568204894
1	14080	710239.680057687819	169.84030171591
1	14098	711566.682684044725	0
1	14106	712039.70034525021	0
1	14115	712874.674538019171	0
1	14124	713198.918401971482	13.490663681922
1	14140	713866.711828792449	143.56559329179
1	14152	714171.828495120465	38.50222050245
1	14165	714855.539832966672	0
1	14177	715146.079358685728	32.386470411738
1	14193	715715.293747826694	240.57431128682
1	14207	716287.727369509576	201.44448165143
1	14215	716582.131103055808	114.39294350651
1	14235	717168.627137906664	90.356349452198
1	14260	718069.833369420024	274.26071908975
1	14269	718347.853746079716	178.11205053844
1	14294	719257.752774063631	75.972843054982
1	14332	720729.025190414471	165.1028148703
1	14344	721051.357596047778	236.82092797438
1	14352	721345.115389294629	74.149496208957
1	14377	722557.368724926564	126.31168807512
1	14391	723150.212353250549	30.968406293577
1	14400	723447.616312542833	75.467256368979
1	14408	723783.582407882199	121.8644395969
1	14425	724607.338353316394	0
1	14459	726237.992731984309	272.08686994941
1	14475	726858.690257199143	0
1	14504	727772.540963206458	240.18173307583
1	14517	728404.004006924227	22.632756413937
1	14526	728713.987941379488	212.23424157883
1	14578	732444.154250860924	0
1	14595	733526.614839921833	0
1	14606	736083.75900074834	0
1	14632	737756.095730541541	208.86936590339
1	14641	738062.877091625253	124.49095780881
1	14650	739028.608331529995	0
1	14658	739317.218163111151	220.43559051906
1	14676	741379.937457966592	0
1	14702	742462.068098938744	0
1	14721	742977.119310499376	3.331104419757
1	14738	743541.86264175825	276.59034930412
1	14743	743837.30232836985	363.73256561079
1	14755	744180.552792764666	120.91896352093
1	14760	744462.12555642644	305.52002052291
1	14769	744951.305735160257	0
1	14794	746300.740439289645	0
1	14840	748855.142758617596	135.88288581112
1	14862	749852.263406693166	0
1	14877	750185.392705584424	219.20654890931
1	14882	750472.918151996243	456.99173492985
1	14896	751089.265323946268	0
1	14905	752210.111467643497	0
1	14922	753165.538004952497	0
1	14930	753414.070007517626	220.15225805123
1	14939	753719.793682130954	164.41353266071
1	14975	754890.7491726545	269.26342364907
1	14989	755472.313989332893	95.654462411494
1	14997	755735.433915575186	222.93004069918
1	15014	756329.260628632172	289.50639237278
1	15022	756677.637021342428	146.48641095542
1	15047	757574.216344466076	91.789116695257
1	15059	757887.202898908518	30.613919814847
1	15075	758491.888189840681	199.00256176488
1	15081	758777.957594467268	311.40454883547
1	15115	760159.602845987295	183.92215180642
1	15129	760716.327322687867	109.85985958716
1	15143	761312.89663623512	127.48224434845
1	15182	763159.985525547596	0
1	15199	764249.268399390002	0
1	15210	764524.173894937621	87.075881997356
1	15225	764838.351304451476	137.66157882519
1	15236	765171.014349735768	46.293092879702
1	15245	765487.902229408267	346.88891320794
1	15250	765766.105971090305	531.46401182775
1	15258	766087.105260749642	182.49576082803
1	15300	768078.701433713504	0
1	15325	768606.576718635561	258.6907984558
1	15330	768868.981803769914	477.40645197057
1	15342	769170.548649381601	283.39391879805
1	15353	769488.256449965798	490.26285707728
1	15365	769751.912418936821	481.46542742206
1	15373	770063.34830201594	568.57905960307
1	15384	770381.273328070555	677.56700525268
1	15390	770719.435727303175	632.39367228191
1	15403	771294.569246451531	148.34302440703
1	15469	773914.363324291579	119.89542074441
1	15536	778492.136797280957	0
1	15545	779602.736829699422	0
1	15556	781964.010273127145	0
1	15564	782305.138730580864	0
1	15584	782947.016346557612	299.73468617936
1	15589	783270.949838759957	331.873094201
1	15606	784031.957380821958	0
1	15618	784330.474765449899	188.65396026285
1	15623	784653.910242190839	409.94615762974
1	15631	784929.519674320545	250.21110382726
1	15640	785433.996257110089	0
1	15677	787125.09832115351	22.509754234346
1	15717	788911.729942219269	2.042955521145
1	15742	790317.451328813354	0
1	15761	793025.098424811217	0
1	15769	793335.599796293052	192.18954197688
1	15795	795386.62922244911	0
1	15823	798118.637743746908	0
1	15831	798403.559931901111	265.81346004639
1	15840	799412.987105965568	0
1	15857	800299.563648510866	0
1	15866	800970.11295700036	0
1	15875	801939.66546803598	0
1	15895	802639.09705404293	58.271377939033
1	15903	802960.537829755391	47.183229017506
1	15952	806052.466529078368	0
1	15977	807391.26224310462	105.5236238159
1	15986	807675.358859262908	39.971455248415
1	15995	808421.213692105145	0
1	16003	808802.914931418087	0
1	16012	809260.125418465343	0
1	16029	810576.560090876283	0
1	16041	810900.16923721761	63.501756213902
1	16052	811237.13750492035	272.93228299772
1	16063	811544.524796281115	66.775383355372
1	16075	811828.818961577825	338.24279793812
1	16080	812113.350451987353	410.48666647496
1	16121	814000.798031680633	221.78242500214
1	16130	814542.563207058	0
1	16141	814845.356799275807	279.48600755179
1	16169	815652.71589142345	2.457062079302
1	16180	815945.872580641955	268.30790255697
1	16192	816261.026462437038	506.97679379452
1	16200	816591.517463288557	360.55072808445
1	16233	818013.747535846414	181.11678165096
1	16255	818915.570681812395	0
[...]
7	15319	768553.646028382084	4
7	15328	768868.981803769914	5
7	15340	769170.548649381601	6
7	15347	769478.836198489754	5
7	15351	769488.256449965798	6
7	15363	769751.912418936821	7
7	15367	769987.129604032656	6
7	15371	770063.34830201594	7
7	15378	770223.481059160738	6
7	15382	770381.273328070555	7
7	15388	770719.435727303175	8
7	15393	771005.022557068392	9
7	15407	771604.250597073132	10
7	15416	772125.073365357662	9
7	15435	772815.157363875218	8
7	15438	772816.972452106232	7
7	15446	773083.912431880375	6
7	15455	773483.210538989018	5
7	15471	773989.689691855636	4
7	15475	774079.200222778842	3
7	15479	774183.976070666232	4
7	15483	774365.469379058487	3
7	15486	774423.915783792353	2
7	15505	775265.759200914684	1
7	15524	777922.54353701104	0
7	15539	778761.89667311539	1
7	15548	779945.576868426509	2
7	15559	782248.666220205029	3
7	15566	782393.127718278127	2
7	15571	782594.927397357127	3
7	15587	783270.949838759957	4
7	15592	783481.567497077439	3
7	15596	783565.021260904963	4
7	15616	784330.474765449899	5
7	15621	784653.910242190839	6
7	15629	784929.519674320545	7
7	15635	785199.108937450813	8
7	15642	785549.194849904459	7
7	15645	785722.7513736052	6
7	15649	785730.746859972503	7
7	15662	786831.941106365142	6
7	15668	786951.046043203404	5
7	15680	787428.740686370941	6
7	15688	788332.504193226549	5
7	15693	788450.746603078252	4
7	15696	788514.516386971228	3
7	15705	788743.33220829857	2
7	15711	788911.695202651327	1
7	15720	789231.528101368251	2
7	15745	790618.807729734137	3
7	15748	791518.519061097464	2
7	15767	793335.599796293052	3
7	15771	793364.607764820107	2
7	15774	793592.538754213486	1
7	15778	793642.604655858355	2
7	15799	795655.560676675634	3
7	15802	796954.653218679429	2
7	15811	797310.278298674505	1
7	15829	798403.559931901111	2
7	15834	798705.464278800655	3
7	15842	799592.263151032074	2
7	15846	799686.717106396993	3
7	15861	800588.617970138634	4
7	15869	801297.81683126965	5
7	15877	802218.983765004955	4
7	15881	802299.290119826186	5
7	15886	802515.882086217409	4
7	15901	802960.537829755391	5
7	15907	803213.846419889504	6
7	15911	803263.508444342518	5
7	15919	803519.641957209828	4
7	15932	805109.520403989515	3
7	15940	805530.694266726714	2
7	15955	806368.844938630292	3
7	15958	806774.321542578695	2
7	15963	806927.441714175399	1
7	15984	807675.358859262908	2
7	15989	807967.573942303191	3
7	15998	808685.568727356645	4
7	16006	809128.248103672061	5
7	16014	809492.925980020912	4
7	16018	809614.610300064297	5
7	16035	810881.598267305589	4
7	16039	810900.16923721761	5
7	16046	810965.280034870755	4
7	16050	811237.13750492035	5
7	16061	811544.524796281115	6
7	16068	811711.938490320291	5
7	16073	811828.818961577825	6
7	16078	812113.350451987353	7
7	16083	812417.12461087712	8
7	16093	812845.254066449277	7
7	16106	813397.440788821179	6
7	16125	814310.107455717888	7
7	16135	814601.523037041281	6
7	16139	814845.356799275807	7
7	16143	815102.719937627215	6
7	16147	815103.800923701647	7
7	16152	815170.750703378396	6
7	16160	815401.708935831451	5
7	16178	815945.872580641955	6
7	16182	815960.667854269263	5
7	16190	816261.026462437038	6
7	16194	816306.924058255129	5
7	16198	816591.517463288557	6
7	16203	816860.533500296368	7
7	16224	817831.075462055926	6
7	16236	818314.939509683522	7
7	16240	818347.040207191219	6
7	16257	819049.601943046298	5
7	16261	819199.253906820311	6
7	16265	819368.271222556627	5
7	16274	819595.685342749715	4
7	16280	819715.739831063228	3
7	16291	819811.13559541378	2
7	16295	820011.1890837228	3
7	16301	820353.724364808338	4
7	16314	820980.249845936151	5
7	16338	821841.180850073722	4
7	16342	821985.019623465374	5
7	16347	822265.116574927399	4
7	16351	822345.765596919472	5
7	16356	822712.415358278307	6
7	16370	824027.941550723023	5
7	16375	824037.490530567064	4
7	16386	824546.369624320495	3
7	16394	824724.148158539496	4
7	16399	825013.942180704918	5
7	16420	825735.340925666692	4
7	16423	825802.586867661476	3
7	16427	825908.011767482766	4
7	16431	826030.684161585092	3
7	16438	826205.922611955558	4
7	16447	826528.70184906174	5
7	16455	826823.559708531064	6
7	16460	827131.37831610373	7
7	16479	828414.499155283527	6
7	16488	828953.260159769661	5
7	16496	829686.172277073137	4
7	16505	830258.463020074942	3
7	16519	830667.612297462226	2
7	16522	830754.635979074582	1
7	16525	830789.504430268575	0
7	16529	830848.617723977511	1
7	16542	831432.827122631337	2
7	16559	831950.563795285579	3
7	16564	832282.41846550662	4
7	16581	832938.538056616745	5
7	16590	833303.957821304735	6
7	16595	833627.289664238892	7
7	16603	834794.764779161131	6
7	16606	834867.001170503755	5
7	16610	834870.769291045466	6
7	16620	835364.79571848011	5
7	16637	836118.162319432095	4
7	16641	836140.108136234564	5
7	16648	836536.052881048136	4
7	16654	836814.191212607914	3
7	16662	837026.482102788198	2
7	16674	837394.826714675141	3
7	16683	838490.359204614953	2
7	16703	839060.976876003009	3
7	16712	839354.64813255523	4
7	16717	839682.618712930787	5
7	16721	839860.44476124642	4
7	16725	840004.034510553874	5
7	16733	840833.915989019369	4
7	16744	842644.243307306885	3
7	16752	843042.45489748783	2
7	16757	843267.163746179629	1
7	16774	843830.073619343877	0
7	16781	844013.998536704472	1
7	16787	844354.839748182053	2
7	16806	845010.500522358713	3
7	16812	845235.760242792061	4
7	16817	845523.278111393266	5
7	16826	846710.335173156096	6
7	16829	847452.440271307766	5
7	16843	847981.208582604138	4
7	16847	848297.715087550429	5
7	16861	848595.725786445307	4
7	16870	848930.33668628525	5
7	16874	848952.821294894018	4
7	16884	849236.068670611671	5
7	16890	849523.075583728113	6
7	16894	849567.480627493392	5
7	16901	849821.327394364036	6
7	16909	850052.772060500222	7
7	16913	850185.068719624681	6
7	16918	850319.235414072712	7
7	16923	850626.030457399431	8
7	16941	851537.706925337811	7
7	16945	851539.450452438546	8
7	16966	852349.375213368936	7
7	16970	852414.240667808584	8
7	16974	852595.472690435382	7
7	16978	852732.404566104426	8
7	16983	852998.561879112201	7
7	16991	853062.716874324607	6
7	16994	853095.077885139938	5
7	17018	854302.197930305075	4
7	17021	854401.830170998618	3
7	17035	854934.016345852584	2
7	17052	856018.289758366419	1
7	17055	856249.70202227544	0
7	17060	856310.757449493396	1
7	17079	857852.349654742073	2
7	17088	858478.73559721406	3
7	17096	858836.370533524122	4
7	17099	859483.051364216498	3
7	17117	860492.645761199627	4
7	17123	860770.624812214521	5
7	17134	861080.264208385831	6
7	17139	861302.701823322108	7
7	17147	861864.575911318366	6
7	17150	861891.690492706103	5
7	17154	861971.009524213551	6
7	17164	862443.02632303517	5
7	17182	863253.068357882857	6
7	17192	863843.824751426741	5
7	17196	864006.096363151003	6
7	17201	864173.267572336451	5
7	17205	864290.77034291933	6
7	17209	864358.616272501979	5
7	17231	865373.965847975415	4
7	17235	865617.641638371841	5
7	17240	865733.901666333631	4
7	17252	867047.498843737121	3
7	17257	867211.566448567239	2
7	17269	868091.013097016404	1
7	17287	868657.341714160942	2
7	17295	868938.453145703925	3
7	17304	869247.15023263518	4
7	17309	869541.464913308907	5
7	17311	869694.993672906462	4
7	17326	870873.335688297835	5
7	17335	871777.538179105929	4
7	17339	871908.594197123219	5
7	17346	872371.161770059572	4
7	17351	872571.561033159257	3
7	17368	873033.304722005789	2
7	17375	873314.114180718115	3
7	17381	873608.552056645373	4
7	17388	874249.193385820438	3
7	17407	875245.437870883141	4
7	17412	875507.287599213894	5
7	17419	875697.748983823997	4
7	17423	875917.343124032434	5
7	17437	876500.244301570427	6
7	17445	876996.530919885711	5
7	17449	877000.603866863776	6
7	17456	877345.969517669928	5
7	17474	878333.327938671554	6
7	17478	878519.458506283752	5
7	17483	878652.540443141249	6
7	17499	879135.460338602052	7
7	17504	879419.261133553581	8
7	17507	879806.498007244503	7
7	17512	879922.247265505914	6
7	17515	879944.646748848466	5
7	17532	880832.789469575461	4
7	17547	881366.600163393546	5
7	17558	881692.348735054618	6
7	17563	882004.448306126009	7
7	17571	882624.92585191873	6
7	17575	882752.497758352601	7
7	17579	882765.924910114455	6
7	17583	882942.119813479681	5
7	17589	882975.361133752445	4
7	17598	883371.690273095338	5
7	17616	884536.18978941912	4
7	17626	885487.501783795447	3
7	17631	885747.60673437724	2
7	17643	886352.659790676806	1
7	17651	886574.723378301065	0
7	17660	886921.510025475856	1
7	17675	888679.283417452889	2
7	17687	889094.619147684749	3
7	17695	889405.435357301944	4
7	17700	889716.973986359404	5
7	17704	890644.921679234774	4
7	17718	891350.037840002054	5
7	17722	892366.049126611819	4
7	17727	892377.124822420718	3
7	17746	892956.54044678727	2
7	17753	893227.932544587609	1
7	17757	893268.56337493031	2
7	17768	893553.0051737218	3
7	17773	893831.421368203235	4
7	17779	894125.585629995439	5
7	17784	894416.943492635815	6
7	17808	895269.085638629299	5
7	17812	895453.798889029442	6
7	17818	895750.542184547809	7
7	17826	896073.712991597594	8
7	17834	896385.368121462368	9
7	17843	896695.734480984743	10
7	17847	896846.82653684859	9
7	17851	896996.178850535486	10
7	17855	897221.423353841266	9
7	17867	897548.608555189774	8
7	17875	897663.773016864078	7
7	17879	897850.535189348017	8
7	17883	898124.06636018632	7
7	17897	898603.261756380897	6
7	17911	899184.112639470467	5
7	17919	899538.774776504841	4
7	17922	899616.772050495912	3
7	17939	900339.815306090684	2
7	17947	900418.843145108419	1
7	17958	900824.931990423535	0
7	17963	900930.108965843434	1
7	17968	901220.009506236755	2
7	17990	902059.124174726649	3
7	17995	902365.935372953523	4
7	18004	902835.070615699246	5
7	18012	903239.75937340835	6
7	18021	903815.604828783099	7
7	18024	904755.09549700691	6
7	18029	904952.573229671043	5
7	18045	905371.975777471151	6
7	18049	905600.625792027744	5
7	18053	905658.854693975331	6
7	18063	906122.936038675656	5
7	18066	906135.598514050137	4
7	18079	906736.188705899239	3
7	18092	907741.698612163083	2
7	18106	908664.659240926154	1
7	18113	908774.128073279692	2
7	18121	909107.503614225099	3
7	18132	909386.080032151872	4
7	18136	909433.565684466725	3
7	18147	909682.618214162705	4
7	18155	909939.848315367761	5
7	18160	910235.443757189939	6
7	18166	910500.851696121865	7
7	18171	910821.588950748291	8
7	18184	911748.830898546555	7
7	18194	912949.285528684849	6
7	18199	912957.620121534936	5
7	18202	913057.249216350501	4
7	18205	913245.420542564735	3
7	18222	913792.768455270343	2
7	18225	913877.254412976083	1
7	18229	913911.570878691159	2
7	18238	914289.238139037384	1
7	18270	915804.512845076851	2
7	18275	916138.05263747614	3
7	18287	916588.340422479595	4
7	18292	916852.984368470282	5
7	18300	917756.489100206571	4
7	18304	917864.896661347362	5
7	18313	919565.163780263344	4
7	18318	919584.718162448397	3
7	18335	920167.61993829441	2
7	18338	920338.724628437712	1
7	18342	920473.274400042637	2
7	18356	921450.042900799541	1
7	18370	922281.457524640045	2
7	18375	924386.572645891359	1
7	18393	925290.208991271525	2
7	18404	925541.63346754177	3
7	18413	925828.92434426918	4
7	18418	926141.694135329895	5
7	18422	926397.385270931414	4
7	18426	926472.704576415997	5
7	18440	927075.197645350943	6
7	18449	927705.627347073871	7
7	18457	928235.439041274475	8
7	18469	928645.542342467071	9
7	18473	928672.425089767732	8
7	18476	928803.342049052672	7
7	18480	928929.319402857094	8
7	18484	929035.830902292901	7
7	18497	929579.145892016424	8
7	18501	929795.629519541558	7
7	18510	930056.490102341663	6
7	18523	930564.022704446171	5
7	18534	930836.510808323276	4
7	18539	931023.970651323968	5
7	18552	931627.924045334583	6
7	18565	932049.590895710686	5
7	18569	932215.797308954979	6
7	18573	932349.60102119926	5
7	18590	932904.932589244612	4
7	18593	932977.375900307635	3
7	18597	933151.807324369147	4
7	18611	933741.483405387286	5
7	18625	934733.121217436311	6
7	18627	934867.895827086986	5
7	18636	935288.346263448761	4
7	18657	936196.494699306058	5
7	18661	936274.558003027883	4
7	18668	936546.92478870746	5
7	18673	936869.747992499319	6
7	18678	937061.255777692041	5
7	18682	937155.415768044387	6
7	18686	937222.878445058613	5
7	18699	937758.870973695701	6
7	18712	938292.184050337098	7
7	18716	938364.708852020908	6
7	18729	938985.863606102329	7
7	18737	939514.685137140359	6
7	18750	939969.683929921611	5
7	18757	940093.748596147017	6
7	18762	940314.392106751974	5
7	18769	940387.792257625862	6
7	18773	940541.825582200511	5
7	18780	940703.499903242247	6
7	18788	941012.432155658912	7
7	18794	941343.134099882268	8
7	18798	941427.800638575332	7
7	18806	941729.65697226916	6
7	18824	942593.437086654086	7
7	18828	942621.02260335786	6
7	18842	943410.757955182526	5
7	18854	943862.074940440736	4
7	18862	944066.413039492494	3
7	18871	944522.395014551457	4
7	18876	944789.405712036509	3
7	18887	945209.510130704631	2
7	18902	945844.544161080792	3
7	18905	946675.24203870202	2
7	18920	947310.32568109363	3
7	18928	947823.720309012935	4
7	18930	947905.825272077209	3
7	18948	948519.904519982353	4
7	18956	948825.420617414493	5
7	18962	949131.069501788924	6
7	18964	949428.129846465103	5
7	18982	949989.832695199263	6
7	18987	950300.351412259151	7
7	19002	951061.992920900181	8
7	19009	951183.188988476266	7
7	19012	951262.657505199277	6
7	19016	951376.656365535832	7
7	19022	951662.449654613328	8
7	19027	952005.755426739945	9
7	19031	952235.899898076211	8
7	19040	952456.025009907626	7
7	19048	952821.498249048273	6
7	19074	953881.387707430639	7
7	19080	954196.479358090451	8
7	19082	954290.272919052297	7
7	19087	954304.447741364116	6
7	19093	954544.094391141293	5
7	19110	954873.237048665965	4
7	19115	954945.285639327116	5
7	19122	954999.933281305909	4
7	19126	955257.495268138144	5
7	19131	955571.071895943756	6
7	19135	955711.018821705481	5
7	19140	955844.169708106505	6
7	19145	956172.991966351215	7
7	19174	957615.130856815681	6
7	19182	957786.068207135556	5
7	19186	957912.774677610276	6
7	19199	958698.445976594303	5
7	19204	958735.620758955047	4
7	19216	959290.850166716851	3
7	19220	959302.935370187004	4
7	19224	959392.618234108052	3
7	19239	959945.572188901157	4
7	19244	960036.113588452261	3
7	19248	960204.232514869607	4
7	19266	961603.23451201115	3
7	19281	962372.161315832676	4
7	19284	963106.547579410353	3
7	19298	963498.896521606064	2
7	19301	963636.866219705618	1
7	19305	963669.177452613843	2
7	19324	964581.636181197066	3
7	19327	965587.782164262071	2
7	19349	967362.747395391582	3
7	19354	967645.260713857419	4
7	19358	967645.617607130686	3
7	19363	967962.961884139237	4
7	19376	968590.72892808365	5
7	19384	968714.002685400623	4
7	19388	968947.591135295767	5
7	19402	969891.33670822748	6
7	19410	970199.002692836592	7
7	19427	970638.166039243741	6
7	19431	970638.714827583446	7
7	19439	970951.065020504147	8
7	19445	971239.190133250591	9
7	19449	971457.714730468847	8
7	19452	971494.557838191895	7
7	19456	971512.455852566948	8
7	19461	971822.634043258897	9
7	19474	972416.416904473878	8
7	19483	972800.939523992864	9
7	19488	972949.17265838045	8
7	19494	973050.397941502003	7
7	19506	973355.939795091562	8
7	19511	973670.968381741953	9
7	19527	974169.56334917991	8
7	19531	974255.978390057451	9
7	19535	974331.146415704595	8
7	19539	974540.338787516546	9
7	19544	974604.374665132289	8
7	19547	974746.327452008408	7
7	19555	975042.344417654921	6
7	19569	975593.669492563683	5
7	19572	975596.025424122032	4
7	19596	976398.13431508706	5
7	19604	976752.901507751078	6
7	19609	976985.160984043375	7
7	19613	977047.247093124697	6
7	19617	977174.938875055991	5
7	19624	977274.421735547806	6
7	19635	977532.407287083387	7
7	19639	977884.857649557017	6
7	19643	977910.948159041245	7
7	19648	978223.232611249795	6
7	19652	978230.746420169628	7
7	19665	978843.102033027593	8
7	19691	980281.894713856324	7
7	19694	980299.989480126002	6
7	19702	980499.834897753451	5
7	19711	980823.474964006608	4
7	19722	981117.437126522997	3
7	19726	981278.919708983826	4
7	19731	981544.956635563775	3
7	19739	981670.20307624098	2
7	19760	982568.883990772066	3
7	19765	982867.55841637301	4
7	19772	982968.104330327653	3
7	19782	983460.183312812161	4
7	19805	984857.922326458051	3
7	19820	985436.635057502572	4
7	19828	985829.660617269101	3
7	19832	986000.08777770228	4
7	19844	986332.712799548051	3
7	19851	986583.990057766899	4
7	19856	986887.771399612723	3
7	19860	986911.865427091051	4
7	19883	988748.197239910857	5
7	19888	989066.77900267001	6
7	19899	989419.48004824676	5
7	19902	989434.858286343186	4
7	19906	989531.315919401893	5
7	19911	989849.433367582283	6
7	19927	990233.509257825156	5
7	19935	990691.352468499122	4
7	19939	990722.930339272267	5
7	19945	991071.165553776657	6
7	19958	991917.629810487354	5
7	19972	992572.505646618383	6
7	19974	992576.280233038081	5
7	19983	993077.501247764374	4
7	19991	993411.553223645186	3
7	20008	994112.344563939678	2
7	20013	994308.595765372186	3
7	20018	994587.052924268569	4
7	20022	994762.090367423112	3
7	20038	995270.29175831071	4
7	20043	995588.344752147897	5
7	20051	996437.088717201315	4
7	20069	997003.987010475748	5
7	20077	997332.975740504339	6
7	20082	997630.420163197044	7
7	20085	998195.358098177339	6
7	20090	998304.910280490992	5
7	20106	998783.812776622552	6
7	20114	999076.794497396207	7
7	20118	999171.47735801893	6
7	20125	999383.683234185497	7
7	20129	999417.867145001974	6
7	20134	999722.973087517148	7
7	20153	1000610.509120453765	8
7	20157	1000832.881859091082	7
7	20165	1000925.486521296529	6
7	20183	1001781.286580073833	7
7	20185	1001856.527852383692	6
7	20194	1002564.411068458041	5
7	20199	1002665.175482706134	4
7	20216	1003480.615489105222	3
7	20220	1003590.971194280793	4
7	20225	1003838.684575024289	3
7	20236	1004471.39349848431	2
7	20245	1005183.074767564638	1
7	20263	1005836.032066838954	2
7	20268	1006121.511358871846	3
7	20280	1006690.86754066253	4
7	20285	1007033.239468274256	5
7	20287	1007054.739572128731	4
7	20303	1008281.590773732261	5
7	20315	1009345.629008975972	6
7	20319	1009554.645131340277	5
7	20323	1009654.716371520797	6
7	20327	1009682.890465846597	5
7	20340	1010217.712063618809	6
7	20356	1010606.764743381264	5
7	20359	1010655.365687275701	4
7	20366	1010835.568583832673	5
7	20374	1011127.190402662816	6
7	20379	1011407.460163659269	7
7	20384	1011674.004455056199	6
7	20391	1011720.276801118422	7
7	20399	1011994.57579377199	8
7	20405	1012309.174877795523	9
7	20409	1012410.016516141371	8
7	20417	1012830.463736324453	7
7	20447	1013866.874019457049	6
7	20453	1013996.36479276135	5
7	20458	1014164.644299209119	6
7	20463	1014462.752569848026	7
7	20467	1014715.819357396794	6
7	20471	1014804.405257785058	7
7	20476	1014964.721696066757	6
7	20484	1015246.805031400256	5
7	20498	1015949.227819921712	4
7	20501	1015949.719047116303	3
7	20523	1017218.75745460932	2
7	20537	1017676.511243215929	1
7	20544	1017818.693872454126	2
7	20555	1018130.50976335372	3
7	20564	1018424.950024585593	4
7	20568	1018452.943695074446	3
7	20572	1018679.241863440594	4
7	20580	1018970.436626064925	5
7	20589	1019255.282951194153	6
7	20594	1019482.589039556009	7
7	20611	1020105.975169130787	8
7	20616	1020354.915529189615	9
7	20624	1021006.069267891268	8
7	20637	1021627.672557241689	7
7	20641	1021629.754047597064	8
7	20646	1021907.29900047326	7
7	20654	1022184.14386828889	6
7	20657	1022184.682830558602	5
7	20670	1022597.84868448297	6
7	20682	1023007.066044194669	5
7	20686	1023174.688491797496	6
7	20699	1023548.895631041864	5
7	20702	1023748.109039494701	4
7	20711	1024053.438379662769	5
7	20715	1024151.713410357526	4
7	20729	1025032.692207658688	3
7	20741	1026009.193378984147	2
7	20755	1026760.952383174697	1
7	20759	1026816.699306885624	2
7	20782	1027427.030297715933	3
7	20788	1027754.100352814584	4
7	20793	1028030.614083313406	5
7	20797	1028236.059831343751	4
7	20801	1028258.539926136651	5
7	20818	1028838.484613120993	6
7	20826	1029137.112702195132	7
7	20831	1029408.207637343327	8
7	20835	1030578.483970094706	7
7	20843	1031018.953436212425	6
7	20852	1031307.435850993306	5
7	20860	1031699.716468461839	4
7	20869	1032148.559093535909	3
7	20877	1032384.401484614856	2
7	20880	1032503.378493449742	1
7	20888	1032814.083920370381	0
7	20892	1032841.802037164265	1
7	20909	1033472.110535953037	2
7	20918	1033738.938245111445	3
7	20923	1034018.48206660901	4
7	20942	1035350.505436715731	5
7	20945	1035938.145797176118	4
