file 349697 1483715102                                          
version 2
run ParkingMeasurement-14-20170106-02:04:59-12613
attr configname ParkingMeasurement
attr datetime 20170106-02:04:59
attr experiment ParkingMeasurement
attr inifile parkingStudy.ini
attr iterationvars ""
attr iterationvars2 $repetition=14
attr measurement ""
attr network SimNetwork
attr processid 12613
attr repetition 14
attr replication #14
attr resultdir results
attr runnumber 14
attr seedset 14
param SimNetwork.a.parkingLot.parkingDelay "truncnormal(60min, 6min)"
param SimNetwork.a.runway.landingTime "truncnormal(5min, 0.5min)"
param SimNetwork.a.runway.takeoffTime "truncnormal(5min, 0.5min)"
param SimNetwork.a.runway.throughputCheckInterval 14.286min
param SimNetwork.wg.interArrivalTime exponential(14.286min)
vector 7  SimNetwork.a.parkingLot  parkingOccupancy:vector  ETV
attr source parkingOccupancy
7	288986 60711 2511 20039 121010.681669758557 1036501.403325658348 2056 0 12 9228 49016
vector 4  SimNetwork.a.takeoffQueue  queueLength:vector  ETV
attr source queueLengthSignal
4	186839 60871 2512 20040 121010.681669758557 1036501.403325658348 2061 0 12 2373 8551
vector 0  SimNetwork.wg  responseTime:vector  ETV
attr source responseTimeSignal
0	1464 44856 2515 20046 121013.333286284456 1036576.652343547723 1033 3421.7468115508 13843.635884879 5922624.8694293 35310928596.7
vector 3  SimNetwork.a.takeoffQueue  queueTime:vector  ETV
attr source queueTimeSignal
3	146564 40275 2517 20037 121013.333286284456 1036335.9045411846 1032 0 5201.5758530281 516860.05248496 997153280.13245
vector 2  SimNetwork.a.landingQueue  queueLength:vector  ETV
attr source queueLengthSignal
2	85919 60645 2520 20048 121060.67157680627 1036576.652343547723 2056 0 4 1342 1732
vector 1  SimNetwork.a.landingQueue  queueTime:vector  ETV
attr source queueTimeSignal
1	46320 39599 2525 20048 121318.806497418219 1036576.652343547723 1028 0 932.94921826475 150350.92988903 50662385.050339
vector 5  SimNetwork.a.runway  landedThroughput:vector  ETV
attr source landedThroughputSignal
5	247710 20638 2532 20033 121716.72 1036306.44 1068 0 3 1027 1803
vector 6  SimNetwork.a.runway  tookoffThroughput:vector  ETV
attr source tookoffThroughputSignal
6	268348 20638 2532 20033 121716.72 1036306.44 1068 0 3 1032 1784
