version 2
run ParkingMeasurement-40-20170108-17:29:35-5055
attr configname ParkingMeasurement
attr datetime 20170108-17:29:35
attr experiment ParkingMeasurement
attr inifile parkingStudy.ini
attr iterationvars ""
attr iterationvars2 $repetition=40
attr measurement ""
attr network controltower.SimNetwork
attr processid 5055
attr repetition 40
attr replication #40
attr resultdir results
attr runnumber 40
attr seedset 40
param SimNetwork.a.parkingLot.parkingDelay "truncnormal(60min, 6min)"
param SimNetwork.a.runway.landingTime "truncnormal(5min, 0.5min)"
param SimNetwork.a.runway.takeoffTime "truncnormal(5min, 0.5min)"
param SimNetwork.a.runway.throughputCheckInterval 14.286min
param SimNetwork.wg.interArrivalTime exponential(14.286min)

vector 0  SimNetwork.wg  responseTime:vector  ETV
attr source  responseTimeSignal
vector 7  SimNetwork.a.parkingLot  parkingOccupancy:vector  ETV
attr source  parkingOccupancy
vector 4  SimNetwork.a.takeoffQueue  queueLength:vector  ETV
attr source  queueLengthSignal
vector 3  SimNetwork.a.takeoffQueue  queueTime:vector  ETV
attr source  queueTimeSignal
vector 2  SimNetwork.a.landingQueue  queueLength:vector  ETV
attr source  queueLengthSignal
vector 1  SimNetwork.a.landingQueue  queueTime:vector  ETV
attr source  queueTimeSignal
vector 5  SimNetwork.a.runway  landedThroughput:vector  ETV
attr source  landedThroughputSignal
vector 6  SimNetwork.a.runway  tookoffThroughput:vector  ETV
attr source  tookoffThroughputSignal
0	2372	121232.777984057149	5810.4444645746
0	2392	121627.084012796313	4475.9151805544
0	2411	122553.005589143239	6398.1997636042
0	2422	123155.000812437232	6754.1167401713
0	2452	125788.591838872271	4298.7403325461
0	2474	126710.669510531249	9128.491989182
0	2495	127846.098474787846	6341.3534914116
0	2500	128095.789970120374	5571.1819210223
0	2528	129287.649640442532	5471.7933579424
0	2542	129797.739952912744	5507.4682380639
0	2559	130205.378940104582	4665.9909381005
0	2615	132351.974767066737	6355.0837909302
0	2620	132659.365184893688	5398.9584719019
0	2626	132919.210973610819	4661.7367949524
0	2637	133555.56261701037	5174.7374674746
0	2654	134339.471662326082	4445.4155251696
0	2663	134616.856763626618	5542.842581364
0	2671	134907.547366017297	4892.6757160318
0	2676	135180.18537370555	5172.848727235
0	2688	135862.234937459857	4802.4335370692
0	2693	136196.400706877188	5063.461070728
0	2714	137798.773229863754	6001.1717154909
0	2763	141299.184489524799	7902.5985558271
0	2776	142364.186001954811	5263.384852903
0	2792	142955.267590161231	4297.256634208
0	2798	143228.198692757645	5649.035107104
0	2806	143705.222007783098	4722.8262082232
0	2824	144943.553333053535	5067.644199044
0	2847	146454.705853229145	6519.3550821533
0	2884	148994.704956820145	6789.8490822384
0	2893	149780.551457805436	5858.4621680395
0	2914	150964.539816827101	5687.8789958632
0	2922	151320.703170524543	5047.9699952503
0	2956	152743.241603407919	4581.196106799
0	2961	153038.414892835081	6632.6504963723
0	2970	153923.507048678061	5645.7637023738
0	3002	155400.079256223518	4176.5713846101
0	3024	156285.02130095751	6002.0929472033
0	3029	156631.02688834666	4993.3425731155
0	3042	157991.166120204829	5902.2582343052
0	3075	159367.583880737049	4905.4721438879
0	3081	159640.532667909369	4839.5169490327
0	3089	160088.366979329813	4779.3204292551
0	3149	162847.231046266628	5085.8799379198
0	3160	163425.38820301437	7808.1794849931
0	3166	163743.808457658658	5733.0646041681
0	3174	164234.804520093296	5452.0412152267
0	3186	165057.026784439178	4324.279752548
0	3191	165346.061043797964	4223.4270881264
0	3206	165868.465948865991	4505.0660013254
0	3217	166462.210505764193	4730.0472091054
0	3226	167285.031672172276	5497.5894683633
0	3237	170018.253962602403	7435.3682805476
0	3292	175763.066263574686	10022.286172106
0	3303	176421.986143331297	4238.9236430007
0	3320	176975.682255046089	5391.2857816349
0	3346	178617.968265831324	5912.5375921959
0	3351	178897.314567240998	4904.9903881566
0	3361	180450.486275880705	4079.9679855156
0	3369	180771.882118303758	6278.7922594971
0	3387	182064.965576774022	5340.2456231546
0	3462	186600.424686324511	8629.0556736909
0	3476	187124.558607690369	5679.5450706162
0	3502	188721.08890728665	4173.3365239895
0	3513	189013.17966661263	6693.8904318613
0	3521	189284.376525047937	4516.5908870745
0	3538	189880.440709396398	4938.0772773699
0	3546	190164.346507795079	4422.0381133322
0	3557	190848.315687522681	5474.3265941557
0	3569	191214.770885085101	5233.0461430737
0	3580	191521.751935268918	5186.6104975803
0	3635	193623.444058590598	6562.9689185107
0	3644	193910.874470649588	5796.7812259763
0	3652	194232.009360241045	5062.5364295559
0	3686	195633.920282568981	5605.74729401
0	3691	195935.017033842972	4630.1780662355
0	3703	196519.373542346079	4801.8484386034
0	3731	197362.351292070201	5894.893111915
0	3736	197622.9638899384	5256.909356066
0	3744	197936.381082612289	5688.0991850285
0	3764	198549.901908071629	4413.1407303281
0	3778	199134.426018302122	4735.384195184
0	3783	199418.74516845593	6872.4865428445
0	3818	201086.97807403115	6108.0085324696
0	3834	201944.207612166089	5793.0128146877
0	3843	202370.044726226883	5641.4187874318
0	3852	203158.692858707566	5470.8774663677
0	3885	204393.126961641028	6096.7852053983
0	3911	205255.278017015093	5061.3701998597
0	3933	206133.300310880205	5213.3234498226
0	3955	207059.746446381121	6711.4388870878
0	3960	207392.147333872626	4158.5589947852
0	3972	207909.529707694156	6970.4701822306
0	3977	208205.793688673551	4922.2587778056
0	3989	208860.952171668261	5178.7428088615
0	4006	209457.941081369667	4860.2145069934
0	4014	209775.922988626432	4706.321117939
0	4028	210355.483313336019	5203.7200342575
0	4037	210992.786280193653	4917.5085165581
0	4050	213173.413101767205	6825.5895943309
0	4072	213972.453316918816	5273.0132027001
0	4103	217396.990842985694	4512.5575187742
0	4112	217728.664277713481	8047.2357059074
0	4125	218386.363221180025	5056.1860524988
0	4154	220106.827156083946	5972.7025909296
0	4170	222099.034563546603	6380.1127608995
0	4184	222574.080110623608	4967.3391113062
0	4195	223106.590963306406	4715.6048889681
0	4212	224512.408626210383	5599.7598431573
0	4255	226687.167090849387	6597.7888379959
0	4264	227640.219966746968	5132.7396067291
0	4289	228660.03535252964	5224.9205840687
0	4304	229147.257457608477	4496.6454023151
0	4326	230239.587845123788	4836.3047975944
0	4351	231098.587828415501	5443.7953864374
0	4365	232020.701814350159	6221.7080538757
0	4380	232781.1332020928	4977.6297257195
0	4402	233614.486084243718	5628.1739449459
0	4407	233898.523017345596	4872.7300902076
0	4425	234720.872134271132	4516.9713703896
0	4444	235600.771583867389	6472.643832329
0	4453	235902.436103378184	5408.4514469301
0	4478	236985.665480911465	4284.8313670448
0	4492	237575.198651511291	6570.0186184602
0	4507	238639.035795307541	4222.6323636246
0	4518	239249.437884103304	6255.9967988486
0	4554	240550.227301874806	6104.9363652246
0	4559	240773.649730678385	5145.080301141
0	4568	241207.583870656054	4750.7905704763
0	4589	243188.224296259529	6266.3751353242
0	4617	244144.101223694059	5627.5852037768
0	4623	244480.316370800001	5168.5896744283
0	4628	244809.457055224831	5243.1109690117
0	4646	246356.472009778331	6550.4519884053
0	4667	247930.928925863686	4916.861548028
0	4672	248268.748030844629	5861.728279997
0	4682	249583.793084375596	6227.8990166716
0	4712	252032.666927135327	6670.4032514961
0	4755	254846.476083084227	7559.2876875953
0	4760	255206.743317031955	4877.5241141193
0	4772	256174.612455537532	4291.3808856904
0	4781	256480.899928516116	5016.1282341366
0	4797	257105.127100741844	5067.7523166857
0	4803	257449.682834324284	4601.9810444384
0	4850	260642.945814561474	7582.5192353456
0	4888	262083.587648252462	5839.144730362
0	4900	263122.546926090013	5573.0717601802
0	4914	263640.296674339625	5049.1965643334
0	4923	264432.613551354947	5285.7895510596
0	4949	265295.521136085356	5281.3720366468
0	4963	265828.732017098428	5407.4332185293
0	4968	266117.635855747001	5359.0384858323
0	4973	266472.30968469962	5763.7857689373
0	4990	267056.982759588432	5616.6950229388
0	5008	268823.842534437056	5860.447980044
0	5021	270055.093723736531	5486.323486904
0	5038	271516.005037314286	6543.8034181865
0	5052	272262.170659349631	5680.8052622106
0	5123	275818.056764467809	7606.7957061641
0	5148	276692.572682920054	6916.2209201779
0	5154	276972.00979019988	5600.6354908217
0	5163	277925.923441546587	4509.0088539091
0	5171	278277.901684450552	4854.7562619014
0	5186	278625.441785261736	5157.9606192073
0	5213	279429.608779868073	5377.6626740359
0	5236	280416.918201003702	6286.5907004877
0	5244	280704.627465208148	6186.750413765
0	5252	280981.221782340053	6001.8742771246
0	5263	281525.916083037418	5972.5352655156
0	5272	282438.903162192384	6453.3683271522
0	5289	283150.271939108673	4735.512546564
0	5300	283571.841703465032	4204.9232144798
0	5309	283846.412244785392	5351.3535701419
0	5348	286184.217386382992	6599.432078945
0	5357	286819.521873980792	6085.2620579704
0	5369	287678.317131217363	5074.8096479963
0	5386	288507.475358920726	4709.9187474935
0	5391	288800.004673210581	4730.9808302525
0	5406	289495.240897926509	5191.0057587084
0	5452	292702.067745690673	7352.708664295
0	5464	293622.723881193878	4165.4221955781
0	5472	293913.264020551398	6266.97036557
0	5494	294847.790340289813	5535.6879318939
0	5507	296004.03714745968	6038.8321208402
0	5512	296322.562798789693	4523.6861120804
0	5526	298594.098765629546	4951.0160860738
0	5531	298880.666381621848	7039.5339553113
0	5588	306189.578536969863	12265.913387797
0	5605	307510.298123171572	4893.5922292436
0	5620	307790.11389545513	4616.8277929885
0	5630	308429.3418790429	5293.1733622229
0	5639	308781.264835666019	5381.020506417
0	5667	311409.583881253961	7172.7484124137
0	5716	313456.712022138453	6554.8134613843
0	5734	314731.33545844517	3942.3422940986
0	5751	315497.550407316478	7754.8573636927
0	5759	316135.605902317629	4968.596018915
0	5771	316550.257801955763	5245.8309384728
0	5782	316883.125257065463	5007.2696500063
0	5824	318347.922490291591	6997.3957144405
0	5829	318688.121498219489	6364.6928761054
0	5838	319069.187608873626	6314.3416227224
0	5843	319373.681574985669	5195.0837198022
0	5859	320638.058176015717	3965.4894198193
0	5869	321243.701995662072	6318.4312211827
0	5881	321625.038329300994	4151.2059915294
0	5889	321912.962758358814	4934.859439859
0	5929	324092.949661717257	6420.0797327646
0	5968	325703.973443991876	5084.5628962462
0	5991	326646.791784554442	4764.993879241
0	5999	326945.191191293587	4190.8294006994
0	6004	327260.373359162765	5223.264989999
0	6021	328171.299010629338	4017.2757298682
0	6033	328909.188486314171	5918.7853575859
0	6039	329222.249494153553	4942.4895913983
0	6047	329529.57858098361	4804.9322828624
0	6056	330447.628247886197	5027.8663111161
0	6077	331783.803596917421	6294.7148155777
0	6142	335304.253147547263	7979.6963073621
0	6165	336361.89573564223	4700.923402173
0	6173	336690.521417647893	4440.110732853
0	6182	337035.66867897753	6405.5292539803
0	6193	337349.887593076314	4625.8937747461
0	6257	339821.68218414551	6963.171419249
0	6268	340142.906708479183	6981.600918802
0	6282	340775.910510928546	7534.2645196763
0	6299	341416.454882451117	6701.5533672598
0	6304	341671.532470445358	5873.1832961348
0	6309	341929.276940441348	4830.7691893698
0	6324	342379.476672671456	5245.1256193324
0	6332	342682.832610127697	5002.1085973915
0	6349	343381.55463434288	5828.2049510105
0	6354	343695.917226090732	5762.2315479931
0	6363	343955.32410386204	5692.3938502333
0	6368	344235.174413000149	5898.0152926988
0	6380	344715.557420654007	4810.4134658923
0	6445	348358.762135451745	7806.7808062663
0	6465	348963.210435558562	6458.2794810425
0	6473	349279.59746516309	4835.4363144139
0	6478	349552.290611783895	4549.8888236958
0	6499	351307.824072948634	4159.1368427052
0	6516	351924.660640589763	4994.5026076534
0	6530	352239.487424347791	6916.5110015088
0	6586	354253.591749726152	7005.9662704343
0	6594	354581.574228407103	6963.8510792573
0	6605	355113.297956873971	6735.635074313
0	6617	355778.894384186018	6224.7259739191
0	6622	356057.945588940797	4997.3866201352
0	6645	357087.532812913006	4955.1097948523
0	6650	357320.001577183242	5113.0200414698
0	6659	357607.912530086417	4981.0308482935
0	6667	357900.758233465324	5271.4057271945
0	6672	358171.430059969431	4958.805226185
0	6701	359325.771443998781	5761.5209467382
0	6740	361613.503061908476	7041.8965943778
0	6758	362820.144923941851	6389.3908212848
0	6772	363126.317734548252	4405.2697135365
0	6783	363694.927389772017	5378.8727913189
0	6795	364293.103602926703	5049.6103745785
0	6800	364593.044096398347	4902.7246981642
0	6812	365450.000845446183	4739.3183477547
0	6826	366151.728511035901	5254.991899672
0	6835	367440.756698391105	5721.0293316827
0	6890	370494.263344462946	7539.9884218693
0	6904	371998.939474772085	6723.6322803271
0	6919	372638.937460037488	3733.8442177582
0	6941	373576.31734549096	4446.8078196908
0	6947	373885.691707814146	5661.0157140777
0	6955	374347.475435182938	4823.8877560521
0	6964	374708.564691859557	5164.3342194254
0	7011	378202.215243866345	7885.5471624053
0	7016	378495.947235981026	5888.5407871147
0	7046	380853.178891074958	8232.0556428273
0	7051	381138.755815279618	4735.0441803648
0	7063	381747.334645504779	4805.090833379
0	7068	382000.930769688531	5024.2127476951
0	7080	383099.356443955878	5892.6943142411
0	7094	383711.707478168392	4391.4822084622
0	7155	387631.655547359442	7906.3283787623
0	7169	388137.677499317257	5168.9936515196
0	7175	388449.973908598341	4292.8202298015
0	7180	388821.548729388769	4923.0818832266
0	7197	389534.090942756154	5091.7603208045
0	7208	389822.313998021362	4542.2691824782
0	7242	390979.059121894517	5302.5251467299
0	7273	392703.205358131083	6494.7997752225
0	7288	393682.886222871813	4719.1710452861
0	7304	394277.716270093755	4566.542920381
0	7329	395118.918045560129	5210.7736491369
0	7335	395446.155475857222	5501.4103502688
0	7340	395792.885662747653	4885.9909031469
0	7352	396640.617357391983	5177.6129686014
0	7383	397871.913244508038	4292.5018150984
0	7391	398378.888511315378	6252.4949230414
0	7400	398841.739194416628	4583.5320800314
0	7429	400332.228293442676	5963.5528701105
0	7443	401354.152722030763	4301.404053036
0	7451	401948.94138423477	5503.3678245895
0	7483	403410.908121354403	4242.6525240278
0	7505	404345.688964841016	7281.2890347571
0	7511	404597.592848806097	5248.0386816223
0	7534	406226.620568369107	6060.1762790883
0	7551	406835.67466677046	4712.6083371431
0	7565	407418.452553831827	4715.2310157885
0	7570	407736.647919516626	4522.9744658768
0	7587	408699.411923396286	5245.0359773438
0	7597	409972.287956251416	5152.5324026509
0	7605	410473.275204734232	4615.4330189176
0	7648	412728.223406195341	6099.5075689883
0	7658	414647.597592271827	6737.7871179768
0	7715	417061.142085887652	6409.0216954342
0	7720	417331.619378376293	6236.9821027188
0	7726	417578.990147469483	6321.5065119092
0	7758	419628.169030778575	8107.5974585511
0	7775	420209.124111192758	4705.5850506967
0	7783	420531.32197336038	5309.5588998904
0	7788	420774.45547951898	4979.4121148555
0	7794	421102.108420839562	4907.6976218554
0	7805	421515.435336173068	3871.6743369076
0	7822	422387.574858286234	6192.1645958321
0	7861	423957.342927649572	6242.0182204675
0	7903	425463.92720973244	6119.928239373
0	7915	426502.996347926069	5024.1556385311
0	7940	427337.935789775145	4754.3785760199
0	7948	427600.928124236041	5342.4659498249
0	7957	427892.091004938073	5085.0612006189
0	7988	428701.518804518888	5299.6048702892
0	7993	429059.81406836493	4740.1915965007
0	7998	429356.29025014405	5331.226425609
0	8004	429660.053551362963	5521.9588128719
0	8013	430638.691045183619	5983.5880608853
0	8022	431697.619299858093	5475.6885002891
0	8033	432007.875737873261	4400.0895944492
0	8039	432308.168321466889	5664.440226706
0	8068	436362.828366303356	8392.8881019309
0	8088	439777.050962737091	6815.8842040216
0	8115	442207.97822435547	6882.6926864523
0	8163	444487.492334281088	6476.9963774336
0	8211	446738.993484565556	6279.6113028722
0	8222	447048.264976049439	5092.7815246731
0	8247	447885.371430010222	5916.9802619844
0	8258	448185.125127754579	6010.9502907229
0	8264	448487.94850163712	4910.4898692363
0	8272	448804.878407069764	4455.1588507974
0	8280	449131.040386304228	5419.389730155
0	8297	449800.047151365542	5426.626494727
0	8311	450344.08123880668	5418.7601771255
0	8316	450595.45388180122	5654.4065944208
0	8336	451516.286445617444	5704.5735078408
0	8342	451790.453185333638	4989.8156976919
0	8351	452974.842356273266	5680.7765016585
0	8360	454151.955285351101	5045.1935913126
0	8386	455758.657219920824	6106.5441568214
0	8433	458826.016941773481	7943.5348124854
0	8466	460007.795009365448	5636.7856599549
0	8475	460341.552446532736	5220.3795572735
0	8494	461145.512990355484	4843.3513918875
0	8500	461430.002773562923	5164.3284617463
0	8505	461784.171135188852	5276.2200723291
0	8534	463042.719929095735	5930.9972257028
0	8562	463840.99169622639	4710.7281345336
0	8567	464165.051873702406	5456.7587121115
0	8575	464460.059519940717	5282.8304529909
0	8593	465590.650672833025	5398.0820642052
0	8607	466548.159663372604	4512.1980319887
0	8618	467046.945303031574	4085.5642818681
0	8627	467315.636546683883	5211.7622927323
0	8640	467917.203206764784	4731.31607896
0	8651	470013.788837100448	5795.0945973833
0	8685	471690.370282327696	6401.2150692321
0	8720	474217.493407744298	6984.1959222259
0	8732	475058.922825131669	4201.0221216776
0	8737	475348.909493337374	5126.4100943732
0	8746	475787.107026210694	4742.9586308544
0	8766	476676.664571862107	4305.4392743877
0	8774	477004.578811924221	5305.5340624415
0	8818	480109.983373503414	7359.2421989166
0	8832	480873.885219875091	4986.9068104082
0	8860	482342.729917523508	4011.6380725928
0	8866	482622.317967197614	5740.82352505
0	8875	483757.552200286547	5262.7640497764
0	8886	484293.189833008772	5565.2973414464
0	8904	485191.753632107984	5165.6131586607
0	8917	485915.684711726508	4749.8464538813
0	8961	489247.440567073142	7604.0935957443
0	8976	489726.243306006831	5688.7136522961
0	9006	490903.546928158005	5900.0465237327
0	9012	491190.870229017501	5219.1013316765
0	9033	493056.134113755405	6185.1206769112
0	9041	493353.976772882744	5079.5199943241
0	9064	493947.448791613651	4293.2212156951
0	9106	495552.841410181092	7078.5599342922
0	9125	496485.818993743839	6774.5869129293
0	9136	496790.700669479583	6651.09067448
0	9158	497778.247643430282	6152.9025092699
0	9167	498097.134471986926	4854.247833797
0	9172	498396.511759447486	4478.9517316069
0	9181	499059.79653857602	5370.3021341121
0	9201	499801.066012724652	5350.7461502101
0	9206	500073.563131209432	5392.1154220156
0	9215	500633.228002351799	5366.3004415848
0	9240	501307.719945845343	5647.9663205822
0	9273	502830.92058326524	6254.7491942899
0	9285	503575.118298091845	6861.4957869366
0	9299	504248.140736509099	5019.3786698244
0	9316	505139.202970380352	4490.4636954661
0	9327	505674.619314024331	4212.8139922642
0	9353	506677.907056247713	5395.8829362095
0	9358	507023.258674379005	5808.1148445843
0	9375	507959.723405717505	6453.1583660917
0	9384	508804.048445530609	5263.9209259852
0	9393	509209.834010816809	4750.4369447756
0	9401	509842.381120387647	4279.1551164608
0	9411	511520.360491422455	5680.8948522469
0	9481	516029.074859968067	4461.9543541787
0	9497	516682.596723830085	9309.4847043419
0	9510	517768.134085309374	5955.7725039345
0	9532	518341.38210026144	4583.8591506219
0	9538	518665.647724729552	5168.5463192666
0	9543	518972.522804453179	5363.7301419562
0	9548	519325.27407537471	5087.4731853475
0	9586	521524.292413130145	7255.8687913507
0	9591	521834.024677976158	5680.2213532733
0	9650	523970.25371499139	6242.8020871265
0	9662	524721.76366033	4853.2573097674
0	9670	525050.298242546585	4442.757727332
0	9687	526040.605635544456	5405.7128005934
0	9732	527463.752382633164	5473.3916206689
0	9752	527815.489413650339	5911.2809499259
0	9777	529022.803086544217	6998.9822522195
0	9788	529357.025997059966	6620.3057510726
0	9807	530323.022132756308	7991.2671174158
0	9816	530638.50150168987	7269.9671937311
0	9827	530886.268867904323	6081.9247388028
0	9838	531242.249060148075	5457.5251277754
0	9869	532444.424203185177	6018.0131448632
0	9880	532748.729884516666	6476.3934424959
0	9897	533272.386859510314	5589.0970380845
0	9913	533862.194768336587	6181.2281434238
0	9936	534463.974448456163	7845.2689520175
0	9980	536313.95755839458	8524.409840656
0	9989	536631.797008997649	7601.1501653633
0	10008	537268.571954310911	7610.8405030836
0	10022	537822.848720478001	6917.1338470904
0	10030	538138.210058002473	7081.6798423603
0	10047	538777.657848760776	7078.2622401127
0	10067	539382.130636491254	6914.7811838653
0	10075	539694.621391125333	6011.0980988493
0	10081	540026.489395983244	6820.7535777812
0	10086	540298.915249276394	5956.4296216105
0	10094	540624.530395513732	6409.4548876982
0	10100	540949.633876497609	6719.3856163074
0	10105	541294.893852411482	6867.8556180047
0	10113	541569.37153091665	6992.57946401
0	10122	541884.196559092273	5474.8280450434
0	10155	543179.45075316442	5948.6584197082
0	10161	543485.142747263119	5563.3657783462
0	10175	546211.428722822571	7612.8543485758
0	10191	546770.817231046143	4892.9005432743
0	10197	547139.97512482394	5245.87796814
0	10260	550639.969510625787	8251.3131352297
0	10274	551245.129936706452	5355.8420744366
0	10286	552431.14823895121	4461.6344641357
0	10297	552774.048164734647	5336.1067989862
0	10311	553379.389290163798	5806.2420731363
0	10319	553663.759129568909	5514.8809183602
0	10336	554331.672467812143	5047.3861127215
0	10342	554652.098044050795	4739.8029655232
0	10363	556875.736251049165	6533.963530317
0	10377	557544.592392294902	4803.3837186487
0	10387	559497.070445842036	5883.1014718681
0	10396	560392.434603408081	5210.59413678
0	10497	564479.810328733954	7641.7410472095
0	10506	564906.52906663945	4277.6818730937
0	10517	565385.412325127991	4631.4739873211
0	10528	565686.324462851772	4711.3679792553
0	10560	566626.339064557378	5320.6125116023
0	10585	567463.757565641863	6212.0425573215
0	10598	568107.999896636902	6997.4706364689
0	10607	568421.187473209605	6700.4768504044
0	10612	568713.272785996859	6101.6678156289
0	10617	569078.329913125544	5908.1264352515
0	10623	569366.663126120671	5723.9184042283
0	10632	570093.233602005419	6187.5476916787
0	10643	570486.287387313113	4912.6364610952
0	10648	570743.964892838678	5188.5527850077
0	10668	571522.723867722646	5065.610276751
0	10674	571788.144246384859	5311.4552059709
0	10718	575266.658109827647	7883.6763788326
0	10730	576721.765686551364	5806.516732185
0	10739	577058.367933552624	4338.4169193125
0	10744	577355.681610545703	4425.5256357952
0	10756	578410.560448940679	5320.2993616925
0	10806	582436.469153721841	8732.1540229337
0	10815	583269.379989457006	5040.1325471159
0	10824	584147.037522353784	3727.4021697161
0	10841	584824.670634434463	5384.3939346884
0	10850	586050.531669331718	5414.6899036309
0	10869	588605.524552422743	6863.1902108324
0	10880	590869.040006192511	6646.6698848461
0	10932	594713.516894027699	7837.4456303614
0	10941	595324.005659936696	4009.8382771515
0	10950	595866.903315556007	4593.364535661
0	10962	597156.034982461424	5133.4243390172
0	10987	598275.314855179332	5596.8118028871
0	11072	601996.445155589503	7967.3498662804
0	11080	602252.700307661353	5097.7939060432
0	11122	603592.974706835925	5965.8177644276
0	11133	603854.441660620644	5668.346498222
0	11141	604117.370556689827	5059.4648244167
0	11153	604351.560955804221	5085.8048049322
0	11158	604636.511396186696	5334.7537758459
0	11166	604948.938367987209	4661.3317811493
0	11183	605579.057032830194	6296.4977831709
0	11208	606449.939139683925	5934.7639568989
0	11216	606763.203278913468	6174.9959086537
0	11228	607067.823936461604	6107.149395276
0	11233	607434.642586102018	5035.0765667953
0	11242	607741.570518633618	5717.8664885446
0	11252	608385.28151226175	6076.4391414402
0	11261	608694.892384955072	5688.8791800875
0	11306	610370.190617749664	5677.9082412089
0	11311	610699.773768224344	5283.5514289341
0	11323	611599.570838247142	5881.8585532507
0	11337	612564.722031552156	4961.2541037945
0	11352	613053.888948632399	4214.8968701462
0	11377	613889.312972302128	4696.888658488
0	11393	614490.323299704253	5226.0146931643
0	11413	615461.493609959941	5971.5871400947
0	11430	616803.231701953893	4068.885696918
0	11448	617347.730592596831	5792.1718971688
0	11495	619017.138441935025	5895.7561056338
0	11500	619289.064258039097	5532.8987236642
0	11511	619608.52719808269	5334.5228232586
0	11539	620895.32386608801	6550.0413775665
0	11551	621580.182068128228	4307.5545772515
0	11565	621881.156252538505	5656.6065150542
0	11587	622760.776738916759	5458.5284777428
0	11592	623087.190469629944	5801.9125107734
0	11604	623386.197723206757	5361.5607039685
0	11626	624252.831712631108	5775.6864476115
0	11646	624605.989744485712	5223.3643035027
0	11696	626734.099772248681	7253.0436887931
0	11701	627069.098828737639	7131.3832706314
0	11712	627425.234476115299	5819.8020371126
0	11729	628054.489088704863	6377.5499373865
0	11743	628624.573813607218	5416.9121021994
0	11754	628918.393171455285	4510.6729623025
0	11763	629201.96141218382	4785.024234144
0	11771	629479.667859118072	5983.0352456969
0	11776	629771.806502115878	5167.1164462477
0	11782	630028.470575287997	5502.5759361946
0	11790	630343.490949651691	5014.7818166533
0	11807	631616.084054541989	6050.5533557693
0	11817	632953.203374236673	5691.0042972924
0	11827	634728.441271513522	6941.4084318821
0	11897	641164.118957166109	4111.9523253432
0	11910	641728.642220265874	11148.53513922
0	11922	642026.656784128231	4708.0544458808
0	11944	642613.387949243958	5357.8624541381
0	11972	643840.492991574884	6037.5408929973
0	11982	644451.26351567237	7036.3764526335
0	11998	645759.48192909252	7121.8735298599
0	12009	646320.931688936229	5205.5141194238
0	12017	646707.441610239731	4696.9464783906
0	12026	647315.285977064561	4950.7881641638
0	12034	647777.206894490695	5364.9658560979
0	12046	648139.117855371901	5530.3712228324
0	12072	649928.987466441381	6124.270056528
0	12093	652098.612817421373	4103.6200340721
0	12115	653046.040083872977	7387.321571149
0	12154	654711.949518118627	6168.8206655528
0	12167	656384.777619831042	6618.6542105465
0	12173	656719.070442165709	4870.0013202883
0	12187	657292.142222730711	5192.4251753188
0	12201	657854.293377379301	4968.7049895181
0	12226	658706.203838807946	5250.3678348829
0	12231	659001.07488337773	5392.1235868638
0	12293	661436.021893538856	7420.5363524658
0	12307	662042.199532697891	4765.1404915072
0	12316	662848.775860449771	5263.3365324347
0	12337	664071.248635953659	4801.8736751376
0	12343	664387.044669817771	6339.3056869819
0	12348	664699.046426678443	4980.8697412585
0	12353	664970.02626357826	4829.2595120249
0	12362	665257.187920398214	5913.0811435884
0	12373	665524.722619070129	5799.9103584973
0	12392	666488.677537428215	6247.0845461184
0	12428	669664.291987681443	8372.8124664925
0	12442	670190.62660990894	4707.6963103111
0	12487	672080.449809389426	6475.8714717887
0	12498	672387.337615369513	4545.724873487
0	12664	677528.096034106664	8907.8524715694
0	12675	677757.076220418774	8653.3986554307
0	12706	678643.488851036456	8635.6537759188
0	12720	679216.246903547582	8435.1984611735
0	12728	679451.695709923064	9463.0927979168
0	12736	679708.726240196709	8546.3722462983
0	12748	679950.738040176065	7569.18889641
0	12756	680290.598426395431	9044.6804103275
0	12762	680595.026169160574	7858.2489508378
0	12770	680852.131166752662	8015.823246542
0	12781	681156.016058077794	8240.5442510408
0	12795	681744.704316876291	8319.3683174808
0	12800	682082.27632273245	8937.1771524307
0	12809	682364.112459046542	8306.3063902997
0	12814	682730.888824388215	8655.5574608422
0	12819	683017.761753749142	8942.2160057051
0	12828	683324.394597786754	8758.6282220282
0	12833	683650.092002353895	8843.5262265654
0	12841	683973.196048295753	9079.9734674035
0	12855	684526.734819487819	9531.2483450737
0	12869	685144.394483775767	9998.7296135135
0	12874	685473.327623026848	9491.0766123637
0	12880	685777.194468934954	9768.2010289002
0	12888	686141.997661887374	8532.3285175342
0	12899	686693.292960432645	8726.5928731716
0	12904	687003.087915213851	8417.8936521196
0	12946	688614.19415901504	7532.7028405815
0	12957	688946.259848194981	5100.1959786655
0	12988	690223.504529932564	5842.907663347
0	13005	691080.553592283679	5218.9585492119
0	13013	691398.161494550463	4376.3256131178
0	13022	692050.653382219732	4794.7154603392
0	13033	692423.066086163827	5033.1765859689
0	13050	693045.314065693724	4225.692220246
0	13058	693282.816572294356	5266.676984213
0	13095	694584.271260138589	5525.2533566291
0	13109	695205.298590424436	5544.201683339
0	13134	696528.110639666617	6078.346915139
0	13148	697112.403285852146	4942.0620570261
0	13157	697793.911730107157	4685.9695648162
0	13165	698396.977252888574	4930.6590819293
0	13174	698866.339023017247	4982.9700688454
0	13185	699186.933651051389	4718.8961774189
0	13202	700240.69042435714	5357.3998867304
0	13211	700611.186406704412	4732.2943001495
0	13238	702939.127926913749	6529.2987517843
0	13264	704664.963584521594	4335.6769857764
0	13286	705632.353378341956	6613.3360234832
0	13320	707171.003117828658	6257.6053747254
0	13331	707493.818224633558	4767.9709084096
0	13345	708409.60829016762	5217.8683253561
0	13360	709295.039618889287	4929.9730390129
0	13382	710264.483786689015	4463.7970004167
0	13390	710568.79019440234	5662.2257982059
0	13402	710850.647346854679	4792.5831430656
0	13416	711496.35229990578	5349.7594672231
0	13458	713665.807347504197	6193.7557351526
0	13472	714218.302315733728	5055.1445628271
0	13481	715130.390877787722	5874.8733841497
0	13490	716139.29236568747	5480.4148899411
0	13498	716555.225376348319	4036.131205214
0	13510	716848.451652224564	5433.8845898258
0	13555	718359.994912472194	5799.8433665913
0	13565	718940.532368440646	6343.8825603393
0	13617	721272.41774551927	4574.6329307727
0	13631	721937.656832270065	8366.4594149564
0	13639	722180.091670615597	4911.1314025605
0	13656	722690.445494495706	5813.8279721317
0	13661	722978.898108582574	5590.4793535647
0	13672	723372.962399622884	5046.2917904458
0	13723	725289.436913779775	6219.7135739695
0	13728	725596.017999040799	6239.893324824
0	13736	725861.987444737715	5701.2953499353
0	13742	726181.681602594953	5515.6886115344
0	13751	726900.901078401653	5837.7749058549
0	13785	727993.801028859906	4978.7567240509
0	13810	728945.793817001536	6856.3370065184
0	13815	729264.423414473657	5807.4542708805
0	13821	729575.372223876448	5882.8672752844
0	13829	729890.423623293664	6826.4237501321
0	13861	731730.851019407541	4723.1662176668
0	13867	732062.943879353397	7654.2205528119
0	13872	732339.452643631458	4581.1186372573
0	13877	732620.316146490915	5222.8395025061
0	13893	734046.359497765014	6020.7854698912
0	13937	735811.084529462673	6209.9579403467
0	13947	737939.448462909813	6841.5005056428
0	13956	738348.786014309179	4489.7768877657
0	13967	738735.84250142517	4587.7154013884
0	13987	739398.200725282398	5284.277689534
0	14001	739962.67476798624	6017.4115430093
0	14049	742869.665594284944	8651.1872302374
0	14058	743344.531425439016	4713.3807772448
0	14066	743679.395949155754	3776.8942615402
0	14075	744220.666028761889	5100.260390813
0	14093	746110.492643608105	4436.8115440637
0	14113	746645.013782412273	6328.2069089825
0	14124	746935.831864554178	5239.8295105084
0	14156	749383.63342580335	7240.7233140001
0	14164	749678.746152802697	4605.5174076796
0	14181	750175.546268017993	4055.8252825123
0	14203	751578.08694716793	4785.0694049757
0	14232	753218.434278508312	6347.3381891913
0	14243	753442.891689851925	4608.3359248405
0	14263	754307.268119218314	4653.7566645215
0	14272	755394.592749466928	5340.1615212437
0	14289	756194.958330916131	5258.0130232904
0	14297	756638.301771745932	4940.0688277327
0	14309	757282.244341477135	5137.5332035363
0	14314	757613.866282536036	4326.1812538757
0	14344	759826.491495118278	6439.6217722906
0	14387	762252.083500985454	6684.0390641148
0	14409	763309.127929881626	5390.3920051352
0	14429	764066.613516766187	5300.3510740437
0	14437	764358.339760619937	4666.3826453531
0	14449	764690.96453860028	4614.3798746783
0	14459	765276.706745672093	5159.5402941709
0	14468	766101.429155838588	5767.855282926
0	14481	767283.304707000153	5217.8566738914
0	14486	767632.046852874779	4901.9583638807
0	14507	769295.181854024856	5795.5382950362
0	14572	772785.816519033877	8168.4385299197
0	14587	773418.110558573454	4256.6936581956
0	14598	773715.87876963511	5230.801999628
0	14609	774289.290441977244	4851.7420245945
0	14617	774576.865265493351	4572.6805429405
0	14646	775802.464785630828	4729.2106544575
0	14654	776141.504428485128	4625.9730528539
0	14665	776696.306292458353	6506.8606883878
0	14677	777445.564532751134	5264.8635971776
0	14707	778703.886796485916	5187.9908151683
0	14732	779854.382910407667	5433.9381210651
0	14741	780205.012549092989	5490.9043027663
0	14758	781188.97014766414	5219.0031987666
0	14770	782197.304447631221	4642.2350941171
0	14778	782521.706866300943	5350.6500576691
0	14787	782811.742098077733	5109.3756630994
0	14800	783428.467193524169	4462.3775100198
0	14818	784576.631955286532	5463.3885036203
0	14847	786718.173532129412	6335.9413568188
0	14869	787696.969391029357	5171.4583489049
0	14895	789169.266634716749	5394.2620695849
0	14908	790347.681885453759	4231.6385968667
0	14919	790722.219264092193	5220.5651587514
0	14941	791660.719565654322	5178.2214926909
0	14946	791981.363945180166	5223.2167160114
0	14958	792624.046884665056	4761.9495194111
0	15002	795542.739484041841	7578.1455230697
0	15024	796492.351280539299	5992.6628416722
0	15035	796848.833783966155	4457.1885579825
0	15040	797122.397406066014	6203.5135389865
0	15058	798233.672338062886	5494.3999824446
0	15086	799436.063837187242	5559.0874640561
0	15094	799717.451344394379	4789.0327904106
0	15114	800261.345240201919	4813.2567603024
0	15158	801970.73437045063	6160.7693044314
0	15170	802791.392266461587	4237.48933805
0	15175	803087.76799165466	5883.2721012811
0	15201	803972.926444235277	5328.7481338208
0	15238	805074.982897497527	4885.0893982282
0	15243	805410.575460899811	5846.6029950155
0	15249	805732.748814299166	5280.221426529
0	15254	806052.406814467075	6061.3626400568
0	15259	806387.78897025703	6030.5065158291
0	15293	807724.444363277631	7235.740159707
0	15304	808280.178247138843	4519.0279479107
0	15324	808877.919089632602	5443.2591654654
0	15335	809481.243639283181	5709.5628685194
0	15347	810193.424300899746	6139.9712648801
0	15372	811207.548652419098	4603.3679028587
0	15383	811482.712061261639	4874.3668385872
0	15433	813282.77677150075	6164.5838640797
0	15444	813837.462826364873	5779.2743075075
0	15456	814651.600646030106	4726.9333511486
0	15461	814977.247028608097	6239.0601792763
0	15473	815610.477126707343	5068.2229832621
0	15484	815928.370808769669	4557.564533149
0	15504	816533.433550494491	5204.5446964564
0	15518	817139.033845994143	4874.7721866541
0	15526	817468.497753473778	5569.6713016355
0	15545	818353.80966438193	6794.4628322286
0	15563	820015.894232390158	6961.0675094556
0	15572	820375.06691741082	4673.486276872
0	15616	821912.690723997185	4719.5428526202
0	15622	822210.671201422977	5844.9872734377
0	15642	823000.288088638442	5346.6282540784
0	15665	824674.384450218726	5574.7073839202
0	15682	825154.418241903902	4722.4619052632
0	15701	826042.929455738439	5337.0633138072
0	15710	826304.774261805061	5372.8768978966
0	15715	826635.794734739877	5563.8985606522
0	15735	827475.42105598639	5086.8854291437
0	15740	827785.927967749403	4901.5546772498
0	15766	829484.466139130025	5383.4262651866
0	15778	830412.700522915266	5573.3861280526
0	15784	830694.86427596266	5723.0268468357
0	15805	832707.45906820662	5888.0776443383
0	15813	832951.604464173904	4698.8456916174
0	15843	834889.775550982464	5993.3289798988
0	15907	837510.129494495534	6667.1057000906
0	15915	837823.830988567555	4926.3406777095
0	15932	839009.363841796047	5609.458088642
0	15938	839258.918518903188	4418.7357489996
0	15960	839948.078994313977	5058.9225427398
0	15969	840214.326276143246	5177.3972259333
0	15980	840536.464728013138	5151.3499501906
0	16010	841658.900988245512	5988.6531441751
0	16016	841912.233188933956	6240.3325921109
0	16024	842248.920392425358	5372.5901622265
0	16050	843541.578034413281	5869.7770875743
0	16075	844641.807930847183	5304.357490497
0	16095	845360.390669752225	5014.1184728354
0	16120	846333.264335434336	5617.3379276455
0	16137	846942.234265244167	6218.0907415284
0	16142	847237.359469346305	5076.0311342827
0	16150	847579.447766045015	4734.9824958393
0	16159	847841.511493045713	4541.1678406069
0	16173	848599.56453074816	4712.5564734409
0	16193	849842.643135378428	5336.1683719383
0	16201	850173.674162970484	4881.4183720718
0	16218	850950.038230180913	5311.2276699398
0	16235	851978.574176240945	5674.4246435707
0	16258	852910.810675629742	5249.0355197126
0	16275	854266.207674980826	5616.9346895387
0	16295	855266.937520362465	5154.968553471
0	16312	856181.081322570857	5395.730966838
0	16326	856981.879700037361	5253.2841764073
0	16335	857843.236902727043	5703.7158463847
0	16347	858587.313001380883	5199.0422279263
0	16364	859285.988154582734	4792.7924215979
0	16381	859848.196762062015	4737.5450401443
0	16405	862899.44419295678	6992.6610209727
0	16417	863712.528121439072	5319.5232807899
0	16422	863988.53277349267	4755.5765975394
0	16457	866474.768774034375	6656.0846861207
0	16487	868553.408933542797	6443.6990497509
0	16509	869517.912061140784	4702.7887263265
0	16526	870205.564972489996	4587.8424792526
0	16538	871566.167005737028	4227.4125815944
0	16544	871808.197702825201	5976.6353657332
0	16559	872729.897466508856	5308.5876657453
0	16614	874798.700268965007	6444.5428362408
0	16619	875089.880633915168	6146.4939984435
0	16637	876763.784592143329	7158.1182468126
0	16649	877131.39200580241	4609.6911983857
0	16657	877434.211801661285	4772.8571501349
0	16665	877701.885784940133	4888.5181474973
0	16682	878414.070805999488	5249.3594652399
0	16724	879995.832208058299	6913.5100103488
0	16733	880319.779533146012	6255.3732590269
0	16747	881701.358257683098	6420.7450797228
0	16762	882117.806383242761	4504.4425170777
0	16798	883248.720878387324	4808.6404826937
0	16817	884134.868380851143	5744.7264544879
0	16822	884424.246689969454	5798.1507369328
0	16831	884742.156899374022	6063.8847416035
0	16847	886859.388348553303	4810.6547573437
0	16852	887110.002169058149	5059.2246858236
0	16861	887362.587645487075	7126.3160503994
0	16866	887645.540685143494	5338.871929729
0	16875	888103.48960599746	5162.6927143794
0	16952	894256.460945262643	11308.366812175
0	16957	894548.595086507863	4611.8923374369
0	16963	894881.460994202431	5077.3655683327
0	16980	895993.769251991412	5908.6749757804
0	17005	897219.197472817486	5972.5383188936
0	17014	897545.338712191427	4617.5719096897
0	17023	898883.495578866637	5604.3752852224
0	17035	899340.615828145075	5725.2310978603
0	17049	900474.962659564181	5156.3553127349
0	17058	901352.239200046633	5312.2629227242
0	17085	903454.20045032068	6871.6378001546
0	17132	907561.866640349742	8318.5495141168
0	17138	907869.751441229617	5355.5096074495
0	17174	909241.084167114066	6384.3787021017
0	17180	909550.382436881892	5502.0125191405
0	17200	911120.087684974429	4665.0280971378
0	17206	911424.416707670797	6174.2719201921
0	17232	912390.195482613004	5439.972188572
0	17249	912997.428011440791	4844.0097388896
0	17273	914208.960061731036	6244.6243457071
0	17288	914692.508029099983	6310.340569896
0	17315	915885.352792226134	5393.2997572879
0	17324	916332.737145963406	4525.0514984354
0	17344	917349.696819574784	5142.1185081848
0	17352	917649.034127893843	4796.3343010026
0	17357	917955.49966402625	4997.753998215
0	17367	919232.867114886698	6005.7443758837
0	17381	919640.713305748395	5144.3528817669
0	17412	920860.214637099702	6316.97076046
0	17420	921264.875356301765	6355.7130779752
0	17460	923859.860796271501	7208.0355053222
0	17492	925056.848419059546	5564.2182632398
0	17502	925699.364504562917	5761.2823757888
0	17517	926144.568759417373	6013.263786958
0	17528	926749.756400202684	5867.5521641608
0	17539	927350.390932086642	4389.887000594
0	17551	927664.731090195426	6192.7692583256
0	17573	928525.350135826429	5489.0995878874
0	17584	928810.762663951415	4611.7898866179
0	17598	929482.63109495124	5373.2528275152
0	17648	931187.371433712634	6350.3436000596
0	17665	931825.527897510109	5882.6570255007
0	17676	932112.033647727125	4509.8450359554
0	17698	933010.969592837812	5049.118558886
0	17703	933309.295555986793	4138.2247033582
0	17723	934023.849961784594	4356.9871142816
0	17732	934347.56257846144	5732.2313075534
0	17740	934655.876360293701	4539.9321424032
0	17748	934908.961771418231	4805.4403724607
0	17757	935238.667760677907	4765.8050154241
0	17782	936221.142492914834	5144.312683123
0	17790	936470.997462327714	4530.3085086144
0	17821	938185.539186335591	6149.9834740835
0	17837	939468.721256004931	4518.6725282279
0	17847	940084.822169831133	6706.3623739716
0	17864	940696.522483513454	5167.2726625014
0	17882	941278.104498750352	5027.0385876046
0	17901	942194.153121589323	5279.5103603011
0	17945	943676.80700691872	6241.1161792962
0	17956	944268.829502618519	4810.8176427864
0	17974	945533.852643957855	5433.5359156707
0	17991	946065.824738917048	5024.0631248575
0	18028	947162.573051518093	6170.3731099577
0	18044	947633.313014464984	5359.3144482119
0	18058	948206.456175721602	6101.7588231189
0	18071	948781.415636977583	6119.9074159197
0	18077	949081.774551073869	6276.9076974113
0	18085	949402.193548781649	5851.8215963292
0	18102	950022.603929715419	4031.2623620171
0	18107	950312.430078405575	5369.6045246074
0	18119	950990.101540757272	5043.0152938726
0	18150	951926.057189396415	5794.3774426491
0	18214	954473.413991574915	7322.5673211725
0	18219	954808.295715726895	7389.520977911
0	18225	955087.244857040859	7113.8065053253
0	18233	955583.305589203924	6290.1730250697
0	18245	955942.897486229798	4701.785692766
0	18253	956259.369841088567	5475.1804462385
0	18276	956875.3520067708	5195.088330021
0	18293	957520.311177430233	5850.4756222093
0	18298	957868.621040885402	5569.4983631576
0	18306	958186.250750435189	6316.3440668727
0	18312	958517.468884089803	5254.3056276979
0	18317	958839.694282129362	6379.6931499358
0	18335	960139.674361171922	6482.0470682926
0	18354	960805.987855703219	4803.2720565471
0	18381	963107.412564230184	6248.792654375
0	18407	964503.139832885525	5524.2228226563
0	18448	965956.211490973676	5768.6183002671
0	18454	966294.036656881584	5769.2607391876
0	18462	966819.39674912166	5239.7716872836
0	18471	967249.19667073275	4341.0598498988
0	18514	969134.05642996166	4569.6802215129
0	18539	970060.382002340644	5693.2109115432
0	18578	971564.389382010148	8387.6352723395
0	18583	971869.222936847116	7264.2329096328
0	18589	972172.280287522765	7068.1565535525
0	18615	972926.357096431664	5265.4782723702
0	18623	973225.859453464656	4361.9300764667
0	18662	974427.869520436193	5899.0957052427
0	18687	975310.832041990436	7156.9376466146
0	18721	976244.897964194196	6406.8516433491
0	18754	977722.583036725233	8733.6586201778
0	18759	977982.896080863362	7510.8203264822
0	18768	978281.330169573608	8012.8946636254
0	18802	979306.087841056821	8577.9599942045
0	18813	979917.046824068986	7700.6834088383
0	18821	980200.191622320222	6881.9794168731
0	18829	980474.809763758512	7342.1372878061
0	18847	980760.468069342064	7130.6762027307
0	18869	981630.608838577378	7464.2952330306
0	18879	982188.874107683313	7976.1518229424
0	18891	982521.527671358165	7266.2108633705
0	18907	983088.838216662399	7655.39724218
0	18921	983742.49982683546	7640.6715302651
0	18930	984044.301670755836	8041.2011615037
0	18943	984780.264506444563	8607.9492661483
0	18949	985076.119047279411	8847.6040766892
0	18957	985347.016107619117	7257.1732249794
0	18962	985683.927411823904	7075.1431229712
0	18974	986004.467912422051	6934.5528162418
0	18979	986287.219932727545	5728.7343039684
0	18988	986602.352349894716	6037.2633493647
0	19001	987153.139704378576	5714.5682936013
0	19023	988098.834698424417	5651.9759770512
0	19032	988488.113239502917	5701.2653606418
0	19070	991178.769605766568	7134.8759205931
0	19075	991494.906716911717	4946.002520348
0	19084	991854.637908810933	4777.684622131
0	19095	992170.560382714048	5008.5064844449
0	19127	994330.889279433686	5780.6802150511
0	19135	994782.15714254167	5137.8831652149
0	19181	997258.498735683325	5226.0717862129
0	19189	997539.733901417757	6885.9400545548
0	19211	998391.606126686111	5943.6394587424
0	19228	999004.975496152076	5301.5614857753
0	19257	1000411.619749291422	5483.3116138537
0	19262	1000728.373043995241	4549.5407238941
0	19277	1001210.388800487897	5091.6985253898
0	19287	1001861.984581337267	5667.3863238878
0	19319	1003214.588155596141	5826.7532773412
0	19324	1003544.969288050571	5967.2167391762
0	19333	1003801.621440431621	5368.7219392554
0	19355	1004717.540009870207	5375.4229006501
0	19363	1005372.183197133926	5575.3867275967
0	19384	1006678.705207084439	5598.8707710423
0	19392	1007014.914786025824	4976.6644005212
0	19417	1008016.3397736925	5446.4579966391
0	19426	1008291.937116062566	4560.7161117149
0	19460	1010212.853859617852	6096.9595638913
0	19477	1011077.850452910285	4354.8340987404
0	19482	1011325.371926033862	5302.4359951432
0	19491	1012192.592699607997	5029.2833161426
0	19511	1012971.68369523868	4824.0634742738
0	19536	1014012.741917605886	5532.895300549
0	19545	1014325.659559345195	4769.068214481
0	19560	1015772.620254973547	5674.5916529177
0	19569	1016984.600750323509	4726.6195960527
0	19581	1017571.338620553472	4647.6071487861
0	19595	1018429.657388906885	4977.0727424728
0	19622	1021157.430061067997	7004.8487354599
0	19634	1022513.158092467767	5165.6031058922
0	19640	1022792.916742672485	4330.4005727639
0	19685	1027146.000285823324	7817.6669983998
0	19726	1029864.104620517975	6560.8188633741
0	19731	1030200.883552725675	5184.0816661865
0	19740	1030498.456570605996	5156.4421086691
0	19766	1032517.808518082034	6811.7629118712
0	19780	1033166.256150767423	4744.3440372326
0	19788	1033490.104438297798	4420.1666488546
0	19825	1035409.472438037842	6257.9722765563
0	19839	1035999.843213508801	5552.0095530914
0	19851	1036607.014838132411	4700.405494583
1	2394	121627.084012796313	137.23250647012
1	2400	121918.531620410562	413.78663703434
1	2413	122553.005589143239	28.397540045116
1	2428	123815.856282500168	0
1	2437	124290.271714848851	0
1	2454	125788.591838872271	249.20383686815
1	2466	126083.093278198247	86.202302061753
1	2480	127260.406712991792	0
1	2505	128257.474178658377	0
1	2516	128566.487459081103	185.66230954535
1	2530	129287.649640442532	213.63545817987
1	2561	130205.378940104582	311.3228029481
1	2567	130522.711500049581	515.37485357901
1	2572	130871.745411756186	856.87376177069
1	2584	131203.228025093429	143.42662470278
1	2592	131489.380337411429	356.44070126223
1	2600	131831.219097564993	33.617583192175
1	2639	133555.56261701037	158.97668331264
1	2699	137100.801149051788	0
1	2716	137798.773229863754	219.60964421007
1	2725	138658.010955953237	0
1	2734	138982.395799559851	0
1	2743	139875.909134009539	0
1	2751	140215.40651487238	280.05574379658
1	2778	142364.186001954811	159.3301273731
1	2811	143922.089289765923	0
1	2829	145276.660820963859	0
1	2849	146454.705853229145	181.97267795491
1	2855	146806.031012218777	400.26661575596
1	2864	148162.045496608937	0
1	2876	148460.646783732104	182.90343742782
1	2899	150282.928353754207	0
1	2924	151320.703170524543	97.195298911126
1	2932	151641.436119735653	3.751804504536
1	2941	152088.907885899642	0
1	2976	154462.111736849138	0
1	2984	154801.015718876673	0
1	3004	155400.079256223518	91.032706148771
1	3012	155674.338180453174	57.129462431873
1	3044	157991.166120204829	229.81501185799
1	3052	158343.342238619521	332.59838512891
1	3061	158782.763304866548	0
1	3095	160732.74703189114	0
1	3103	161122.633955671562	0
1	3112	161488.630583023793	125.23063548321
1	3120	161739.311145222225	7.147848563421
1	3129	162085.82911514858	298.38691133963
1	3151	162847.231046266628	264.34536421182
1	3208	165868.465948865991	127.68585739692
1	3244	171584.396473411144	0
1	3252	172183.062500330619	0
1	3261	172705.430673635431	0
1	3270	173992.324179084382	0
1	3279	174493.089858806686	0
1	3305	176421.986143331297	51.467852966179
1	3322	176975.682255046089	250.96230142669
1	3331	177971.369012633583	0
1	3375	181445.013537074128	0
1	3392	182319.289234751307	0
1	3403	184547.752383297157	0
1	3411	184862.350838133345	94.565200159891
1	3419	185138.728062390895	196.36463036438
1	3431	185477.972968368776	103.98387500178
1	3442	185748.52149292606	6.213098463141
1	3451	186050.188882324354	68.464140312929
1	3464	186600.424686324511	265.28324863591
1	3478	187124.558607690369	64.083467610515
1	3487	188114.093244673318	0
1	3523	189284.376525047937	114.90359436281
1	3548	190164.346507795079	136.17351923608
1	3582	191521.751935268918	216.91296766145
1	3590	191779.660960445061	312.20278028983
1	3599	192108.603104593956	391.0780008513
1	3610	192441.798102994216	193.51620541048
1	3618	192715.746455091946	349.69192121957
1	3624	193020.890616475968	474.63199086457
1	3654	194232.009360241045	95.2481824975
1	3662	194501.001767036641	101.95994391856
1	3671	194978.969541561584	0
1	3705	196519.373542346079	368.17874486773
1	3719	196814.841776716004	86.215837920954
1	3746	197936.381082612289	248.56569027242
1	3766	198549.901908071629	253.56015182889
1	3789	200193.907817155344	0
1	3800	200511.769820478282	163.46226118497
1	3820	201086.97807403115	167.00121297352
1	3825	201409.545267254765	470.4857417912
1	3857	203233.588339087402	0
1	3865	203530.138683001694	246.60377213379
1	3873	203768.228179592858	86.018816786075
1	3890	204597.726574376253	0
1	3913	205255.278017015093	185.67614632767
1	3921	205557.297642214801	405.53436313626
1	3935	206133.300310880205	58.022547244633
1	3943	206487.892832707161	140.06932527085
1	3991	208860.952171668261	161.51205744958
1	4016	209775.922988626432	94.494416820375
1	4052	213173.413101767205	288.9797775557
1	4064	213461.609564430833	131.4323957496
1	4077	214134.124565154388	0
1	4087	215718.921802647138	0
1	4114	217728.664277713481	121.92327839606
1	4130	218390.986074338296	0
1	4139	218912.64878305309	0
1	4156	220106.827156083946	17.448903230499
1	4186	222574.080110623608	66.599750605732
1	4200	223435.114768460985	0
1	4218	224650.612055293418	0
1	4226	225403.283047529343	0
1	4235	225699.226405978937	44.433964000864
1	4243	225957.142300050876	158.14853957642
1	4269	227803.503476373332	0
1	4281	228059.680813676725	73.368674378887
1	4306	229147.257457608477	121.46453047049
1	4311	229469.465509917765	341.33775837939
1	4328	230239.587845123788	35.687081242245
1	4339	230543.216869931182	49.232213483064
1	4353	231098.587828415501	93.407795364386
1	4382	232781.1332020928	80.299088226087
1	4390	233120.765002110618	127.32391685593
1	4427	234720.872134271132	304.46870258822
1	4436	234990.113655309738	544.82271865956
1	4455	235902.436103378184	273.86667384085
1	4463	236456.793300179792	0
1	4480	236985.665480911465	63.816319976178
1	4509	238639.035795307541	122.51977539029
1	4523	239311.726696371671	0
1	4531	239622.6779199442	56.331833731038
1	4539	239934.798840236002	128.77881886294
1	4574	242407.019750847607	0
1	4591	243188.224296259529	174.15691842381
1	4603	243511.365147040839	155.4710793368
1	4634	245362.263675639202	0
1	4652	247287.188395488912	0
1	4688	250329.2192029127	0
1	4697	251464.77169437948	0
1	4714	252032.666927135327	149.43535728815
1	4722	252335.302928722637	297.92814466654
1	4730	252847.701789885842	0
1	4739	253155.828987069618	95.402407853708
1	4783	256480.899928516116	236.45701062566
1	4808	257549.475165909858	0
1	4817	258591.100110006237	0
1	4826	259146.824000295304	0
1	4835	260014.149099438583	0
1	4852	260642.945814561474	221.64701599236
1	4863	260939.676823539467	231.15290777719
1	4868	261246.993111931764	488.39574201704
1	4877	261548.360465708209	108.07272905855
1	4902	263122.546926090013	159.15237169692
1	4928	264568.770236832503	0
1	4951	265295.521136085356	323.31951695761
1	4979	266581.365397139008	0
1	4996	268211.261058303713	0
1	5023	270055.093723736531	278.74196099439
1	5040	271516.005037314286	144.63073793615
1	5058	273416.914587637454	0
1	5070	273702.444637595934	279.29921504679
1	5078	273994.809511867034	527.32834581264
1	5090	274314.772126309831	262.82602047765
1	5098	274603.952743853113	473.62524333712
1	5103	274860.847051648115	342.97000020499
1	5112	275179.531594553081	200.18408933762
1	5125	275818.056764467809	264.67594694598
1	5137	276097.525826088846	111.99099104862
1	5188	278625.441785261736	210.68239271706
1	5196	278876.616056910991	381.55738226748
1	5215	279429.608779868073	62.690290882852
1	5224	279720.595232899171	135.80992546116
1	5254	280981.221782340053	246.96196632965
1	5277	282603.507483221105	0
1	5311	283846.412244785392	48.85563335814
1	5319	284159.954445585789	90.930602627728
1	5327	284426.033295558539	121.79815634044
1	5336	285349.35908139569	0
1	5371	287678.317131217363	32.023476235981
1	5408	289495.240897926509	183.13848953064
1	5414	289808.10783209474	350.80614647895
1	5422	290072.980542477768	107.77551585826
1	5432	291798.876686709299	0
1	5443	292136.264522223784	295.1320959132
1	5474	293913.264020551398	270.18134099563
1	5483	294204.042639641973	280.37749046886
1	5541	302616.705893927958	0
1	5549	303136.168516819998	0
1	5557	303390.335230174463	217.04912770781
1	5566	303735.269005790088	335.0246765411
1	5574	304236.83546884024	0
1	5594	306901.898560754118	0
1	5622	307790.11389545513	47.420851831395
1	5646	310788.993164346544	0
1	5669	311409.583881253961	242.57399785131
1	5674	311721.391480241099	416.96461675812
1	5686	312006.827271865473	656.3004960144
1	5694	312331.304458067921	455.44885100873
1	5699	312577.770582905229	254.34196079112
1	5708	312909.688874366931	154.84288821575
1	5722	314178.59785518347	0
1	5739	314925.270774479366	0
1	5784	316883.125257065463	210.55650086908
1	5796	317197.427702255808	219.324383756
1	5804	317484.322728133476	10.490390361909
1	5812	317750.44757475611	77.57764580343
1	5861	320638.058176015717	18.647628270055
1	5891	321912.962758358814	31.164853045391
1	5899	322232.010378383503	194.90200921977
1	5908	322754.361790594176	0
1	5916	323057.931016938009	67.527888209783
1	5934	324154.023280761132	0
1	5942	324443.595404205849	163.83550145057
1	5950	324724.646298121233	0
1	5970	325703.973443991876	284.2115072218
1	5976	326011.128500713631	522.03971937393
1	6009	327324.556840185131	0
1	6061	330630.139424997263	0
1	6079	331783.803596917421	122.83126344818
1	6087	332250.410684794908	0
1	6096	332723.993818330263	0
1	6104	332972.415809276362	113.90504437983
1	6115	333285.662714193332	124.3569245161
1	6121	333593.787790212598	352.14179896036
1	6130	334714.901515191281	0
1	6147	335798.349174310604	0
1	6195	337349.887593076314	251.37984200481
1	6206	337686.754334830388	552.40328149134
1	6218	338003.787690296819	450.43800696444
1	6226	338335.55967472034	654.8356619841
1	6235	338616.887405499313	683.20172740172
1	6240	338896.693712115981	633.76345848728
1	6248	339220.091941167601	882.93282086621
1	6270	340142.906708479183	237.76275371744
1	6284	340775.910510928546	223.92918174311
1	6334	342682.832610127697	177.90165561168
1	6382	344715.557420654007	271.39626990482
1	6390	345051.316441760697	48.914653672606
1	6398	345343.576204856203	20.599782017225
1	6408	346930.15803293636	0
1	6420	347217.092239396106	68.405009152622
1	6428	347488.191732076931	240.5662527851
1	6436	347810.287139533351	192.56399038355
1	6450	348377.662882560991	0
1	6483	349554.168410266895	0
1	6501	351307.824072948634	247.26510414306
1	6532	352239.487424347791	107.06440628705
1	6541	352491.482677746325	284.50114203287
1	6552	352779.903377087551	153.02169529464
1	6560	353080.9209484888	451.56844221798
1	6569	353398.582141450067	185.95730766566
1	6577	353673.202922788623	108.95242552801
1	6596	354581.574228407103	9.967760876415
1	6627	356430.754102657042	0
1	6678	358316.054598453127	0
1	6686	358721.04802101175	0
1	6703	359325.771443998781	82.278215650582
1	6711	359690.319398234139	0
1	6720	360710.682497691453	0
1	6732	361091.343741218377	194.60712985451
1	6745	361719.727366708398	0
1	6774	363126.317734548252	172.0428119546
1	6814	365450.000845446183	174.69365100116
1	6841	368224.675993736436	0
1	6850	368905.093242279329	0
1	6861	369242.534902470715	113.02537667055
1	6873	369549.868737815741	26.281058684855
1	6878	369838.635712510932	294.40524007681
1	6892	370494.263344462946	177.59526300188
1	6921	372638.937460037488	31.5310111712
1	6927	372942.628164097901	321.50491585022
1	6971	376403.711634914847	0
1	6979	376942.243812125753	0
1	6997	377304.218908425074	327.50088643164
1	7002	377606.641663352637	399.97953363785
1	7022	379320.225269706143	0
1	7031	379725.327168597133	0
1	7082	383099.356443955878	130.67259615823
1	7099	383898.466846162147	0
1	7108	384237.045081762562	79.891402965713
1	7116	384521.304329704122	78.973707752491
1	7125	385280.044815543199	0
1	7133	385676.533975164614	0
1	7142	386208.405582908607	0
1	7185	388963.715177585752	0
1	7210	389822.313998021362	111.14064830865
1	7222	390110.757289972043	202.61289354877
1	7230	390382.780080460771	438.03495487238
1	7244	390979.059121894517	72.164362293794
1	7252	391463.004388790543	0
1	7261	392126.393588274016	0
1	7290	393682.886222871813	103.47479346218
1	7306	394277.716270093755	19.509155708499
1	7315	394543.207679947348	174.53225661519
1	7354	396640.617357391983	195.04379774668
1	7363	397052.748668994726	0
1	7371	397368.18086767556	303.78093759165
1	7405	399168.25559732656	0
1	7414	399470.091366956508	120.53719977267
1	7431	400332.228293442676	165.78400416182
1	7457	402123.066329627333	0
1	7465	402703.221538043353	0
1	7485	403410.908121354403	197.23466771455
1	7494	403722.942758136367	268.56681208386
1	7516	404819.755553600518	0
1	7536	406226.620568369107	368.77838255243
1	7553	406835.67466677046	206.95882956346
1	7575	407909.810474295057	0
1	7611	410652.120390453446	0
1	7619	411094.637275657538	0
1	7628	411472.241528619923	214.75789305968
1	7636	411764.450971399559	243.87939917206
1	7664	415221.763073470006	0
1	7675	415516.730085205584	13.191024709504
1	7690	415854.972850303254	59.929485639775
1	7701	416206.124926115902	11.714127131781
1	7706	416482.16017662662	286.74991417244
1	7731	417643.76099926547	0
1	7739	417877.263060728542	161.93835354651
1	7760	419628.169030778575	284.17006041915
1	7807	421515.435336173068	36.594626778072
1	7824	422387.574858286234	129.11268387507
1	7833	422738.065827476194	154.50861372096
1	7841	423040.572777148033	233.54297282886
1	7849	423401.913934229689	0
1	7866	424025.063824535072	0
1	7874	424291.333104080508	153.23836558942
1	7883	424545.507449192388	225.8849773282
1	7894	424883.004453683062	227.90146938479
1	7917	426502.996347926069	281.06554835703
1	7928	426797.438391425999	153.71029666508
1	7959	427892.091004938073	284.30486151401
1	7970	428145.896385057139	175.9561206847
1	8045	432961.166758715478	0
1	8055	435325.28553790318	0
1	8075	438010.495956847445	0
1	8093	440459.382181693372	0
1	8117	442207.97822435547	252.49477297917
1	8123	442481.037699114525	512.64653108872
1	8128	442744.395176622339	570.22033959069
1	8137	443577.458632400804	0
1	8145	443856.733310541837	145.08265439265
1	8165	444487.492334281088	137.77277800874
1	8170	444777.539888440312	404.11923180179
1	8182	445025.134014910841	99.812953229698
1	8187	445314.943714284644	373.89642690418
1	8196	445811.712937776628	0
1	8224	447048.264976049439	247.62748840766
1	8232	447317.29771803655	23.231863421825
1	8282	449131.040386304228	24.278692265739
1	8299	449800.047151365542	147.93408826617
1	8322	450882.482129288106	0
1	8366	454371.009349410541	0
1	8374	455121.172889259259	0
1	8392	456265.674311816627	0
1	8403	456556.482652228183	254.32105376017
1	8409	456869.586762276086	361.63569941629
1	8417	457147.948596181567	36.225892788681
1	8435	458826.016941773481	117.72378018253
1	8443	459130.263561692763	0
1	8451	459392.128982975635	214.89991602586
1	8477	460341.552446532736	148.98383790487
1	8511	462035.961631383905	0
1	8519	462328.219396080361	224.34514212875
1	8536	463042.719929095735	81.338907932299
1	8544	463301.829057427391	115.94192962262
1	8577	464460.059519940717	241.36528022352
1	8595	465590.650672833025	301.49545973747
1	8629	467315.636546683883	82.339061165454
1	8656	470222.499398964162	0
1	8665	470857.90070345409	0
1	8673	471158.06123661774	113.9128412614
1	8690	471699.0447494827	0
1	8699	472371.225297474383	0
1	8707	472750.741174586853	0
1	8751	475886.97840946686	0
1	8776	477004.578811924221	123.08436977664
1	8786	478331.091844930712	0
1	8794	478676.839697676481	182.05154716634
1	8802	478931.07495585107	203.18246428875
1	8820	480109.983373503414	83.842900056175
1	8837	481165.838257845216	0
1	8845	481643.346971328873	0
1	8888	484293.189833008772	255.66017929809
1	8906	485191.753632107984	188.25322768271
1	8922	485971.76889734103	0
1	8932	486871.013436844205	0
1	8941	488274.456778558596	0
1	8953	488589.994239665751	115.71276377686
1	8978	489726.243306006831	72.015730088236
1	8986	490003.987551017044	292.7554702025
1	8995	490343.27895802392	203.66896302438
1	9017	491625.34513416037	0
1	9043	493353.976772882744	111.09013469285
1	9066	493947.448791613651	257.95438714974
1	9071	494273.98740622985	356.42737838929
1	9080	494595.63663619562	145.31677368108
1	9091	494931.94595033138	250.49824113757
1	9108	495552.841410181092	285.91384941409
1	9116	495908.187466256269	248.43384099308
1	9138	496790.700669479583	214.52928050428
1	9143	497084.731391637578	371.10888048229
1	9186	499228.762066684656	0
1	9220	500648.739274914272	0
1	9242	501307.719945845343	92.576116050627
1	9254	501599.206890289591	317.18277025136
1	9259	501924.68505684482	462.87973508473
1	9264	502238.874650041646	732.30961041588
1	9287	503575.118298091845	34.990778546454
1	9304	504459.397066041159	0
1	9329	505674.619314024331	111.39331009753
1	9344	506003.821812582082	164.35617340654
1	9363	507373.112019488235	0
1	9416	511567.120505789402	0
1	9425	511860.342870613762	47.981289238922
1	9435	513497.101405462976	0
1	9446	513804.977025323848	196.18436282684
1	9451	514115.156663427792	357.63371378824
1	9463	514413.938191023481	176.13730099626
1	9468	514720.30592446175	451.88230268235
1	9486	516153.803324702889	0
1	9512	517768.134085309374	40.682457444461
1	9554	519868.506350562595	0
1	9563	520607.540515214541	0
1	9574	520921.093887386867	286.20105243584
1	9596	521904.208463724466	0
1	9608	522224.618000111145	234.25723814686
1	9616	522536.78982446334	512.96899013864
1	9624	522863.541481527675	531.78646618717
1	9630	523180.803226801054	444.08298081364
1	9641	523454.167092539953	85.632784581203
1	9672	525050.298242546585	245.95411344509
1	9689	526040.605635544456	255.88170317179
1	9704	526316.392297172551	44.055855151823
1	9712	526612.486878981527	186.07582065955
1	9720	526879.788083689731	261.0825872511
1	9754	527815.489413650339	134.52278873757
1	9760	528147.331017523686	464.04119609792
1	9765	528406.834615946296	617.28689820777
1	9790	529357.025997059966	326.37915342567
1	9798	529674.742105047569	17.010653820242
1	9840	531242.249060148075	336.53418676051
1	9846	531521.475210126131	464.94499448398
1	9854	531853.268381067203	153.8727724191
1	9882	532748.729884516666	281.38043189072
1	9899	533272.386859510314	66.651041308222
1	9915	533862.194768336587	178.67147606052
1	9938	534463.974448456163	248.89894064066
1	9946	534740.909800999324	510.66154080912
1	9955	535078.206323017725	735.72069535188
1	9960	535413.457351041453	986.41911663471
1	9968	535715.978882839505	1139.1868159329
1	9991	536631.797008997649	222.42849494874
1	10010	537268.571954310911	37.779620854694
1	10032	538138.210058002473	216.4330890856
1	10049	538777.657848760776	179.08347451403
1	10124	541884.196559092273	6.27987132039
1	10132	542245.669810529123	351.57265384521
1	10143	542546.103668743809	157.44729334773
1	10177	546211.428722822571	322.14086055276
1	10202	547437.941365748466	0
1	10211	547741.9899418998	168.84272487228
1	10219	548039.622255535833	70.108480720316
1	10227	548313.196485531834	164.31827432316
1	10236	549284.286355090643	0
1	10245	549912.295078527621	0
1	10262	550639.969510625787	298.19678989361
1	10299	552774.048164734647	32.839491088468
1	10321	553663.759129568909	49.790155594991
1	10347	555181.840466628049	0
1	10365	556875.736251049165	37.6669695247
1	10402	560628.847193545792	0
1	10410	560966.539466699888	212.60112889296
1	10421	561221.848045864698	246.89156226821
1	10433	561533.906294546149	423.37703437818
1	10441	561827.520224130969	575.80521581062
1	10446	562133.711850266818	827.98529731173
1	10452	562465.748216782037	745.03759397687
1	10460	562733.064224386711	121.45925401879
1	10469	563170.203477874007	0
1	10477	563642.744721892346	0
1	10485	563919.375616676905	13.689706350214
1	10530	565686.324462851772	130.91235502078
1	10539	565984.755957500873	411.10503128291
1	10562	566626.339064557378	169.22547358574
1	10570	566936.225642670538	459.53660225662
1	10587	567463.757565641863	80.775834646773
1	10654	570915.248954366351	0
1	10680	572719.951014240094	0
1	10688	573005.235172243421	75.079197492923
1	10696	573263.422464276791	173.16137702858
1	10705	573704.315130788185	0
1	10758	578410.560448940679	181.31300659953
1	10768	579440.276699746066	0
1	10777	580419.635352637664	0
1	10785	580718.46581011295	82.624044412122
1	10794	581742.334341590392	0
1	10829	584222.370121346366	0
1	10856	586876.071263666342	0
1	10885	591273.53877989497	0
1	10894	591545.593509393367	231.42612660813
1	10902	592022.610643444177	0
1	10911	592678.503052292263	0
1	10921	594029.095289309094	0
1	10964	597156.034982461424	1.128580843254
1	10973	597627.15694240837	0
1	10989	598275.314855179332	89.219692780727
1	10998	599057.905732273111	0
1	11013	599372.703972666582	106.94782179457
1	11018	599701.250492995007	418.69124333573
1	11023	599973.507772319628	671.75015197885
1	11032	600287.60658683791	0
1	11043	600661.351724111248	146.17654132627
1	11058	601006.316759167132	418.10938890734
1	11063	601338.426172098842	377.75163091326
1	11082	602252.700307661353	228.99627757233
1	11093	602511.005512443417	202.16314162182
1	11102	602779.107275966677	379.54125665996
1	11110	603068.009970187324	61.996765319798
1	11168	604948.938367987209	256.65599144641
1	11185	605579.057032830194	162.83469353994
1	11196	605863.58460670746	145.87232171105
1	11244	607741.570518633618	138.10259087601
1	11266	608838.992078486158	0
1	11274	609192.42431381415	0
1	11283	609449.33375715284	185.02515061285
1	11297	609769.278254827194	279.37178496195
1	11325	611599.570838247142	44.012142819063
1	11354	613053.888948632399	319.54294359646
1	11362	613326.29431286741	204.9119765662
1	11379	613889.312972302128	133.14743792723
1	11395	614490.323299704253	216.31892488021
1	11401	614789.258185814128	443.97569729259
1	11418	616224.549737484346	0
1	11450	617347.730592596831	75.103101720091
1	11458	617647.175147764592	361.89718890805
1	11463	618003.682380382965	701.43411920902
1	11475	618293.902756309121	269.26573707084
1	11483	618507.609354738506	30.464089718911
1	11513	619608.52719808269	225.90175709966
1	11522	619930.576147707261	449.52006425168
1	11530	620282.062963658601	344.34740555238
1	11567	621881.156252538505	275.72381353584
1	11578	622173.324415403616	496.38526408527
1	11606	623386.197723206757	178.53601179896
1	11614	623627.106777791616	130.47416437044
1	11648	624605.989744485712	198.26953533292
1	11654	624908.509823365416	491.57264532558
1	11659	625259.500128894499	733.60548980108
1	11673	625576.579211744755	971.88915587655
1	11679	625886.170536583038	557.46140358463
1	11684	626193.761221880053	628.23052310735
1	11714	627425.234476115299	163.03539917107
1	11731	628054.489088704863	267.45624907344
1	11795	630580.107081045868	0
1	11835	637052.166631822882	0
1	11846	637372.695261030299	117.16976592448
1	11855	637740.849670550151	422.24733230272
1	11863	638070.290455055437	655.40339201653
1	11868	638387.843415061761	584.89131648419
1	11877	638641.721700349478	4.113301116833
1	11899	641164.118957166109	48.701387653634
1	11924	642026.656784128231	16.161652279059
1	11946	642613.387949243958	248.89013634322
1	11955	642949.960955686459	537.71991729369
1	11960	643266.038441036636	657.2918084971
1	11974	643840.492991574884	35.775581661529
1	12000	645759.48192909252	100.76341636855
1	12048	648139.117855371901	144.12507202259
1	12056	648543.128852565804	0
1	12074	649928.987466441381	162.86405715686
1	12095	652098.612817421373	249.54369554399
1	12104	652414.279834817665	314.56278740571
1	12117	653046.040083872977	160.45169601181
1	12126	653455.836003925082	0
1	12134	653771.754289604364	162.80299309042
1	12146	654061.516396189177	46.030855116163
1	12189	657292.142222730711	15.083181539976
1	12203	657854.293377379301	268.85404936427
1	12214	658194.606658777599	146.86767594174
1	12237	659269.374960816054	0
1	12245	659604.022695510699	259.9159187009
1	12256	659860.532004269895	142.35531884994
1	12265	660164.433470563998	439.62120999115
1	12273	660508.310582906249	367.54383135291
1	12278	660777.606670554306	536.0136792445
1	12295	661436.021893538856	144.54237234991
1	12375	665524.722619070129	41.792319472263
1	12383	665856.111610887441	251.5332732867
1	12399	667841.612741882509	0
1	12408	668620.243562537307	0
1	12416	669103.677564988045	0
1	12444	670190.62660990894	202.02369790263
1	12450	670452.891317945411	445.05624282777
1	12458	670781.048442374115	0
1	12467	671162.35399389838	0
1	12478	671447.438409080073	201.52039301217
1	12500	672387.337615369513	5.788471603468
1	12508	672736.777218322807	0
1	12520	673049.264421765473	212.95650155483
1	12531	673352.922203445199	437.45039640821
1	12539	673634.790323461112	489.69115315935
1	12545	673912.168304453073	486.83230505759
1	12559	674244.725990011671	186.91992126483
1	12570	674563.350094190296	488.01873064431
1	12588	674891.542240912297	815.99649286826
1	12605	675228.376619027917	662.61024326939
1	12611	675542.588591612767	736.02281582426
1	12616	675802.559590338357	909.33700944607
1	12627	676032.065369336181	1036.578894922
1	12633	676319.284450686797	1173.6195804245
1	12644	676611.642751382635	629.39174071951
1	12649	676910.447151883574	901.45371184883
1	12677	677757.076220418774	147.40707606561
1	12689	678068.513821078687	101.81373381769
1	12708	678643.488851036456	58.294587942242
1	12783	681156.016058077794	74.524739644234
1	12843	683973.196048295753	127.13217876631
1	12857	684526.734819487819	146.13795290228
1	12890	686141.997661887374	280.40261881557
1	12909	687021.835881432692	0
1	12917	687318.105511973243	62.167590092729
1	12926	687645.595929733836	255.7064295389
1	12934	688016.13958808131	0
1	12959	688946.259848194981	126.63800274722
1	12968	689225.38973070721	166.37182719771
1	12976	689661.096907085445	0
1	12993	690449.763724527571	0
1	13035	692423.066086163827	252.72485733781
1	13060	693282.816572294356	174.87440700343
1	13069	693594.579030053927	128.26085909464
1	13083	693908.38644519584	25.017491024038
1	13097	694584.271260138589	116.23378650613
1	13111	695205.298590424436	322.00805279774
1	13119	695878.892106554934	0
1	13136	696528.110639666617	118.28146453718
1	13187	699186.933651051389	167.91629619267
1	13213	700611.186406704412	281.89980795919
1	13221	700914.289023226971	0.891280123675
1	13240	702939.127926913749	213.28061068974
1	13248	703245.794814403374	54.05484959185
1	13266	704664.963584521594	299.89700464522
1	13274	705015.246986372185	108.68259017571
1	13291	705800.686786272339	0
1	13299	706108.76127493207	50.697071142945
1	13308	706373.482120588748	226.88928790605
1	13333	707493.818224633558	21.766612281961
1	13362	709295.039618889287	131.88186598264
1	13370	709614.110552921553	358.59305928349
1	13404	710850.647346854679	191.76987110835
1	13418	711496.35229990578	81.785237507011
1	13427	712519.094171134326	0
1	13438	712789.472437625059	229.32089174419
1	13446	713114.322469237514	517.67266113617
1	13460	713665.807347504197	94.609930190502
1	13512	716848.451652224564	150.66683747804
1	13526	717153.159988389107	276.54246602506
1	13538	717475.490030460543	206.52976240548
1	13543	717745.326214579105	356.9074595612
1	13557	718359.994912472194	33.324303295062
1	13570	719069.72333981023	0
1	13579	719356.124674216849	0
1	13588	720160.692094802392	0
1	13596	720665.992991060596	0
1	13619	721272.41774551927	209.29157297249
1	13641	722180.091670615597	90.634860132467
1	13674	723372.962399622884	357.9180948139
1	13686	723689.389565447793	625.38969228624
1	13694	724020.809045079823	563.83990148667
1	13700	724346.167159559335	653.66221096731
1	13714	724648.904148881757	240.18082234024
1	13756	727007.684801740753	0
1	13764	727397.476643984783	0
1	13787	727993.801028859906	235.46702248578
1	13798	728290.83449346018	265.26046558632
1	13831	729890.423623293664	289.29703417767
1	13840	731097.947957267019	0
1	13895	734046.359497765014	187.35037122157
1	13909	734347.450071594771	402.18684661787
1	13915	734641.165269508442	527.24223376009
1	13920	734951.050844713812	802.92374467705
1	13928	735229.701847227564	1011.22348318
1	13969	738735.84250142517	104.69185323098
1	13989	739398.200725282398	277.79508733353
1	14003	739962.67476798624	60.173080370729
1	14011	740316.806873429752	0
1	14021	741673.681099544359	0
1	14032	741968.597154285853	272.59480024012
1	14040	742271.421723850916	128.51161204765
1	14081	745073.228745123121	0
1	14098	746119.720985505738	0
1	14126	746935.831864554178	142.8143223619
1	14131	747191.032512418753	319.93642310174
1	14141	748834.555765011404	0
1	14166	749678.746152802697	25.23469810585
1	14183	750175.546268017993	121.11503979481
1	14192	750936.945307625734	0
1	14208	751698.232944013182	0
1	14217	752144.711137940863	0
1	14245	753442.891689851925	155.20666119159
1	14251	753743.940315274426	357.07059244676
1	14277	755568.044436870631	0
1	14320	757918.73592474647	0
1	14329	758766.262442722482	0
1	14346	759826.491495118278	134.5343798514
1	14357	760166.414254723224	89.829590801255
1	14366	760501.755255025948	384.58880352475
1	14371	760802.581587928374	469.00771501575
1	14389	762252.083500985454	186.63546787673
1	14397	762730.088488994117	0
1	14414	763499.643558988656	0
1	14451	764690.96453860028	73.586549486077
1	14492	768485.076770007067	0
1	14509	769295.181854024856	133.76495364699
1	14517	769612.940141729897	175.39172434712
1	14526	770004.184722552883	0
1	14534	770311.140051566522	121.69444749594
1	14543	771073.254131173285	0
1	14552	771515.531375631202	0
1	14560	772180.700935573536	0
1	14600	773715.87876963511	199.98278831751
1	14619	774576.865265493351	156.4204761508
1	14627	774839.498837766964	125.39059144032
1	14656	776141.504428485128	171.53747958762
1	14679	777445.564532751134	274.50772411929
1	14690	777777.507572229603	222.43821871546
1	14698	778092.276601570612	389.91016659231
1	14712	778966.089683504354	0
1	14721	779255.578899977371	142.33544831113
1	14746	780382.232175310631	0
1	14789	782811.742098077733	286.23105595328
1	14806	783775.004565131833	0
1	14824	785501.654105340755	0
1	14833	786116.043288587044	0
1	14849	786718.173532129412	235.67545916596
1	14858	786950.721374939442	192.5741457707
1	14875	787862.097365253933	0
1	14883	788223.080987452562	258.48702648047
1	14921	790722.219264092193	222.53082522511
1	14929	791061.184765137046	142.30089805757
1	14960	792624.046884665056	232.40165868144
1	14969	792913.410407574725	174.13805195648
1	14978	793876.976373131104	0
1	14987	794928.418553983753	0
1	15004	795542.739484041841	94.651004142304
1	15015	795812.368962866844	2.403896847658
1	15046	797204.495890373601	0
1	15063	798553.902928411632	0
1	15075	798892.667866017922	248.48955560346
1	15096	799717.451344394379	153.47887851004
1	15116	800261.345240201919	270.30106579169
1	15130	800585.199541684639	395.30604241532
1	15136	800847.878753995865	490.59629956795
1	15141	801124.014422932751	671.48703516262
1	15149	801382.936391489888	894.23218791922
1	15181	803434.659924167181	0
1	15203	803972.926444235277	211.77614500709
1	15215	804191.712111376868	420.03134061306
1	15220	804510.617631452577	457.16459543297
1	15265	806604.180749560407	0
1	15273	806886.700171617408	278.354948943
1	15281	807156.701111036425	38.508203615374
1	15306	808280.178247138843	221.98972828149
1	15326	808877.919089632602	139.73224030081
1	15349	810193.424300899746	268.75700601826
1	15357	810542.254143445286	0
1	15385	811482.712061261639	153.82320722359
1	15397	811789.244960675396	418.43868505471
1	15405	812096.341454857419	536.9946227041
1	15413	812420.520018512691	521.69356667438
1	15419	812717.369128570253	453.10746923021
1	15435	813282.77677150075	227.95004856615
1	15486	815928.370808769669	226.79016823086
1	15506	816533.433550494491	167.74962250917
1	15528	817468.497753473778	275.34988209675
1	15537	817775.568205397937	121.90837083794
1	15551	819099.677066298509	0
1	15577	820431.956336640666	0
1	15585	820723.97547770932	18.109335778105
1	15593	821019.007429119252	87.110065210765
1	15605	821362.287950765428	290.39177667776
1	15627	822388.535626842731	0
1	15644	823000.288088638442	115.91479813887
1	15653	824101.039873943459	0
1	15684	825154.418241903902	315.10384704127
1	15692	825416.489274423341	444.65184529643
1	15720	826819.381423868273	0
1	15746	828252.758772556459	0
1	15755	828896.446571083691	0
1	15789	830843.023794404962	0
1	15815	832951.604464173904	54.114153315843
1	15824	833399.90575315405	0
1	15845	834889.775550982464	49.592781078867
1	15853	835227.974022778721	338.81757120455
1	15861	835465.14316069492	428.21411048494
1	15873	835769.732229943457	384.61745212094
1	15878	836067.859366326151	397.61152225571
1	15883	836357.649749021303	685.7491521983
1	15892	836876.330230198811	0
1	15917	837823.830988567555	152.03004172861
1	15943	839337.450440350215	0
1	15982	840536.464728013138	190.19253109629
1	15993	840793.761226394225	77.834818605411
1	15999	841085.862560945638	361.71903722987
1	16026	842248.920392425358	87.592057361705
1	16035	842844.465270205758	0
1	16052	843541.578034413281	241.23438197443
1	16060	843887.008057307249	0
1	16077	844641.807930847183	135.33316740709
1	16097	845360.390669752225	68.13487885358
1	16105	845697.367082290101	58.556522049034
1	16122	846333.264335434336	29.114802764104
1	16161	847841.511493045713	179.73633712855
1	16178	848649.272985442106	0
1	16203	850173.674162970484	61.705196079039
1	16220	850950.038230180913	164.68787444809
1	16237	851978.574176240945	249.97865261093
1	16249	852313.969781605076	174.44872526275
1	16263	853388.270773454535	0
1	16280	854493.195732984832	0
1	16297	855266.937520362465	156.28579844473
1	16314	856181.081322570857	274.29815058673
1	16349	858587.313001380883	194.3081607317
1	16366	859285.988154582734	53.031978629449
1	16383	859848.196762062015	29.512674148351
1	16393	862109.709883791877	0
1	16428	864815.123334814306	0
1	16437	865617.72249323744	0
1	16446	865914.931441951698	83.369104859691
1	16463	867338.754424142634	0
1	16472	867681.045942200795	259.73614143724
1	16489	868553.408933542797	199.25150081858
1	16497	868943.38663547162	0
1	16514	869605.666345330702	0
1	16561	872729.897466508856	208.19665909212
1	16572	873000.255305435635	338.90065390925
1	16583	873339.681338831826	526.31370138897
1	16592	873641.152692491731	558.83049478221
1	16597	873944.65081341091	779.93947265135
1	16605	874254.656740036104	190.25046591704
1	16625	875280.613177960344	0
1	16667	877701.885784940133	88.521918775106
1	16684	878414.070805999488	23.928879636292
1	16699	878719.399960852164	279.31956515853
1	16707	879018.516190163018	392.42023712635
1	16712	879335.687096224957	657.41493845447
1	16735	880319.779533146012	83.507938058358
1	16764	882117.806383242761	69.072792033179
1	16772	882379.387182797557	328.609699563
1	16777	882654.012633224293	347.34387780978
1	16800	883248.720878387324	307.92398676926
1	16808	883556.824449923466	608.73031683618
1	16882	889804.095425869743	0
1	16893	890093.695230468163	156.99248139725
1	16898	890361.268995483074	276.17471927203
1	16907	891246.659153923896	0
1	16917	892927.766802501743	0
1	16926	893279.120293644271	0
1	16934	893615.384730284767	0
1	16968	895318.607346829286	0
1	16985	896039.976277322397	0
1	16993	896582.562650166039	0
1	17037	899340.615828145075	97.298701912113
1	17064	902514.241833780101	0
1	17073	902856.705465012319	0
1	17090	904048.369917741396	0
1	17100	905250.144787478705	0
1	17109	906455.059587836585	0
1	17118	906950.223294040961	0
1	17143	907964.335716023889	0
1	17154	908262.368366540073	108.95009398891
1	17163	908602.296211704401	220.12875250045
1	17186	910492.053034938188	0
1	17211	911807.685647527969	0
[...]
7	14186	750460.8086232925	4
7	14195	751179.2993928773	5
7	14197	751268.322158795199	4
7	14212	751974.996324226187	5
7	14220	752432.530725161264	6
7	14223	752946.275986097383	5
7	14228	753215.624191582119	4
7	14249	753743.940315274426	5
7	14253	753946.083820343017	4
7	14257	754036.002068427537	5
7	14265	755087.521673090971	4
7	14279	755814.713154747558	3
7	14283	755875.054830162448	4
7	14291	756303.563305554814	3
7	14300	756980.674415386353	2
7	14305	757104.236187293256	1
7	14323	758230.161523011938	2
7	14332	759062.389472890066	3
7	14335	759543.837067245353	2
7	14355	760166.414254723224	3
7	14364	760501.755255025948	4
7	14369	760802.581587928374	5
7	14374	761089.77091042221	6
7	14377	761964.939077423142	5
7	14392	762537.359051103954	6
7	14399	762752.264147857156	5
7	14404	763015.875091713193	6
7	14417	763763.875307529959	5
7	14421	763787.45738936902	6
7	14425	763942.842900587321	5
7	14433	764283.105278713185	4
7	14445	764650.005178084212	3
7	14454	764968.987774835934	4
7	14462	765808.786848126232	3
7	14471	766965.222066467043	2
7	14477	767248.954303668042	1
7	14495	768805.18884010278	2
7	14498	768998.848141322504	1
7	14515	769612.940141729897	2
7	14521	769898.514364073297	3
7	14532	770311.140051566522	4
7	14538	770618.636404078323	5
7	14546	771377.039341640531	6
7	14555	771777.847409724635	7
7	14563	772352.292353280024	6
7	14567	772480.246336712949	7
7	14574	773119.75846926064	6
7	14579	773124.723312342464	5
7	14583	773341.374536914627	4
7	14594	773715.489480676234	3
7	14603	774014.741417492802	4
7	14625	774839.498837766964	5
7	14631	775172.582509186159	6
7	14633	775485.425502048609	5
7	14638	775591.950458215833	4
7	14641	775633.415368030239	3
7	14659	776440.725114889301	4
7	14667	777154.962232331734	3
7	14688	777777.507572229603	4
7	14692	777931.472309099283	3
7	14696	778092.276601570612	4
7	14702	778373.439074831006	5
7	14719	779255.578899977371	6
7	14723	779379.879862914694	5
7	14727	779555.811976830665	6
7	14734	779919.872243346871	5
7	14749	780793.852327194435	6
7	14751	780865.102801813077	5
7	14761	781890.48271683961	4
7	14766	782065.218688306982	3
7	14774	782478.147737367251	2
7	14791	783006.076470582684	1
7	14795	783099.310737822922	2
7	14809	784042.484481614294	3
7	14811	784284.205284587774	2
7	14827	785808.699354176219	3
7	14835	786246.897169896907	2
7	14839	786437.753873004213	3
7	14856	786950.721374939442	4
7	14861	787261.160167845215	5
7	14863	787394.229095503739	4
7	14881	788223.080987452562	5
7	14886	788470.180552417026	6
7	14889	788906.9359469647	5
7	14898	789997.241542416775	4
7	14903	790197.96555555527	3
7	14915	790629.261932414252	2
7	14927	791061.184765137046	3
7	14933	791373.732333820515	4
7	14937	791496.680901670198	3
7	14949	792282.795775256977	2
7	14967	792913.410407574725	3
7	14972	793189.902187247747	4
7	14981	794174.291857225886	5
7	14989	795136.928544986515	4
7	14993	795239.289938982983	5
7	15006	795777.352343588805	4
7	15013	795812.368962866844	5
7	15018	796143.93353941804	6
7	15026	796581.924790788726	5
7	15031	796599.726386758924	4
7	15049	797517.771008349451	5
7	15051	797870.183379102915	4
7	15068	798756.930815595159	3
7	15073	798892.667866017922	4
7	15078	799129.854446159848	5
7	15082	799242.840568135348	4
7	15099	799948.354418657588	3
7	15103	799968.504216095297	4
7	15128	800585.199541684639	5
7	15134	800847.878753995865	6
7	15139	801124.014422932751	7
7	15143	801358.633531540444	6
7	15147	801382.936391489888	7
7	15153	801692.048759507289	8
7	15161	802496.996407095027	7
7	15166	802554.728583494914	6
7	15183	803572.431850182957	5
7	15187	803693.075368151683	6
7	15197	803841.289542413369	5
7	15209	804063.38826446585	4
7	15213	804191.712111376868	5
7	15218	804510.617631452577	6
7	15222	804512.012004831363	5
7	15225	804621.595864663146	4
7	15229	804806.555998946733	5
7	15234	804888.523388667764	4
7	15271	806886.700171617408	5
7	15279	807156.701111036425	6
7	15283	807285.617820952485	5
7	15288	807450.425948383283	6
7	15295	807954.629652550088	5
7	15308	808287.390176051614	4
7	15313	808598.083530982739	5
7	15317	808695.643981883399	4
7	15330	809216.100879267805	5
7	15337	809904.810195336481	4
7	15352	810520.271220135001	5
7	15359	810718.850956260366	4
7	15363	810864.168079887291	5
7	15368	811095.886073388866	4
7	15387	811533.768010326174	3
7	15395	811789.244960675396	4
7	15403	812096.341454857419	5
7	15411	812420.520018512691	6
7	15417	812717.369128570253	7
7	15422	813027.534251487228	8
7	15429	813076.08625416494	7
7	15439	813577.618379141747	8
7	15447	814334.655018805452	7
7	15452	814411.731641121652	6
7	15464	815298.081581417716	5
7	15469	815390.075100075523	4
7	15480	815901.246619415891	3
7	15488	816005.809787148308	2
7	15493	816248.67826633113	3
7	15500	816453.256232703277	2
7	15508	816590.638797477814	1
7	15512	816809.990715262882	2
7	15535	817775.568205397937	3
7	15540	818066.914012746092	4
7	15554	819399.767928459482	5
7	15557	819715.148536546836	4
7	15565	820091.019356086985	3
7	15583	820723.97547770932	4
7	15591	821019.007429119252	5
7	15598	821144.151415381688	4
7	15603	821362.287950765428	5
7	15607	821382.805502175223	4
7	15611	821685.371569790172	5
7	15630	822659.990758924407	6
7	15632	822704.569347889725	5
7	15647	823253.048534143678	6
7	15655	824204.45286949317	5
7	15659	824386.867032621582	6
7	15667	824805.409879224981	5
7	15678	825123.756693535679	4
7	15686	825335.278675743406	3
7	15690	825416.489274423341	4
7	15696	825754.674647175405	5
7	15705	826089.400067585499	4
7	15722	826935.610153100928	3
7	15726	827151.234113941586	4
7	15731	827411.990391725091	3
7	15749	828513.981878077867	4
7	15757	829160.706215570329	3
7	15761	829194.903914303875	4
7	15769	830126.807898477248	3
7	15774	830145.788598139405	2
7	15792	831132.225230836185	3
7	15796	832423.612709532198	2
7	15801	832548.993680617579	1
7	15819	833237.086135834281	2
7	15827	833692.491135886282	3
7	15830	834579.074431705455	2
7	15851	835227.974022778721	3
7	15859	835465.14316069492	4
7	15871	835769.732229943457	5
7	15876	836067.859366326151	6
7	15881	836357.649749021303	7
7	15887	836662.449790159652	8
7	15894	837097.649627306425	7
7	15898	837162.236645752777	8
7	15902	837234.680819215528	7
7	15920	838126.104917715205	8
7	15923	838715.66504442273	7
7	15928	838961.10595929026	6
7	15945	839513.184652348597	5
7	15949	839620.660116331239	6
7	15953	839648.81438387868	5
7	15956	839882.79241495311	4
7	15965	840176.466739306396	3
7	15976	840532.993791746171	2
7	15991	840793.761226394225	3
7	15997	841085.862560945638	4
7	16002	841365.374419546714	5
7	16006	841405.854725225149	4
7	16029	842542.156579993643	5
7	16037	843226.637704736457	4
7	16041	843234.971475517724	5
7	16055	843880.463007426912	6
7	16063	844165.590756455697	7
7	16066	844365.091569732514	6
7	16080	844940.30025354445	7
7	16082	845034.856482153111	6
7	16091	845302.527071106962	5
7	16103	845697.367082290101	6
7	16107	845985.932610892214	5
7	16111	845991.074753996567	6
7	16125	846669.973413207339	7
7	16129	846732.367015107086	6
7	16133	846885.701303240964	5
7	16146	847513.91706334036	4
7	16164	848121.634271252577	5
7	16166	848295.960008673131	4
7	16181	848965.248591395914	5
7	16184	849548.147918671778	4
7	16189	849738.898021227364	3
7	16207	850455.299235639428	4
7	16209	850671.166058711121	3
7	16224	851216.223675006715	4
7	16226	851678.055893504439	3
7	16243	852210.315910894365	2
7	16247	852313.969781605076	3
7	16252	852622.566040133555	4
7	16266	853634.030250151831	5
7	16269	853947.191555257178	4
7	16284	854752.61970529866	5
7	16286	854948.431849265399	4
7	16301	855523.729760868004	5
7	16303	855849.336139942854	4
7	16318	856494.14673002514	5
7	16320	856675.782716759106	4
7	16329	857511.071574117579	3
7	16338	858284.43221191494	2
7	16353	858892.594386325508	3
7	16355	858987.074867310143	2
7	16369	859504.453662111731	3
7	16371	859528.005138530631	2
7	16386	860122.865643471362	3
7	16397	862434.926643462083	4
7	16399	862556.258852562675	3
7	16408	863412.761003117165	2
7	16413	863539.88209738176	1
7	16432	865119.084387246706	2
7	16444	865914.931441951698	3
7	16448	865916.714886265007	2
7	16452	866193.372139224509	3
7	16470	867681.045942200795	4
7	16475	868000.198738840845	5
7	16477	868275.221615652088	4
7	16492	868832.17101332709	5
7	16500	869202.783885232199	4
7	16504	869211.174726313496	5
7	16516	869754.512618541283	4
7	16520	869881.904185010953	5
7	16529	871272.273947526141	4
7	16534	871340.447840876168	3
7	16546	872460.556836345564	2
7	16566	872825.951759111591	1
7	16570	873000.255305435635	2
7	16581	873339.681338831826	3
7	16586	873621.888633704313	2
7	16590	873641.152692491731	3
7	16595	873944.65081341091	4
7	16603	874254.656740036104	5
7	16609	874535.404249907636	6
7	16628	875564.777953598998	7
7	16631	876501.987992987211	6
7	16639	876795.768672181351	5
7	16645	876909.593751094911	4
7	16653	877305.745299073445	3
7	16671	878052.270837059513	4
7	16673	878113.77444440098	3
7	16697	878719.399960852164	4
7	16701	878977.240040938636	3
7	16705	879018.516190163018	4
7	16710	879335.687096224957	5
7	16715	879576.943099695165	4
7	16719	879679.929319043656	5
7	16738	880612.3648920886	6
7	16741	881408.301257031242	5
7	16749	881830.386483432211	4
7	16770	882379.387182797557	5
7	16775	882654.012633224293	6
7	16779	882708.390765026128	5
7	16784	882939.626878674685	6
7	16791	882941.283375089426	5
7	16802	883281.475631075207	4
7	16806	883556.824449923466	5
7	16812	883784.906194960163	6
7	16824	884452.438106090159	5
7	16835	886553.576663067555	4
7	16840	886618.165288741848	3
7	16843	886775.095977725102	2
7	16857	887195.217030994116	1
7	16868	887834.959765430032	0
7	16891	890093.695230468163	1
7	16896	890361.268995483074	2
7	16902	890671.076596467156	3
7	16911	891573.023561708601	4
7	16921	893252.033779293511	5
7	16929	893615.182100996743	6
7	16936	893660.385388592721	5
7	16940	893922.322354262637	6
7	16944	893980.742027387254	5
7	16948	894177.626368199153	4
7	16970	895482.591398596452	3
7	16974	895652.677306557611	4
7	16988	896361.352992048588	5
7	16997	896921.585697228364	6
7	16999	896928.605476449861	5
7	17007	897278.327029530301	4
7	17017	898563.201374067323	3
7	17025	899061.84807328509	2
7	17040	899673.993947471254	3
7	17043	900151.829072399996	2
7	17052	900998.439951096264	1
7	17068	902831.29195990136	2
7	17076	903149.017200028239	3
7	17078	903153.897733189484	2
7	17094	904332.938248901783	3
7	17103	905562.524218776303	4
7	17112	906751.426370823295	5
7	17120	907062.95184044196	4
7	17123	907229.447565134121	3
7	17127	907284.82100396469	4
7	17148	908237.406168699026	3
7	17152	908262.368366540073	4
7	17161	908602.296211704401	5
7	17166	908932.865753516612	6
7	17170	909191.402417831209	5
7	17188	910535.763658398847	4
7	17192	910816.28175944831	5
7	17196	910923.612865079134	4
7	17213	911835.174283258754	3
7	17216	911871.038162826505	2
7	17219	911950.51664986113	1
7	17224	912097.861760377263	2
7	17237	912662.655317436818	3
7	17257	913337.64260575377	4
7	17262	913631.556947644523	5
7	17268	913913.346779401932	6
7	17275	914391.144477113989	5
7	17296	915016.737095272687	6
7	17300	915262.768955661953	5
7	17304	915314.143964434543	6
7	17310	915637.364446104549	7
7	17317	916031.515619950229	6
7	17332	916893.292229067136	7
7	17334	917093.378004096993	6
7	17340	917279.849460360354	5
7	17348	917415.729068581396	4
7	17361	918943.138339498158	3
7	17369	919357.787651568867	2
7	17377	919563.042777492516	1
7	17390	919988.999376871241	2
7	17398	920299.504218905119	3
7	17403	920577.665631695809	4
7	17408	920830.996662428908	3
7	17429	921543.015174684139	4
7	17434	921868.814935411246	5
7	17447	923212.629679223449	6
7	17451	923405.258694799419	5
7	17455	923522.291512904534	6
7	17468	924167.497204385045	5
7	17475	924425.137785049735	6
7	17480	924719.414326574622	7
7	17484	924753.113140034865	6
7	17497	925362.827274085865	7
7	17505	925833.995114299375	6
7	17510	925849.093980255045	5
7	17522	926466.178898909907	6
7	17530	927042.382369008977	5
7	17535	927279.330655100975	4
7	17543	927419.156462644333	3
7	17559	927978.785621141728	4
7	17564	928257.787927851673	5
7	17569	928512.596877683781	4
7	17580	928760.28634882757	3
7	17589	929140.509503267539	4
7	17606	929790.181278723154	5
7	17612	930050.7247325372	6
7	17622	930177.027831136806	5
7	17626	930398.774988165729	6
7	17634	930646.079302122864	7
7	17640	930926.175803649944	8
7	17652	931456.85134529103	7
7	17656	931493.512698717301	8
7	17660	931717.773425604129	7
7	17681	932422.366014366173	8
7	17685	932550.811073506239	7
7	17690	932727.572085228766	8
7	17694	932968.337560591889	7
7	17712	933673.80380739117	8
7	17714	933786.31036102521	7
7	17719	933835.666475083719	6
7	17727	934238.716474948322	5
7	17736	934495.618117383993	4
7	17744	934812.126700386402	3
7	17762	935498.791518490409	4
7	17770	935814.151996262393	5
7	17772	935974.05993126942	4
7	17778	936159.458566715738	3
7	17795	936805.504658230835	4
7	17804	937148.617245549005	5
7	17813	937743.074992669888	6
7	17815	937859.092005967716	5
7	17824	939192.288993349008	4
7	17829	939385.992846315956	3
7	17842	939711.117948542049	4
7	17854	940211.132097307153	3
7	17859	940382.49657105915	4
7	17866	940933.678775265553	3
7	17878	941220.416936958981	2
7	17887	941606.273235398871	3
7	17892	941907.277501171315	4
7	17909	942489.295498360862	5
7	17917	942783.776449403859	6
7	17926	943048.158947504605	7
7	17931	943311.02114308935	8
7	17933	943393.599852996004	7
7	17938	943487.996603305461	6
7	17951	943974.884239998993	7
7	17964	945098.698913627924	6
7	17968	945263.919431674818	7
7	17976	945786.406817238646	6
7	17981	945842.793375949514	5
7	18000	946313.266073464259	6
7	18005	946628.865785647913	7
7	18009	946636.982442962367	6
7	18012	946833.662001386535	5
7	18016	946913.989863501375	6
7	18020	947056.635988610034	5
7	18032	947257.073866120194	4
7	18036	947404.238828117775	5
7	18049	947891.364547896785	6
7	18063	948486.756352972015	7
7	18067	948570.889346239143	6
7	18090	949697.095214508764	7
7	18092	949706.515871369091	6
7	18098	949742.192915385745	5
7	18110	950689.460788413507	4
7	18127	951321.987881179805	5
7	18133	951605.274261937293	6
7	18135	951608.388707392152	5
7	18154	951959.652483803151	4
7	18157	952175.902953989674	3
7	18161	952275.543641605558	4
7	18173	952596.017445757695	5
7	18177	952922.337032246176	4
7	18181	952943.750508215876	5
7	18187	953233.566652113964	6
7	18195	953541.751062530128	7
7	18203	953814.748103073383	8
7	18209	954142.021358555482	9
7	18227	955332.212207251362	8
7	18235	955616.129241720653	7
7	18240	955646.799379930325	6
7	18257	956461.591243736402	5
7	18260	956546.950678800604	4
7	18265	956591.768348585481	5
7	18269	956647.678964819051	4
7	18280	956949.751926879082	3
7	18283	957004.407597678732	2
7	18287	957235.58887361927	3
7	18302	957966.677355852897	2
7	18326	959265.125307411126	3
7	18328	959805.517869006435	2
7	18342	960308.513498210823	1
7	18346	960499.687616683236	2
7	18360	961096.405425513179	3
7	18369	961800.039030665884	4
7	18372	962781.05053584777	3
7	18389	963364.802639836696	4
7	18395	963716.517101415636	5
7	18397	964250.352720785388	4
7	18418	964784.774344958718	5
7	18423	965087.55405171733	6
7	18431	965169.208424664201	5
7	18435	965408.090062491495	6
7	18439	965519.874376984226	5
7	18443	965712.692483894931	6
7	18456	966541.813523498474	5
7	18465	966964.167455183739	4
7	18480	967958.52100204112	5
7	18488	968436.60701554423	6
7	18495	968582.164275866474	5
7	18499	968804.738429949205	4
7	18503	968806.319871809242	5
7	18518	969205.90607305712	4
7	18523	969463.25670887121	5
7	18528	969737.809914382747	6
7	18532	969780.627371736853	5
7	18548	970389.116715762465	6
7	18559	970739.999234619112	7
7	18564	971063.424080177543	8
7	18569	971330.721762653345	7
7	18573	971342.572959269772	8
7	18597	972491.331703654985	9
7	18599	972594.381199102709	8
7	18604	972791.586891477683	7
7	18607	972817.808757912431	6
7	18611	972903.802581700001	5
7	18631	973514.425036865903	6
7	18640	973821.668972565851	7
7	18644	974082.841213379514	6
7	18648	974091.85596345233	7
7	18655	974168.968237774334	6
7	18668	974760.06777712305	7
7	18672	974983.685316317188	6
7	18676	975071.011265203329	7
7	18680	975124.890256711818	6
7	18695	975500.13417733875	5
7	18699	975626.33773096165	6
7	18704	975947.728944679482	7
7	18727	976505.853770651957	8
7	18732	976855.77016138049	9
7	18737	977160.285841353858	10
7	18742	977201.21996398397	9
7	18746	977428.781231194524	10
7	18750	977709.064007625408	9
7	18772	978281.535033319393	8
7	18775	978507.555013167137	7
7	18782	978623.222324160794	8
7	18788	978972.28409929323	9
7	18795	979116.710164805786	8
7	18798	979116.896807606852	7
7	18807	979621.37450434645	8
7	18817	980188.174850967185	7
7	18825	980323.242898436581	6
7	18840	980597.165180316196	5
7	18843	980738.474395576386	4
7	18852	981054.320767811232	5
7	18857	981367.332571589247	6
7	18865	981568.857313272896	5
7	18874	981920.3150168176	6
7	18883	982290.368102135858	5
7	18896	982754.10007524245	6
7	18903	982826.106920266288	5
7	18912	983292.900432729021	4
7	18916	983385.300211899741	5
7	18935	984410.679488035776	6
7	18939	984459.776270792331	5
7	18953	985156.77727603446	4
7	18967	985805.430802018605	3
7	18970	985846.379337202162	2
7	18993	986845.290232776458	3
7	19009	987423.606995647003	4
7	19014	987489.835088880493	3
7	19018	987750.822390861425	4
7	19025	988162.866914711145	3
7	19040	988867.618576935973	4
7	19049	989985.712851778049	5
7	19057	990700.350952350812	4
7	19062	990898.073762283171	5
7	19066	991100.177778214371	4
7	19077	991584.52215016847	3
7	19086	991883.30710792976	2
7	19103	992489.929454289976	3
7	19109	992749.365101825197	4
7	19117	993810.991736528144	3
7	19121	994036.302939197203	4
7	19129	994485.557295021364	3
7	19144	995242.396493193828	4
7	19152	996129.959825651223	3
7	19162	996397.218433165993	4
7	19167	996684.106339317481	5
7	19172	996915.215083598087	4
7	19176	996970.172735143706	5
7	19196	997614.652629318816	4
7	19201	997851.444149483639	5
7	19206	998106.00402505083	6
7	19219	998691.052540645952	5
7	19223	998745.742998748695	6
7	19237	999628.475430137754	7
7	19244	999835.522141623772	6
7	19248	1000105.027681920141	7
7	19253	1000379.25071201224	6
7	19264	1000910.607810350809	5
7	19269	1001065.547111933582	4
7	19282	1001535.627152910458	5
7	19296	1002367.562145153991	6
7	19303	1002620.70493814781	5
7	19306	1002655.623268379414	4
7	19309	1002686.496292013915	3
7	19314	1002880.468512019315	4
7	19338	1004089.354076140741	5
7	19345	1004256.74312232558	4
7	19349	1004442.439146654837	5
7	19357	1005047.573086007711	4
7	19371	1006095.256869701843	3
7	19376	1006403.012300704504	4
7	19380	1006465.978277116351	3
7	19401	1007332.447285467922	4
7	19406	1007616.524821112311	5
7	19408	1007708.134365530487	4
7	19413	1007731.756211159211	3
7	19434	1008562.386221289148	4
7	19440	1008904.961686366899	5
7	19449	1009893.406278475271	6
7	19451	1009902.447277398101	5
7	19465	1010455.761126226426	6
7	19468	1010809.900453712439	5
7	19473	1011035.701613410711	4
7	19485	1011900.524625998992	3
7	19500	1012591.33532493196	4
7	19502	1012658.199464997501	3
7	19517	1013293.804359634622	4
7	19524	1013756.882079442388	3
7	19528	1013765.121017363923	4
7	19532	1013857.764353046981	3
7	19550	1014595.218071470008	4
7	19553	1015522.473608184899	3
7	19563	1016671.726841521301	2
7	19571	1017213.817832826869	1
7	19586	1017865.81413082409	2
7	19588	1018103.81376702757	1
7	19603	1018727.686789109276	2
7	19612	1019639.578873101771	3
7	19616	1020899.264087399946	2
7	19625	1022228.398325433077	1
7	19630	1022381.528120300785	0
7	19649	1023559.083158612062	1
7	19662	1025344.965809707027	2
7	19670	1025707.983988414696	3
7	19676	1026025.238499483578	4
7	19678	1026836.232447007351	3
7	19695	1028727.116376309129	4
7	19706	1029331.911312149851	5
7	19711	1029548.196041902069	4
7	19714	1029618.10937637439	3
7	19718	1029646.363845880851	4
7	19722	1029755.846498187828	3
7	19745	1030779.031557610314	4
7	19755	1032192.190289375369	5
7	19757	1032211.018528644792	4
7	19771	1032791.23172697063	5
7	19773	1032825.70538770961	4
7	19782	1033202.112499355398	3
7	19797	1033859.549225078495	4
7	19806	1034731.063383600202	5
7	19813	1034839.411408830523	4
7	19817	1035093.730810078713	5
7	19830	1035551.03741531582	4
7	19834	1035705.06536103104	5
7	19842	1036344.355241453955	4
