version 2
run ParkingMeasurement-131-20170108-17:30:11-5242
attr configname ParkingMeasurement
attr datetime 20170108-17:30:11
attr experiment ParkingMeasurement
attr inifile parkingStudy.ini
attr iterationvars ""
attr iterationvars2 $repetition=131
attr measurement ""
attr network controltower.SimNetwork
attr processid 5242
attr repetition 131
attr replication #131
attr resultdir results
attr runnumber 131
attr seedset 131
param SimNetwork.a.parkingLot.parkingDelay "truncnormal(60min, 6min)"
param SimNetwork.a.runway.landingTime "truncnormal(5min, 0.5min)"
param SimNetwork.a.runway.takeoffTime "truncnormal(5min, 0.5min)"
param SimNetwork.a.runway.throughputCheckInterval 14.286min
param SimNetwork.wg.interArrivalTime exponential(14.286min)

statistic SimNetwork.wg 	responseTime:stats
field count 1057
field mean 6071.2549226571
field stddev 1678.7597577128
field sum 6417316.4532485
field sqrsum 41937219553.3
field min 3625.0218521919
field max 14349.96651632
attr source  responseTimeSignal
scalar SimNetwork.a.landingQueue 	queueLength:timeavg 	0.20611670364522
attr source  queueLengthSignal
statistic SimNetwork.a.landingQueue 	queueLength:stats
field count 2113
field mean 0.73213440605774
field stddev 0.77739977729907
field sum 1547
field sqrsum 2409
field min 0
field max 5
attr source  queueLengthSignal
statistic SimNetwork.a.landingQueue 	queueTime:stats
field count 1056
field mean 178.36349932859
field stddev 212.29877127374
field sum 188351.855291
field sqrsum 81144756.554713
field min 0
field max 1508.8628744827
attr source  queueTimeSignal
scalar SimNetwork.a.takeoffQueue 	queueLength:timeavg 	0.97270123518245
attr source  queueLengthSignal
statistic SimNetwork.a.takeoffQueue 	queueLength:stats
field count 2113
field mean 1.7174633222906
field stddev 2.7859500721735
field sum 3629
field sqrsum 22625
field min 0
field max 17
attr source  queueLengthSignal
statistic SimNetwork.a.takeoffQueue 	queueTime:stats
field count 1056
field mean 843.17557832341
field stddev 1535.6159591916
field sum 890393.41070952
field sqrsum 3238570753.7112
field min 0
field max 8335.4696418698
attr source  queueTimeSignal
scalar SimNetwork.a.parkingLot 	parkingOccupancy:timeavg 	4.1289288619832
attr source  parkingOccupancy
statistic SimNetwork.a.parkingLot 	parkingOccupancy:stats
field count 2112
field mean 4.6022727272727
field stddev 2.1309464508444
field sum 9720
field sqrsum 54320
field min 0
field max 13
attr source  parkingOccupancy
