version 2
run ResponseMeasurement-131-20170110-19:44:10-22404
attr configname ResponseMeasurement
attr datetime 20170110-19:44:10
attr experiment ResponseMeasurement
attr inifile responseStudy.ini
attr iterationvars ""
attr iterationvars2 $repetition=131
attr measurement ""
attr network controltower.SimNetwork
attr processid 22404
attr repetition 131
attr replication #131
attr resultdir results
attr runnumber 131
attr seedset 131
param SimNetwork.a.parkingLot.parkingDelay "truncnormal(60min, 6min)"
param SimNetwork.a.runway.landingTime "truncnormal(15min, 1.5min)"
param SimNetwork.a.runway.takeoffTime "truncnormal(15min, 1.5min)"
param SimNetwork.a.runway.throughputCheckInterval 150min
param SimNetwork.wg.interArrivalTime exponential(150min)

vector 0  SimNetwork.wg  responseTime:vector  ETV
attr source  responseTimeSignal
vector 4  SimNetwork.a.takeoffQueue  queueLength:vector  ETV
attr source  queueLengthSignal
vector 3  SimNetwork.a.takeoffQueue  queueTime:vector  ETV
attr source  queueTimeSignal
vector 7  SimNetwork.a.parkingLot  parkingOccupancy:vector  ETV
attr source  parkingOccupancy
vector 2  SimNetwork.a.landingQueue  queueLength:vector  ETV
attr source  queueLengthSignal
vector 1  SimNetwork.a.landingQueue  queueTime:vector  ETV
attr source  queueTimeSignal
vector 5  SimNetwork.a.runway  landedThroughput:vector  ETV
attr source  landedThroughputSignal
vector 6  SimNetwork.a.runway  tookoffThroughput:vector  ETV
attr source  tookoffThroughputSignal
0	620	380399.595718435896	7306.8192368677
0	625	381238.815886491684	8114.7236135243
0	633	383990.753862184128	9502.0412582348
0	658	392067.761307407295	13579.762756351
0	667	396299.735304352988	10491.689016172
0	684	410834.214292821832	20672.356950978
0	702	426916.172752655094	21226.063270356
0	722	437094.003654405506	15776.326171075
0	736	442393.120823243978	10305.825232976
0	752	448309.160750633895	11799.1544768
0	777	457785.734595006937	14738.638869163
0	786	459463.333784107259	6724.1350299347
0	802	467957.815889032358	13681.966946896
0	819	474330.079709844664	11662.044003652
0	837	491981.690460324395	23321.385327983
0	855	511273.546709155114	24638.734599667
0	873	529449.33886039432	22979.989375732
0	910	540973.539443503205	16756.740323846
0	915	541989.592829234401	7220.6139216836
0	923	544288.377079655777	8635.713074186
0	941	563941.469098312959	24947.479096515
0	959	579258.741089674573	20701.507909214
0	976	590307.274162185949	16732.208203232
0	993	599467.054166292937	14139.645315805
0	1011	614905.732322508579	21275.198303236
0	1028	623732.589395863915	14739.529197113
0	1059	657014.742744902082	38198.570062685
0	1064	658051.744746961018	6716.5836883366
0	1090	675434.535615784147	23259.568100468
0	1101	677828.175725037248	8296.142160478
0	1122	683121.014905513537	10882.396361167
0	1131	684395.731570431317	7037.0307926425
0	1150	714916.6701431489	36620.369024498
0	1169	738509.543489107366	28767.391078757
0	1185	744937.171601603373	12005.377683316
0	1202	754002.475541685829	15076.321915873
0	1219	761663.494675464144	12288.383727319
0	1236	769677.187092935876	14169.43942408
0	1253	775984.491147470078	11659.743789759
0	1300	786779.943961095156	7284.9471463357
0	1305	787846.369003409627	17348.269854372
0	1310	788640.501387136919	7641.9780143782
0	1318	790202.646491562228	7712.7931531082
0	1347	806488.052313116338	21488.382617753
0	1360	808163.844235915798	6740.6659793067
0	1369	811725.826325656783	8894.0535996413
0	1395	832422.650483413708	26004.776793905
0	1403	833962.635694330125	6557.0612345272
0	1432	847796.719223333627	18906.15467493
0	1437	848618.374494102374	6557.8850765337
0	1465	855388.610606243666	5650.0666141291
0	1470	856236.14955857938	13808.743715252
0	1490	868016.7069638895	17464.869293011
0	1503	872707.005421732703	10350.789272526
0	1529	883090.9371939836	15842.480144927
0	1553	886982.675554452001	10469.018300545
0	1564	889623.214917519976	8329.3458842016
0	1569	890464.843541660801	6452.1055324043
0	1587	905317.499183488416	20404.439989761
0	1612	914601.232999938084	15164.072639143
0	1626	916292.771239925774	6623.5238361368
0	1656	921838.218756446298	11307.221570901
0	1661	922850.344623871798	7135.2312620258
0	1672	925212.55424714987	8997.6405016694
0	1686	930293.047522916912	10070.743063096
0	1711	942216.056647482602	18021.51087455
0	1719	943595.354766699696	6588.1310601638
0	1741	963740.344295091408	25600.082584388
0	1754	968651.192023453474	10498.737995232
0	1780	987146.005664727693	24283.360623086
0	1789	990807.517440581466	9055.1257966877
0	1805	997674.831163647727	12156.225580119
0	1824	1017970.281316160133	25496.35185358
0	1842	1035540.634816720365	23576.639862917
0	1872	1065741.235366884645	36314.344192897
0	1885	1068108.75726718405	7228.7950458591
0	1902	1071265.116103274749	8165.079211911
0	1910	1074693.423532276969	9265.7492072749
0	1927	1081435.83141511188	12684.683196097
0	1962	1088233.075384659086	11973.854998986
0	1968	1089036.037846184276	6809.5593802241
0	1976	1092265.838485298397	8891.3260545339
0	2008	1111474.128944348213	25395.721227725
0	2021	1113171.580959587477	7541.7882842728
0	2041	1117440.630076544576	10297.716489309
0	2051	1119092.550074662819	7774.9346197923
0	2059	1122648.428016808172	9600.6318344945
0	2076	1129486.675461143179	12724.194834591
0	2094	1147753.691298983467	24114.933852288
0	2121	1170201.030416095492	28193.779877311
0	2129	1172743.142012956718	7295.7526966281
0	2145	1178635.810768563565	10901.601570395
0	2162	1185153.673308675348	11746.84058392
0	2187	1192322.970228644484	11914.330292041
0	2198	1193767.044181833046	6891.4895266342
0	2212	1199557.248612291339	10666.868899372
0	2236	1217281.03529171892	23864.843908581
0	2265	1222679.438481085829	11048.589749615
0	2270	1223675.521047293072	7050.1043119671
0	2279	1224666.693437645432	7575.4234826881
0	2296	1236636.249371476795	17402.830140745
1	638	385808.046288181241	0
1	647	390161.857341843754	0
1	673	405690.10948229945	0
1	690	421317.67748333016	0
1	708	432087.295590267588	0
1	724	437094.003654405506	583.99738057128
1	741	443047.095725844145	0
1	758	452739.198754172533	0
1	766	454275.848942136311	0
1	791	462668.035706192297	0
1	808	468660.305132341845	0
1	826	486634.812109488133	0
1	844	506469.349484662029	0
1	862	524216.799119656987	0
1	879	534768.978907550783	0
1	887	535652.664005469801	0
1	895	538993.990001797492	0
1	930	558557.233180460572	0
1	947	573575.06595895369	0
1	965	585327.408850488306	0
1	981	593630.534019272192	0
1	999	608993.060198751158	0
1	1016	618816.172682216702	0
1	1036	651335.161058624374	0
1	1044	652174.967515315859	0
1	1070	669532.033564559245	0
1	1078	672238.618544346595	0
1	1103	677828.175725037248	469.47494724838
1	1111	678623.745354712709	327.44423606135
1	1138	709742.152410350831	0
1	1157	732931.793918287651	0
1	1174	738926.153625812415	0
1	1191	749375.110948145387	0
1	1207	755507.747668855991	0
1	1224	764324.747357711303	0
1	1241	770498.099149037437	0
1	1258	779494.996814759465	0
1	1266	780998.523372758719	0
1	1274	782489.853338453995	0
1	1283	784999.669695363578	0
1	1325	801423.178256609118	0
1	1333	802831.77272601546	0
1	1349	806488.052313116338	70.178623607496
1	1375	827405.574459802974	0
1	1384	828890.564548403469	0
1	1409	842060.489417568709	0
1	1417	842959.906055499077	532.50021217155
1	1442	849738.543992114602	0
1	1450	850647.434322798852	95.596651920825
1	1475	862356.216149206997	0
1	1492	868016.7069638895	768.2499148329
1	1509	876513.657253907053	0
1	1517	881293.869033318333	0
1	1534	884012.738009256521	0
1	1542	885025.439477558267	112.38028383052
1	1575	899437.160360794979	0
1	1593	909669.247403788977	0
1	1601	910696.748125611869	165.75094006696
1	1628	916292.771239925774	577.65787807981
1	1633	917132.272813873979	917.35906839349
1	1642	920222.304459820464	0
1	1674	925212.55424714987	1018.0084742172
1	1692	937007.223706535941	0
1	1700	938140.261710703245	0
1	1726	958152.454028221425	0
1	1743	963740.344295091408	877.69925344951
1	1761	981752.391643893783	0
1	1769	985518.605583529151	0
1	1794	992473.929462580631	0
1	1812	1011963.994953803583	0
1	1830	1029426.891173987423	0
1	1849	1060879.962221324999	0
1	1858	1063100.036891363763	0
1	1874	1065741.235366884645	313.56104188261
1	1890	1068751.148219014548	0
1	1915	1076259.220385672896	0
1	1932	1082226.478465960182	0
1	1940	1083374.512430764536	0
1	1948	1086078.407716623305	0
1	1982	1105629.792675314649	0
1	1991	1107142.913587235627	0
1	2010	1111474.128944348213	156.51348947768
1	2023	1113171.580959587477	123.78477727384
1	2043	1117440.630076544576	678.14944999255
1	2064	1123638.757446695574	0
1	2082	1142007.250538784354	0
1	2101	1165447.389316328634	0
1	2109	1167734.209198168653	0
1	2134	1173406.832724755077	0
1	2151	1180408.639936603809	0
1	2167	1186875.554655198831	0
1	2176	1188890.379712919493	0
1	2200	1193767.044181833046	350.85279869482
1	2218	1211630.848731471151	0
1	2238	1217281.03529171892	655.61855639299
1	2243	1218060.304617884665	969.03466292733
1	2251	1219233.419230731889	0
1	2284	1231509.053833155369	0
1	2301	1239403.554699524761	0
2	636	385808.046288181241	1
2	638	385808.046288181241	0
2	645	390161.857341843754	1
2	647	390161.857341843754	0
2	671	405690.10948229945	1
2	673	405690.10948229945	0
2	688	421317.67748333016	1
2	690	421317.67748333016	0
2	706	432087.295590267588	1
2	708	432087.295590267588	0
2	719	436510.006273834229	1
2	724	437094.003654405506	0
2	739	443047.095725844145	1
2	741	443047.095725844145	0
2	756	452739.198754172533	1
2	758	452739.198754172533	0
2	764	454275.848942136311	1
2	766	454275.848942136311	0
2	789	462668.035706192297	1
2	791	462668.035706192297	0
2	806	468660.305132341845	1
2	808	468660.305132341845	0
2	824	486634.812109488133	1
2	826	486634.812109488133	0
2	842	506469.349484662029	1
2	844	506469.349484662029	0
2	860	524216.799119656987	1
2	862	524216.799119656987	0
2	877	534768.978907550783	1
2	879	534768.978907550783	0
2	885	535652.664005469801	1
2	887	535652.664005469801	0
2	893	538993.990001797492	1
2	895	538993.990001797492	0
2	928	558557.233180460572	1
2	930	558557.233180460572	0
2	945	573575.06595895369	1
2	947	573575.06595895369	0
2	963	585327.408850488306	1
2	965	585327.408850488306	0
2	979	593630.534019272192	1
2	981	593630.534019272192	0
2	997	608993.060198751158	1
2	999	608993.060198751158	0
2	1014	618816.172682216702	1
2	1016	618816.172682216702	0
2	1034	651335.161058624374	1
2	1036	651335.161058624374	0
2	1042	652174.967515315859	1
2	1044	652174.967515315859	0
2	1068	669532.033564559245	1
2	1070	669532.033564559245	0
2	1076	672238.618544346595	1
2	1078	672238.618544346595	0
2	1098	677358.700777788867	1
2	1103	677828.175725037248	0
2	1106	678296.301118651355	1
2	1111	678623.745354712709	0
2	1136	709742.152410350831	1
2	1138	709742.152410350831	0
2	1155	732931.793918287651	1
2	1157	732931.793918287651	0
2	1172	738926.153625812415	1
2	1174	738926.153625812415	0
2	1189	749375.110948145387	1
2	1191	749375.110948145387	0
2	1205	755507.747668855991	1
2	1207	755507.747668855991	0
2	1222	764324.747357711303	1
2	1224	764324.747357711303	0
2	1239	770498.099149037437	1
2	1241	770498.099149037437	0
2	1256	779494.996814759465	1
2	1258	779494.996814759465	0
2	1264	780998.523372758719	1
2	1266	780998.523372758719	0
2	1272	782489.853338453995	1
2	1274	782489.853338453995	0
2	1281	784999.669695363578	1
2	1283	784999.669695363578	0
2	1323	801423.178256609118	1
2	1325	801423.178256609118	0
2	1331	802831.77272601546	1
2	1333	802831.77272601546	0
2	1344	806417.873689508842	1
2	1349	806488.052313116338	0
2	1373	827405.574459802974	1
2	1375	827405.574459802974	0
2	1382	828890.564548403469	1
2	1384	828890.564548403469	0
2	1407	842060.489417568709	1
2	1409	842060.489417568709	0
2	1412	842427.405843327522	1
2	1417	842959.906055499077	0
2	1440	849738.543992114602	1
2	1442	849738.543992114602	0
2	1445	850551.837670878027	1
2	1450	850647.434322798852	0
2	1473	862356.216149206997	1
2	1475	862356.216149206997	0
2	1487	867248.457049056605	1
2	1492	868016.7069638895	0
2	1507	876513.657253907053	1
2	1509	876513.657253907053	0
2	1515	881293.869033318333	1
2	1517	881293.869033318333	0
2	1532	884012.738009256521	1
2	1534	884012.738009256521	0
2	1537	884913.059193727751	1
2	1542	885025.439477558267	0
2	1573	899437.160360794979	1
2	1575	899437.160360794979	0
2	1591	909669.247403788977	1
2	1593	909669.247403788977	0
2	1596	910530.997185544912	1
2	1601	910696.748125611869	0
2	1620	915715.11336184596	1
2	1623	916214.913745480488	2
2	1628	916292.771239925774	1
2	1633	917132.272813873979	0
2	1640	920222.304459820464	1
2	1642	920222.304459820464	0
2	1669	924194.545772932639	1
2	1674	925212.55424714987	0
2	1690	937007.223706535941	1
2	1692	937007.223706535941	0
2	1698	938140.261710703245	1
2	1700	938140.261710703245	0
2	1724	958152.454028221425	1
2	1726	958152.454028221425	0
2	1737	962862.645041641895	1
2	1743	963740.344295091408	0
2	1759	981752.391643893783	1
2	1761	981752.391643893783	0
2	1767	985518.605583529151	1
2	1769	985518.605583529151	0
2	1792	992473.929462580631	1
2	1794	992473.929462580631	0
2	1810	1011963.994953803583	1
2	1812	1011963.994953803583	0
2	1828	1029426.891173987423	1
2	1830	1029426.891173987423	0
2	1847	1060879.962221324999	1
2	1849	1060879.962221324999	0
2	1856	1063100.036891363763	1
2	1858	1063100.036891363763	0
2	1869	1065427.674325002039	1
2	1874	1065741.235366884645	0
2	1888	1068751.148219014548	1
2	1890	1068751.148219014548	0
2	1913	1076259.220385672896	1
2	1915	1076259.220385672896	0
2	1930	1082226.478465960182	1
2	1932	1082226.478465960182	0
2	1938	1083374.512430764536	1
2	1940	1083374.512430764536	0
2	1946	1086078.407716623305	1
2	1948	1086078.407716623305	0
2	1980	1105629.792675314649	1
2	1982	1105629.792675314649	0
2	1989	1107142.913587235627	1
2	1991	1107142.913587235627	0
2	2005	1111317.615454870531	1
2	2010	1111474.128944348213	0
2	2018	1113047.796182313632	1
2	2023	1113171.580959587477	0
2	2035	1116762.48062655203	1
2	2043	1117440.630076544576	0
2	2062	1123638.757446695574	1
2	2064	1123638.757446695574	0
2	2080	1142007.250538784354	1
2	2082	1142007.250538784354	0
2	2099	1165447.389316328634	1
2	2101	1165447.389316328634	0
2	2107	1167734.209198168653	1
2	2109	1167734.209198168653	0
2	2132	1173406.832724755077	1
2	2134	1173406.832724755077	0
2	2149	1180408.639936603809	1
2	2151	1180408.639936603809	0
2	2165	1186875.554655198831	1
2	2167	1186875.554655198831	0
2	2174	1188890.379712919493	1
2	2176	1188890.379712919493	0
2	2195	1193416.191383138227	1
2	2200	1193767.044181833046	0
2	2216	1211630.848731471151	1
2	2218	1211630.848731471151	0
2	2230	1216625.416735325931	1
2	2233	1217091.269954957338	2
2	2238	1217281.03529171892	1
2	2243	1218060.304617884665	0
2	2249	1219233.419230731889	1
2	2251	1219233.419230731889	0
2	2282	1231509.053833155369	1
2	2284	1231509.053833155369	0
2	2299	1239403.554699524761	1
2	2301	1239403.554699524761	0
3	622	380399.595718435896	1081.0740142581
3	630	382976.286643281342	0
3	655	391057.543449044178	206.34675725879
3	663	395482.399279105937	0
3	681	409922.580841276509	0
3	699	425901.239481725442	0
3	716	436349.829647031192	0
3	733	441465.644957501333	0
3	749	447342.180320016611	0
3	774	456876.145028859782	0
3	782	458439.994416456919	0
3	799	466940.434484849601	0
3	816	473542.742562735071	0
3	834	491164.263168514294	0
3	852	510310.835070892837	0
3	870	528573.593031615703	0
3	907	540050.555912073986	1017.569983449
3	912	540973.539443503205	1504.3834818129
3	920	543382.266177850184	0
3	938	563089.932634608966	0
3	956	578298.8773505687	0
3	973	589383.274919427592	0
3	990	598644.751916059765	0
3	1008	614026.491694783323	0
3	1025	622769.537664284407	0
3	1052	655981.235169639574	0
3	1061	657014.742744902082	364.43477694154
3	1086	674480.321328491188	0
3	1095	676959.252030847735	0
3	1119	682171.876242397359	0
3	1127	683557.110822341262	0
3	1147	714066.998629456425	0
3	1165	737570.558528299724	0
3	1182	743928.813791923398	0
3	1199	753130.462838922651	0
3	1216	760719.468638299805	0
3	1233	768811.338766949952	0
3	1250	775102.001827354976	0
3	1294	785836.711543325609	784.42147861379
3	1302	786779.943961095156	1535.8226486156
3	1307	787846.369003409627	1174.3396867977
3	1315	789315.451834377712	0
3	1341	805759.237855570267	0
3	1357	807263.325897463363	370.05549320723
3	1366	810833.267988751414	0
3	1392	831437.065862780281	0
3	1400	832901.549082567196	0
3	1426	846749.87140948669	0
3	1434	847796.719223333627	211.1170196088
3	1458	854327.643060397102	0
3	1467	855388.610606243666	397.39196293551
3	1484	867055.586844306959	0
3	1500	871830.695650966492	0
3	1526	882229.878220534375	929.90048748483
3	1550	886228.653844988707	0
3	1558	888688.008557687538	0
3	1566	889623.214917519976	430.23714705474
3	1584	904421.502520279701	0
3	1609	913799.301711981318	0
3	1617	915505.245584758068	0
3	1650	921085.532535755623	293.70977696372
3	1658	921838.218756446298	201.69978772463
3	1666	924182.469991241517	0
3	1683	929393.246341096412	0
3	1708	941507.061897783631	0
3	1716	942621.602977259654	0
3	1734	962629.761103314072	0
3	1751	967749.493485639247	0
3	1777	986333.10391062087	1.487352103088
3	1785	989940.478551084752	0
3	1802	996884.852588480078	0
3	1821	1017056.624856468057	0
3	1838	1034743.123822992269	0
3	1866	1064768.003519280633	0
3	1882	1067228.712572078813	0
3	1898	1070443.11766188827	0
3	1907	1073688.064405688809	0
3	1924	1080518.705489889029	0
3	1956	1087421.303740438952	0
3	1964	1088233.075384659086	160.03468588797
3	1973	1091395.32767007795	0
3	1999	1110420.047140087946	0
3	2015	1112444.253375109164	1271.3668496588
3	2032	1116524.916984137819	0
3	2048	1118242.941342441659	924.49770796417
3	2056	1121798.279432838276	0
3	2073	1128476.134370735715	0
3	2091	1146642.456213532587	0
3	2117	1169390.739701579325	0
3	2126	1171668.174779500919	0
3	2142	1177621.823998326875	0
3	2159	1184305.977656800047	0
3	2184	1191247.457549503014	0
3	2192	1192925.870475370323	0
3	2209	1198613.347352080723	0
3	2227	1216198.495701900815	0
3	2259	1221829.896855346281	0
3	2267	1222679.438481085829	420.49785773892
3	2275	1223867.459282767198	0
3	2293	1235663.6306405926	0
4	622	380399.595718435896	0
4	628	382976.286643281342	1
4	630	382976.286643281342	0
4	650	390851.196691785385	1
4	655	391057.543449044178	0
4	661	395482.399279105937	1
4	663	395482.399279105937	0
4	679	409922.580841276509	1
4	681	409922.580841276509	0
4	697	425901.239481725442	1
4	699	425901.239481725442	0
4	714	436349.829647031192	1
4	716	436349.829647031192	0
4	731	441465.644957501333	1
4	733	441465.644957501333	0
4	747	447342.180320016611	1
4	749	447342.180320016611	0
4	772	456876.145028859782	1
4	774	456876.145028859782	0
4	780	458439.994416456919	1
4	782	458439.994416456919	0
4	797	466940.434484849601	1
4	799	466940.434484849601	0
4	814	473542.742562735071	1
4	816	473542.742562735071	0
4	832	491164.263168514294	1
4	834	491164.263168514294	0
4	850	510310.835070892837	1
4	852	510310.835070892837	0
4	868	528573.593031615703	1
4	870	528573.593031615703	0
4	898	539032.985928625034	1
4	901	539469.155961690305	2
4	907	540050.555912073986	1
4	912	540973.539443503205	0
4	918	543382.266177850184	1
4	920	543382.266177850184	0
4	936	563089.932634608966	1
4	938	563089.932634608966	0
4	954	578298.8773505687	1
4	956	578298.8773505687	0
4	971	589383.274919427592	1
4	973	589383.274919427592	0
4	988	598644.751916059765	1
4	990	598644.751916059765	0
4	1006	614026.491694783323	1
4	1008	614026.491694783323	0
4	1023	622769.537664284407	1
4	1025	622769.537664284407	0
4	1050	655981.235169639574	1
4	1052	655981.235169639574	0
4	1055	656650.307967960538	1
4	1061	657014.742744902082	0
4	1084	674480.321328491188	1
4	1086	674480.321328491188	0
4	1093	676959.252030847735	1
4	1095	676959.252030847735	0
4	1117	682171.876242397359	1
4	1119	682171.876242397359	0
4	1125	683557.110822341262	1
4	1127	683557.110822341262	0
4	1145	714066.998629456425	1
4	1147	714066.998629456425	0
4	1163	737570.558528299724	1
4	1165	737570.558528299724	0
4	1180	743928.813791923398	1
4	1182	743928.813791923398	0
4	1197	753130.462838922651	1
4	1199	753130.462838922651	0
4	1214	760719.468638299805	1
4	1216	760719.468638299805	0
4	1231	768811.338766949952	1
4	1233	768811.338766949952	0
4	1248	775102.001827354976	1
4	1250	775102.001827354976	0
4	1286	785052.290064711822	1
4	1289	785244.121312479552	2
4	1294	785836.711543325609	1
4	1297	786672.02931661196	2
4	1302	786779.943961095156	1
4	1307	787846.369003409627	0
4	1313	789315.451834377712	1
4	1315	789315.451834377712	0
4	1339	805759.237855570267	1
4	1341	805759.237855570267	0
4	1352	806893.270404256135	1
4	1357	807263.325897463363	0
4	1364	810833.267988751414	1
4	1366	810833.267988751414	0
4	1390	831437.065862780281	1
4	1392	831437.065862780281	0
4	1398	832901.549082567196	1
4	1400	832901.549082567196	0
4	1424	846749.87140948669	1
4	1426	846749.87140948669	0
4	1429	847585.602203724825	1
4	1434	847796.719223333627	0
4	1456	854327.643060397102	1
4	1458	854327.643060397102	0
4	1461	854991.218643308151	1
4	1467	855388.610606243666	0
4	1482	867055.586844306959	1
4	1484	867055.586844306959	0
4	1498	871830.695650966492	1
4	1500	871830.695650966492	0
4	1520	881299.977733049546	1
4	1526	882229.878220534375	0
4	1548	886228.653844988707	1
4	1550	886228.653844988707	0
4	1556	888688.008557687538	1
4	1558	888688.008557687538	0
4	1561	889192.977770465237	1
4	1566	889623.214917519976	0
4	1582	904421.502520279701	1
4	1584	904421.502520279701	0
4	1607	913799.301711981318	1
4	1609	913799.301711981318	0
4	1615	915505.245584758068	1
4	1617	915505.245584758068	0
4	1645	920791.822758791908	1
4	1650	921085.532535755623	0
4	1653	921636.51896872167	1
4	1658	921838.218756446298	0
4	1664	924182.469991241517	1
4	1666	924182.469991241517	0
4	1681	929393.246341096412	1
4	1683	929393.246341096412	0
4	1706	941507.061897783631	1
4	1708	941507.061897783631	0
4	1714	942621.602977259654	1
4	1716	942621.602977259654	0
4	1732	962629.761103314072	1
4	1734	962629.761103314072	0
4	1749	967749.493485639247	1
4	1751	967749.493485639247	0
4	1772	986331.616558517782	1
4	1777	986333.10391062087	0
4	1783	989940.478551084752	1
4	1785	989940.478551084752	0
4	1800	996884.852588480078	1
4	1802	996884.852588480078	0
4	1819	1017056.624856468057	1
4	1821	1017056.624856468057	0
4	1836	1034743.123822992269	1
4	1838	1034743.123822992269	0
4	1864	1064768.003519280633	1
4	1866	1064768.003519280633	0
4	1880	1067228.712572078813	1
4	1882	1067228.712572078813	0
4	1896	1070443.11766188827	1
4	1898	1070443.11766188827	0
4	1905	1073688.064405688809	1
4	1907	1073688.064405688809	0
4	1922	1080518.705489889029	1
4	1924	1080518.705489889029	0
4	1954	1087421.303740438952	1
4	1956	1087421.303740438952	0
4	1959	1088073.040698771113	1
4	1964	1088233.075384659086	0
4	1971	1091395.32767007795	1
4	1973	1091395.32767007795	0
4	1997	1110420.047140087946	1
4	1999	1110420.047140087946	0
4	2002	1111172.886525450403	1
4	2015	1112444.253375109164	0
4	2030	1116524.916984137819	1
4	2032	1116524.916984137819	0
4	2038	1117318.443634477484	1
4	2048	1118242.941342441659	0
4	2054	1121798.279432838276	1
4	2056	1121798.279432838276	0
4	2071	1128476.134370735715	1
4	2073	1128476.134370735715	0
4	2089	1146642.456213532587	1
4	2091	1146642.456213532587	0
4	2115	1169390.739701579325	1
4	2117	1169390.739701579325	0
4	2124	1171668.174779500919	1
4	2126	1171668.174779500919	0
4	2140	1177621.823998326875	1
4	2142	1177621.823998326875	0
4	2157	1184305.977656800047	1
4	2159	1184305.977656800047	0
4	2182	1191247.457549503014	1
4	2184	1191247.457549503014	0
4	2190	1192925.870475370323	1
4	2192	1192925.870475370323	0
4	2207	1198613.347352080723	1
4	2209	1198613.347352080723	0
4	2225	1216198.495701900815	1
4	2227	1216198.495701900815	0
4	2257	1221829.896855346281	1
4	2259	1221829.896855346281	0
4	2262	1222258.94062334691	1
4	2267	1222679.438481085829	0
4	2273	1223867.459282767198	1
4	2275	1223867.459282767198	0
4	2291	1235663.6306405926	1
4	2293	1235663.6306405926	0
5	643	387000	2
5	665	396000	1
5	669	405000	0
5	686	414000	1
5	695	423000	1
5	704	432000	0
5	729	441000	2
5	754	450000	1
5	784	459000	2
5	804	468000	1
5	821	477000	1
5	822	486000	0
5	839	495000	1
5	840	504000	0
5	857	513000	1
5	858	522000	0
5	875	531000	1
5	903	540000	2
5	925	549000	1
5	926	558000	0
5	943	567000	1
5	952	576000	1
5	961	585000	0
5	983	594000	1
5	995	603000	1
5	1004	612000	1
5	1021	621000	1
5	1030	630000	0
5	1031	639000	0
5	1032	648000	0
5	1057	657000	2
5	1066	666000	0
5	1088	675000	2
5	1129	684000	2
5	1133	693000	0
5	1134	702000	0
5	1143	711000	1
5	1152	720000	0
5	1153	729000	0
5	1167	738000	1
5	1187	747000	1
5	1209	756000	1
5	1226	765000	1
5	1246	774000	2
5	1276	783000	2
5	1320	792000	2
5	1321	801000	0
5	1362	810000	3
5	1371	819000	0
5	1377	828000	0
5	1405	837000	2
5	1422	846000	2
5	1463	855000	2
5	1480	864000	1
5	1505	873000	1
5	1522	882000	1
5	1571	891000	3
5	1577	900000	0
5	1589	909000	1
5	1635	918000	3
5	1679	927000	3
5	1688	936000	0
5	1721	945000	2
5	1722	954000	0
5	1739	963000	1
5	1756	972000	1
5	1757	981000	0
5	1787	990000	2
5	1807	999000	1
5	1808	1008000	0
5	1817	1017000	1
5	1826	1026000	0
5	1840	1035000	1
5	1844	1044000	0
5	1845	1053000	0
5	1854	1062000	1
5	1900	1071000	3
5	1920	1080000	1
5	1966	1089000	3
5	1978	1098000	0
5	1987	1107000	1
5	2028	1116000	3
5	2069	1125000	2
5	2078	1134000	0
5	2084	1143000	0
5	2096	1152000	1
5	2097	1161000	0
5	2119	1170000	2
5	2147	1179000	1
5	2172	1188000	2
5	2205	1197000	2
5	2214	1206000	0
5	2223	1215000	1
5	2277	1224000	3
5	2289	1233000	1
5	2306	1242000	1
6	643	387000	4
6	665	396000	1
6	669	405000	1
6	686	414000	1
6	695	423000	0
6	704	432000	1
6	729	441000	1
6	754	450000	2
6	784	459000	1
6	804	468000	2
6	821	477000	1
6	822	486000	0
6	839	495000	1
6	840	504000	0
6	857	513000	1
6	858	522000	0
6	875	531000	1
6	903	540000	0
6	925	549000	3
6	926	558000	0
6	943	567000	1
6	952	576000	0
6	961	585000	1
6	983	594000	1
6	995	603000	1
6	1004	612000	0
6	1021	621000	1
6	1030	630000	1
6	1031	639000	0
6	1032	648000	0
6	1057	657000	0
6	1066	666000	2
6	1088	675000	0
6	1129	684000	3
6	1133	693000	1
6	1134	702000	0
6	1143	711000	0
6	1152	720000	1
6	1153	729000	0
6	1167	738000	0
6	1187	747000	2
6	1209	756000	1
6	1226	765000	1
6	1246	774000	1
6	1276	783000	1
6	1320	792000	4
6	1321	801000	0
6	1362	810000	2
6	1371	819000	1
6	1377	828000	0
6	1405	837000	2
6	1422	846000	0
6	1463	855000	2
6	1480	864000	2
6	1505	873000	2
6	1522	882000	0
6	1571	891000	4
6	1577	900000	0
6	1589	909000	1
6	1635	918000	2
6	1679	927000	3
6	1688	936000	1
6	1721	945000	2
6	1722	954000	0
6	1739	963000	0
6	1756	972000	2
6	1757	981000	0
6	1787	990000	1
6	1807	999000	2
6	1808	1008000	0
6	1817	1017000	0
6	1826	1026000	1
6	1840	1035000	0
6	1844	1044000	1
6	1845	1053000	0
6	1854	1062000	0
6	1900	1071000	2
6	1920	1080000	2
6	1966	1089000	2
6	1978	1098000	2
6	1987	1107000	0
6	2028	1116000	2
6	2069	1125000	3
6	2078	1134000	1
6	2084	1143000	0
6	2096	1152000	1
6	2097	1161000	0
6	2119	1170000	0
6	2147	1179000	3
6	2172	1188000	1
6	2205	1197000	2
6	2214	1206000	1
6	2223	1215000	0
6	2277	1224000	3
6	2289	1233000	1
6	2306	1242000	1
7	627	382976.286643281342	0
7	641	386607.198921544409	1
7	649	390851.196691785385	0
7	653	391057.543449044178	1
7	660	395482.399279105937	0
7	676	406585.020493586411	1
7	678	409922.580841276509	0
7	693	422337.1794632945	1
7	696	425901.239481725442	0
7	711	433068.021192153819	1
7	713	436349.829647031192	0
7	727	438039.797449509075	1
7	730	441465.644957501333	0
7	744	443915.780221716458	1
7	746	447342.180320016611	0
7	761	453671.139265441116	1
7	769	455064.121023574604	2
7	771	456876.145028859782	1
7	779	458439.994416456919	0
7	794	463711.872621787977	1
7	796	466940.434484849601	0
7	811	469651.936437245118	1
7	813	473542.742562735071	0
7	829	487707.677472563662	1
7	831	491164.263168514294	0
7	847	507296.611879105623	1
7	849	510310.835070892837	0
7	865	525139.732024928192	1
7	867	528573.593031615703	0
7	882	535605.028142762167	1
7	890	536478.894967072981	2
7	897	539032.985928625034	1
7	900	539469.155961690305	0
7	905	540050.555912073986	1
7	917	543382.266177850184	0
7	933	559553.092050652159	1
7	935	563089.932634608966	0
7	950	574627.055165115333	1
7	953	578298.8773505687	0
7	968	586250.319935769856	1
7	970	589383.274919427592	0
7	985	594449.606571518054	1
7	987	598644.751916059765	0
7	1002	609909.400563042088	1
7	1005	614026.491694783323	0
7	1019	619670.385853054851	1
7	1022	622769.537664284407	0
7	1039	652134.570351666094	1
7	1047	652944.376998693455	2
7	1049	655981.235169639574	1
7	1054	656650.307967960538	0
7	1073	670379.18641148137	1
7	1081	673225.390000372455	2
7	1083	674480.321328491188	1
7	1092	676959.252030847735	0
7	1109	678623.745354712709	1
7	1114	679498.997590136985	2
7	1116	682171.876242397359	1
7	1124	683557.110822341262	0
7	1141	710565.276502687236	1
7	1144	714066.998629456425	0
7	1160	733822.958511146418	1
7	1162	737570.558528299724	0
7	1177	739763.906251549361	1
7	1179	743928.813791923398	0
7	1194	750207.968367839161	1
7	1196	753130.462838922651	0
7	1211	756481.489319160866	1
7	1213	760719.468638299805	0
7	1228	765203.337107412452	1
7	1230	768811.338766949952	0
7	1244	771387.804777289413	1
7	1247	775102.001827354976	0
7	1261	780468.5289290048	1
7	1269	781960.453856525422	2
7	1278	783559.472479840238	3
7	1285	785052.290064711822	2
7	1288	785244.121312479552	1
7	1292	785836.711543325609	2
7	1296	786672.02931661196	1
7	1312	789315.451834377712	0
7	1328	802306.532003554978	1
7	1336	803772.668259206905	2
7	1338	805759.237855570267	1
7	1351	806893.270404256135	0
7	1355	807263.325897463363	1
7	1363	810833.267988751414	0
7	1379	828410.198073588967	1
7	1387	829908.161999620826	2
7	1389	831437.065862780281	1
7	1397	832901.549082567196	0
7	1415	842959.906055499077	1
7	1420	843701.252917733428	2
7	1423	846749.87140948669	1
7	1428	847585.602203724825	0
7	1448	850647.434322798852	1
7	1453	851532.898526675793	2
7	1455	854327.643060397102	1
7	1460	854991.218643308151	0
7	1478	863235.385632016966	1
7	1481	867055.586844306959	0
7	1495	868608.172526346924	1
7	1497	871830.695650966492	0
7	1512	877359.388558939284	1
7	1519	881299.977733049546	0
7	1524	882229.878220534375	1
7	1540	885025.439477558267	2
7	1545	885771.090750318913	3
7	1547	886228.653844988707	2
7	1555	888688.008557687538	1
7	1560	889192.977770465237	0
7	1579	900426.604217870471	1
7	1581	904421.502520279701	0
7	1599	910696.748125611869	1
7	1604	911598.042011671308	2
7	1606	913799.301711981318	1
7	1614	915505.245584758068	0
7	1631	917132.272813873979	1
7	1637	918060.695212765715	2
7	1644	920791.822758791908	1
7	1648	921085.532535755623	2
7	1652	921636.51896872167	1
7	1663	924182.469991241517	0
7	1677	926044.615022395223	1
7	1680	929393.246341096412	0
7	1695	937911.609210701681	1
7	1703	939251.002261070604	2
7	1705	941507.061897783631	1
7	1713	942621.602977259654	0
7	1729	959026.470529223454	1
7	1731	962629.761103314072	0
7	1746	964646.5031721123	1
7	1748	967749.493485639247	0
7	1764	982576.164152649887	1
7	1771	986331.616558517782	0
7	1775	986333.10391062087	1
7	1782	989940.478551084752	0
7	1797	993313.03521826049	1
7	1799	996884.852588480078	0
7	1815	1012986.073221538332	1
7	1818	1017056.624856468057	0
7	1833	1030331.536641084879	1
7	1835	1034743.123822992269	0
7	1852	1061625.33095048139	1
7	1861	1064011.633290690162	2
7	1863	1064768.003519280633	1
7	1877	1066761.529173466976	2
7	1879	1067228.712572078813	1
7	1893	1069605.187355510308	2
7	1895	1070443.11766188827	1
7	1904	1073688.064405688809	0
7	1918	1077196.375551077669	1
7	1921	1080518.705489889029	0
7	1935	1083212.752671621508	1
7	1943	1084231.055450295879	2
7	1951	1087021.177230145607	3
7	1953	1087421.303740438952	2
7	1958	1088073.040698771113	1
7	1970	1091395.32767007795	0
7	1985	1106567.393837672276	1
7	1994	1108089.467791793567	2
7	1996	1110420.047140087946	1
7	2001	1111172.886525450403	0
7	2013	1112444.253375109164	1
7	2026	1114132.095865152453	2
7	2029	1116524.916984137819	1
7	2037	1117318.443634477484	0
7	2046	1118242.941342441659	1
7	2053	1121798.279432838276	0
7	2067	1124615.840391584614	1
7	2070	1128476.134370735715	0
7	2086	1143027.661481167988	1
7	2088	1146642.456213532587	0
7	2104	1166173.184302098807	1
7	2112	1168589.478386963377	2
7	2114	1169390.739701579325	1
7	2123	1171668.174779500919	0
7	2137	1174378.286713401714	1
7	2139	1177621.823998326875	0
7	2154	1181438.024269011528	1
7	2156	1184305.977656800047	0
7	2170	1187592.386776468681	1
7	2179	1189518.221300683385	2
7	2181	1191247.457549503014	1
7	2189	1192925.870475370323	0
7	2203	1194779.559146183747	1
7	2206	1198613.347352080723	0
7	2221	1212498.220250897141	1
7	2224	1216198.495701900815	0
7	2241	1218060.304617884665	1
7	2246	1218929.930621373967	2
7	2254	1220203.274640100019	3
7	2256	1221829.896855346281	2
7	2261	1222258.94062334691	1
7	2272	1223867.459282767198	0
7	2287	1232355.445760815232	1
7	2290	1235663.6306405926	0
7	2304	1240186.168354128853	1
