version 2
run ResponseMeasurement-87-20170110-19:43:56-22359
attr configname ResponseMeasurement
attr datetime 20170110-19:43:56
attr experiment ResponseMeasurement
attr inifile responseStudy.ini
attr iterationvars ""
attr iterationvars2 $repetition=87
attr measurement ""
attr network controltower.SimNetwork
attr processid 22359
attr repetition 87
attr replication #87
attr resultdir results
attr runnumber 87
attr seedset 87
param SimNetwork.a.parkingLot.parkingDelay "truncnormal(60min, 6min)"
param SimNetwork.a.runway.landingTime "truncnormal(15min, 1.5min)"
param SimNetwork.a.runway.takeoffTime "truncnormal(15min, 1.5min)"
param SimNetwork.a.runway.throughputCheckInterval 150min
param SimNetwork.wg.interArrivalTime exponential(150min)

vector 5  SimNetwork.a.runway  landedThroughput:vector  ETV
attr source  landedThroughputSignal
vector 6  SimNetwork.a.runway  tookoffThroughput:vector  ETV
attr source  tookoffThroughputSignal
vector 2  SimNetwork.a.landingQueue  queueLength:vector  ETV
attr source  queueLengthSignal
vector 1  SimNetwork.a.landingQueue  queueTime:vector  ETV
attr source  queueTimeSignal
vector 7  SimNetwork.a.parkingLot  parkingOccupancy:vector  ETV
attr source  parkingOccupancy
vector 4  SimNetwork.a.takeoffQueue  queueLength:vector  ETV
attr source  queueLengthSignal
vector 3  SimNetwork.a.takeoffQueue  queueTime:vector  ETV
attr source  queueTimeSignal
vector 0  SimNetwork.wg  responseTime:vector  ETV
attr source  responseTimeSignal
0	764	406261.096357622978	35403.174233062
0	780	413117.394914069259	12250.165757272
0	825	426063.890315280026	18271.81050427
0	833	426999.918332266722	6584.0428677785
0	849	428838.806854363749	8008.0705915903
0	854	429475.492233464812	6617.6510517498
0	863	432290.567357902695	7978.5662250122
0	880	446579.846323975031	19892.363016605
0	905	451966.117857492645	11660.781045828
0	913	453796.089536435157	7197.8639133233
0	938	462091.613187359566	13479.80210576
0	946	464782.597252568511	8672.7521655712
0	979	471956.350500641727	11800.088757906
0	987	473093.429028504121	6622.5838112607
0	995	475458.27875845352	7812.0360183568
0	1014	496739.390368274211	27009.546278106
0	1039	508090.852589057861	16766.772170109
0	1050	511666.161760403948	9802.0552829847
0	1064	517562.667568043086	11243.823905438
0	1089	525139.288698104616	13504.992764683
0	1097	527001.973122767481	6879.244821145
0	1122	538922.944005882901	16944.152375609
0	1131	542788.121134534047	10199.499695865
0	1159	551657.975057657576	14577.41742992
0	1164	552662.827422637241	6706.572542592
0	1189	559871.860962214461	13017.568781672
0	1197	561298.343352642719	6462.9124599274
0	1221	566956.932045514691	11118.232170637
0	1230	569273.993868081041	7519.122126339
0	1255	581251.453587916591	17132.204362242
0	1274	584773.966698329604	8796.7784402032
0	1288	587816.689757340836	9939.4923411643
0	1296	589458.613102790411	6493.2648483381
0	1314	605258.321183608477	20965.380226037
0	1342	644879.160852912813	45470.711578755
0	1350	646149.265536342412	6540.2337320333
0	1369	674473.121967425004	34051.527334713
0	1387	686679.251588171183	18073.900331946
0	1404	696449.620502215167	14738.564230374
0	1422	717911.821048083434	26964.73078734
0	1439	726038.568788484192	13887.89314585
0	1475	733853.855427945754	13992.8531794
0	1480	734847.934335039756	6841.8325009083
0	1488	736796.970617809618	7622.3988944653
0	1507	757579.348113902591	26111.069748762
0	1523	764808.83424879479	12613.185737727
0	1542	785175.950196548204	25506.683998461
0	1560	809697.368373507767	30216.746588028
0	1579	830533.19548571757	26467.337659606
0	1596	841818.414336256034	17096.821518451
0	1621	850488.147371537443	14380.826788863
0	1629	852717.066262684093	7746.5500970615
0	1654	863318.022976932794	15829.145575685
0	1663	864669.594399804806	6631.9151398388
0	1688	875530.2281277277	15811.458315927
0	1696	876911.112349487274	6848.8809391414
0	1732	886416.912013235954	16039.880857523
0	1737	887233.424403657244	6616.9319228938
0	1753	890386.53971216209	9609.1199084871
0	1778	894460.474848869037	9815.7854967681
0	1786	896096.90842333895	7542.909022197
0	1797	897695.939175058978	6718.7505423372
0	1814	903468.208808881882	11964.950279731
0	1827	908965.314968210673	12246.774813792
0	1847	937546.271850130522	34669.187696921
0	1863	944280.957823373734	11364.803064814
0	1880	952523.017670764239	13807.1191171
0	1898	970894.291896570658	23002.25012213
0	1923	979122.603390910969	13658.976911453
0	1932	981320.880521684401	7065.0194748846
0	1948	989729.98103195529	14099.87959241
0	1968	995366.139554478294	11690.828739109
0	1985	999783.324867175412	10049.957905502
0	1998	1004736.224522402946	9796.9272695841
0	2023	1015713.000402924271	16265.982609661
0	2031	1016879.726974353405	6645.7265193633
0	2050	1036938.797260697583	24845.043390097
0	2067	1049777.820238848695	18120.94913094
0	2093	1062472.399192121758	18432.472589898
0	2101	1064612.644740431102	7991.5516329101
0	2118	1077067.370472469846	17503.664684082
0	2154	1083068.930500946092	11499.759625237
0	2159	1083922.762639390515	6210.136504507
0	2167	1085489.969844416048	7304.9019243649
0	2192	1092163.603041602497	13585.99163551
0	2200	1093430.942525192336	6919.0566372251
0	2217	1102139.094148323137	14404.011358756
0	2242	1110973.882530776454	14363.910136029
0	2250	1114380.538054015871	9343.3515131403
0	2276	1126163.490211489746	16929.797469014
0	2284	1130010.14618022724	9650.4235347304
0	2302	1147691.488520163558	23227.519699297
0	2321	1171525.524810251866	29303.313117908
0	2346	1181558.792537613519	15948.606855098
0	2354	1184327.056985160931	8690.4762924131
0	2371	1191928.468644328738	13013.890260808
0	2388	1197494.840178416251	11843.070103298
0	2404	1204490.999784452659	12452.820806587
0	2421	1214272.467318176088	14751.015280942
0	2448	1238349.62693450331	28835.394934038
0	2456	1240115.745141110729	7078.1137058059
1	752	400867.229156797508	0
1	769	407792.079811009796	0
1	786	420415.87546448819	0
1	794	421319.67220568375	488.93594291033
1	802	422857.841181714965	0
1	811	424312.00113289052	0
1	835	426999.918332266722	312.43502489636
1	868	440305.336811664302	0
1	885	446598.225623111886	0
1	893	448611.811081599704	0
1	918	456109.845086997264	0
1	927	460156.261742735369	0
1	951	466470.845217243405	0
1	959	467646.242740096691	0
1	968	469729.844090168493	0
1	1002	491324.080418948633	0
1	1019	501864.106477419267	0
1	1028	506318.843662605271	0
1	1052	511666.161760403948	31.865826982393
1	1069	520122.728301622509	0
1	1077	521978.791630273602	0
1	1103	532588.62143866935	0
1	1111	537080.557627737556	0
1	1136	545956.254880045234	0
1	1144	546889.365088326282	35.072907783971
1	1169	554835.430892715309	0
1	1177	555838.699874877375	0
1	1202	561754.871741742025	0
1	1210	564119.249225674624	0
1	1235	575977.1882581264	0
1	1244	577877.197416176509	0
1	1260	582965.348254452327	0
1	1276	584773.966698329604	481.02574075809
1	1302	599408.449274157966	0
1	1323	639609.031804309158	0
1	1331	640596.823291014951	175.22865830319
1	1358	668605.351256224831	0
1	1375	681711.056271841041	0
1	1392	690947.090260743737	0
1	1411	712150.675642634677	0
1	1427	719861.002248545735	0
1	1444	728006.101834131421	0
1	1453	729174.571723344294	0
1	1461	731468.27836514054	0
1	1495	752195.648511068092	0
1	1512	759669.266198087218	0
1	1530	779480.62178547987	0
1	1549	804065.85782611129	0
1	1567	824721.59281780507	0
1	1584	836107.320582674136	0
1	1601	844970.516165622632	0
1	1610	847488.877401248272	0
1	1635	858037.679259966	0
1	1643	859718.76981180077	0
1	1668	870062.231410345882	0
1	1676	871027.51413299129	650.48297727795
1	1701	880616.492480763462	0
1	1709	881497.876791920512	720.45698824549
1	1718	884644.689352100987	0
1	1742	888553.99940114191	0
1	1758	890977.188632721763	0
1	1767	891984.606835515808	481.34830636538
1	1799	897695.939175058978	977.39902064042
1	1816	903468.208808881882	591.12465567224
1	1835	932916.154758559251	0
1	1852	938715.898553663945	0
1	1869	947892.041774441017	0
1	1887	965463.626479458215	0
1	1904	974255.861046799803	0
1	1912	975630.101439545394	0
1	1937	983675.310815368846	0
1	1953	989733.366961673424	0
1	1970	995366.139554478294	426.84230165941
1	1987	999783.324867175412	336.3070739125
1	2004	1010234.000454990126	0
1	2012	1012093.753870600756	0
1	2038	1031656.871107908464	0
1	2056	1044039.926602223334	0
1	2073	1056621.093107520984	0
1	2081	1059563.705788387608	0
1	2107	1071569.170875709318	0
1	2123	1077712.626134883538	0
1	2131	1078573.322899424156	388.25497937301
1	2139	1079491.795660899647	914.18425480759
1	2172	1086511.885887967188	0
1	2180	1087735.082789566676	0
1	2205	1096609.972394746996	0
1	2222	1105037.186540875528	0
1	2231	1109233.692742475553	0
1	2256	1120359.722645496889	0
1	2264	1124463.96882086662	0
1	2290	1142222.21169234355	0
1	2309	1165610.185682515354	0
1	2326	1175636.580692747844	0
1	2334	1178914.578383520907	0
1	2359	1185651.770075118211	0
1	2376	1192038.178977866137	0
1	2393	1199521.452037233711	0
1	2410	1209514.232000465767	0
1	2429	1233037.631435304831	0
1	2437	1234526.660861954731	0
2	750	400867.229156797508	1
2	752	400867.229156797508	0
2	767	407792.079811009796	1
2	769	407792.079811009796	0
2	784	420415.87546448819	1
2	786	420415.87546448819	0
2	789	420830.73626277342	1
2	794	421319.67220568375	0
2	800	422857.841181714965	1
2	802	422857.841181714965	0
2	809	424312.00113289052	1
2	811	424312.00113289052	0
2	830	426687.48330737036	1
2	835	426999.918332266722	0
2	866	440305.336811664302	1
2	868	440305.336811664302	0
2	883	446598.225623111886	1
2	885	446598.225623111886	0
2	891	448611.811081599704	1
2	893	448611.811081599704	0
2	916	456109.845086997264	1
2	918	456109.845086997264	0
2	925	460156.261742735369	1
2	927	460156.261742735369	0
2	949	466470.845217243405	1
2	951	466470.845217243405	0
2	957	467646.242740096691	1
2	959	467646.242740096691	0
2	966	469729.844090168493	1
2	968	469729.844090168493	0
2	1000	491324.080418948633	1
2	1002	491324.080418948633	0
2	1017	501864.106477419267	1
2	1019	501864.106477419267	0
2	1026	506318.843662605271	1
2	1028	506318.843662605271	0
2	1047	511634.295933421555	1
2	1052	511666.161760403948	0
2	1067	520122.728301622509	1
2	1069	520122.728301622509	0
2	1075	521978.791630273602	1
2	1077	521978.791630273602	0
2	1101	532588.62143866935	1
2	1103	532588.62143866935	0
2	1109	537080.557627737556	1
2	1111	537080.557627737556	0
2	1134	545956.254880045234	1
2	1136	545956.254880045234	0
2	1139	546854.292180542311	1
2	1144	546889.365088326282	0
2	1167	554835.430892715309	1
2	1169	554835.430892715309	0
2	1175	555838.699874877375	1
2	1177	555838.699874877375	0
2	1200	561754.871741742025	1
2	1202	561754.871741742025	0
2	1208	564119.249225674624	1
2	1210	564119.249225674624	0
2	1233	575977.1882581264	1
2	1235	575977.1882581264	0
2	1242	577877.197416176509	1
2	1244	577877.197416176509	0
2	1258	582965.348254452327	1
2	1260	582965.348254452327	0
2	1271	584292.94095757151	1
2	1276	584773.966698329604	0
2	1300	599408.449274157966	1
2	1302	599408.449274157966	0
2	1321	639609.031804309158	1
2	1323	639609.031804309158	0
2	1326	640421.594632711763	1
2	1331	640596.823291014951	0
2	1356	668605.351256224831	1
2	1358	668605.351256224831	0
2	1373	681711.056271841041	1
2	1375	681711.056271841041	0
2	1390	690947.090260743737	1
2	1392	690947.090260743737	0
2	1409	712150.675642634677	1
2	1411	712150.675642634677	0
2	1425	719861.002248545735	1
2	1427	719861.002248545735	0
2	1442	728006.101834131421	1
2	1444	728006.101834131421	0
2	1451	729174.571723344294	1
2	1453	729174.571723344294	0
2	1459	731468.27836514054	1
2	1461	731468.27836514054	0
2	1493	752195.648511068092	1
2	1495	752195.648511068092	0
2	1510	759669.266198087218	1
2	1512	759669.266198087218	0
2	1528	779480.62178547987	1
2	1530	779480.62178547987	0
2	1547	804065.85782611129	1
2	1549	804065.85782611129	0
2	1565	824721.59281780507	1
2	1567	824721.59281780507	0
2	1582	836107.320582674136	1
2	1584	836107.320582674136	0
2	1599	844970.516165622632	1
2	1601	844970.516165622632	0
2	1608	847488.877401248272	1
2	1610	847488.877401248272	0
2	1633	858037.679259966	1
2	1635	858037.679259966	0
2	1641	859718.76981180077	1
2	1643	859718.76981180077	0
2	1666	870062.231410345882	1
2	1668	870062.231410345882	0
2	1671	870377.031155713344	1
2	1676	871027.51413299129	0
2	1699	880616.492480763462	1
2	1701	880616.492480763462	0
2	1704	880777.41980367502	1
2	1709	881497.876791920512	0
2	1716	884644.689352100987	1
2	1718	884644.689352100987	0
2	1740	888553.99940114191	1
2	1742	888553.99940114191	0
2	1756	890977.188632721763	1
2	1758	890977.188632721763	0
2	1762	891503.258529150427	1
2	1767	891984.606835515808	0
2	1794	896718.540154418555	1
2	1799	897695.939175058978	0
2	1811	902877.084153209643	1
2	1816	903468.208808881882	0
2	1833	932916.154758559251	1
2	1835	932916.154758559251	0
2	1850	938715.898553663945	1
2	1852	938715.898553663945	0
2	1867	947892.041774441017	1
2	1869	947892.041774441017	0
2	1885	965463.626479458215	1
2	1887	965463.626479458215	0
2	1902	974255.861046799803	1
2	1904	974255.861046799803	0
2	1910	975630.101439545394	1
2	1912	975630.101439545394	0
2	1935	983675.310815368846	1
2	1937	983675.310815368846	0
2	1951	989733.366961673424	1
2	1953	989733.366961673424	0
2	1965	994939.297252818884	1
2	1970	995366.139554478294	0
2	1982	999447.017793262908	1
2	1987	999783.324867175412	0
2	2002	1010234.000454990126	1
2	2004	1010234.000454990126	0
2	2010	1012093.753870600756	1
2	2012	1012093.753870600756	0
2	2036	1031656.871107908464	1
2	2038	1031656.871107908464	0
2	2054	1044039.926602223334	1
2	2056	1044039.926602223334	0
2	2071	1056621.093107520984	1
2	2073	1056621.093107520984	0
2	2079	1059563.705788387608	1
2	2081	1059563.705788387608	0
2	2105	1071569.170875709318	1
2	2107	1071569.170875709318	0
2	2121	1077712.626134883538	1
2	2123	1077712.626134883538	0
2	2126	1078185.06792005115	1
2	2131	1078573.322899424156	0
2	2134	1078577.611406092054	1
2	2139	1079491.795660899647	0
2	2170	1086511.885887967188	1
2	2172	1086511.885887967188	0
2	2178	1087735.082789566676	1
2	2180	1087735.082789566676	0
2	2203	1096609.972394746996	1
2	2205	1096609.972394746996	0
2	2220	1105037.186540875528	1
2	2222	1105037.186540875528	0
2	2229	1109233.692742475553	1
2	2231	1109233.692742475553	0
2	2254	1120359.722645496889	1
2	2256	1120359.722645496889	0
2	2262	1124463.96882086662	1
2	2264	1124463.96882086662	0
2	2288	1142222.21169234355	1
2	2290	1142222.21169234355	0
2	2307	1165610.185682515354	1
2	2309	1165610.185682515354	0
2	2324	1175636.580692747844	1
2	2326	1175636.580692747844	0
2	2332	1178914.578383520907	1
2	2334	1178914.578383520907	0
2	2357	1185651.770075118211	1
2	2359	1185651.770075118211	0
2	2374	1192038.178977866137	1
2	2376	1192038.178977866137	0
2	2391	1199521.452037233711	1
2	2393	1199521.452037233711	0
2	2408	1209514.232000465767	1
2	2410	1209514.232000465767	0
2	2427	1233037.631435304831	1
2	2429	1233037.631435304831	0
2	2435	1234526.660861954731	1
2	2437	1234526.660861954731	0
3	761	405419.145303368612	0
3	777	412266.940483324949	0
3	819	425213.058177064478	216.23839213053
3	827	426063.890315280026	489.03077651337
3	843	427957.413893022542	522.8328645351
3	851	428838.806854363749	151.74869148329
3	859	431497.572318210694	0
3	877	445657.571224532674	0
3	902	451131.415162190155	0
3	910	452839.140864723779	0
3	935	461004.691368587416	423.36685172018
3	943	464032.676799254168	0
3	976	471193.293056194668	0
3	984	472115.437007573496	0
3	992	474640.04246272737	0
3	1011	495828.958382602705	0
3	1036	507245.802306439816	0
3	1044	510745.00886086847	0
3	1061	516636.326660068459	0
3	1086	524209.58462871078	0
3	1094	526198.360434008196	0
3	1119	537963.846634470931	746.83892646017
3	1128	541974.745705076349	0
3	1153	550773.248933806207	0
3	1161	551657.975057657576	794.09808728824
3	1186	558933.262810678599	0
3	1194	560471.116510600217	0
3	1218	565950.641972999701	0
3	1227	568303.251484771235	0
3	1252	580257.163464957143	0
3	1268	583840.30632942503	790.69809333841
3	1285	587003.263845086006	0
3	1293	588581.332131499481	0
3	1311	604274.805185553189	0
3	1339	644016.650242569989	0
3	1347	645233.774022334023	0
3	1366	673472.406870460966	0
3	1384	685855.430612633779	0
3	1401	695483.332864150652	0
3	1419	717069.186075203041	0
3	1436	725196.925700783932	0
3	1469	732941.187161491168	0
3	1477	733853.855427945754	530.13715426226
3	1485	735969.646500074366	0
3	1504	756696.724335902754	0
3	1520	763984.165333181047	0
3	1539	784367.02409891617	0
3	1557	808853.783001626734	0
3	1576	829581.988465615363	0
3	1593	840883.921761951613	0
3	1618	849552.233202184073	0
3	1626	851845.359050782822	0
3	1651	862354.378419756778	0
3	1659	863688.52824046468	0
3	1685	874597.200542716961	0
3	1693	875936.765905903291	0
3	1726	885581.567589762509	471.65494999375
3	1734	886416.912013235954	755.9572508088
3	1750	889549.241514672852	399.53638299644
3	1775	893444.429944603146	0
3	1783	895280.626875930914	0
3	1791	896718.497939135628	0
3	1808	902651.557270164488	0
3	1824	907963.900929534899	0
3	1844	936813.94435740486	0
3	1860	943297.975304576643	0
3	1877	951573.15852077643	0
3	1895	970137.529690237947	0
3	1920	978289.697409713446	0
3	1928	980365.694124995233	0
3	1945	988678.204668691953	0
3	1962	994576.61179961044	0
3	1979	999111.053251217144	0
3	1995	1003930.46743871216	0
3	2020	1014678.639023059241	0
3	2028	1016002.97124923391	0
3	2047	1036276.255419801556	0
3	2064	1048833.246446849088	0
3	2089	1061551.888318836899	0
3	2098	1063545.35477789038	0
3	2115	1076301.950983897794	0
3	2148	1082133.276586711606	0
3	2156	1083068.930500946092	449.86110575433
3	2164	1084592.919079548504	0
3	2189	1091329.932302637645	0
3	2197	1092500.121934429073	0
3	2214	1101275.033084224295	0
3	2239	1110058.982145495115	814.09825362519
3	2247	1113372.788420592105	0
3	2273	1125334.677014334335	788.29707197951
3	2281	1128995.939065617058	0
3	2299	1146891.03287743446	0
3	2318	1170638.28110227338	0
3	2343	1180482.70928617407	0
3	2351	1183527.053458163006	0
3	2368	1190869.320182306055	0
3	2384	1196499.002212804967	0
3	2401	1203642.339165142193	0
3	2418	1213351.546728867467	0
3	2445	1237462.45443503244	0
3	2453	1239309.2766488085	0
4	759	405419.145303368612	1
4	761	405419.145303368612	0
4	775	412266.940483324949	1
4	777	412266.940483324949	0
4	814	424996.819784933946	1
4	819	425213.058177064478	0
4	822	425574.859538766652	1
4	827	426063.890315280026	0
4	838	427434.581028487438	1
4	843	427957.413893022542	0
4	846	428687.058162880459	1
4	851	428838.806854363749	0
4	857	431497.572318210694	1
4	859	431497.572318210694	0
4	875	445657.571224532674	1
4	877	445657.571224532674	0
4	900	451131.415162190155	1
4	902	451131.415162190155	0
4	908	452839.140864723779	1
4	910	452839.140864723779	0
4	930	460581.324516867236	1
4	935	461004.691368587416	0
4	941	464032.676799254168	1
4	943	464032.676799254168	0
4	974	471193.293056194668	1
4	976	471193.293056194668	0
4	982	472115.437007573496	1
4	984	472115.437007573496	0
4	990	474640.04246272737	1
4	992	474640.04246272737	0
4	1009	495828.958382602705	1
4	1011	495828.958382602705	0
4	1034	507245.802306439816	1
4	1036	507245.802306439816	0
4	1042	510745.00886086847	1
4	1044	510745.00886086847	0
4	1059	516636.326660068459	1
4	1061	516636.326660068459	0
4	1084	524209.58462871078	1
4	1086	524209.58462871078	0
4	1092	526198.360434008196	1
4	1094	526198.360434008196	0
4	1114	537217.007708010763	1
4	1119	537963.846634470931	0
4	1126	541974.745705076349	1
4	1128	541974.745705076349	0
4	1151	550773.248933806207	1
4	1153	550773.248933806207	0
4	1156	550863.876970369337	1
4	1161	551657.975057657576	0
4	1184	558933.262810678599	1
4	1186	558933.262810678599	0
4	1192	560471.116510600217	1
4	1194	560471.116510600217	0
4	1216	565950.641972999701	1
4	1218	565950.641972999701	0
4	1225	568303.251484771235	1
4	1227	568303.251484771235	0
4	1250	580257.163464957143	1
4	1252	580257.163464957143	0
4	1263	583049.608236086623	1
4	1268	583840.30632942503	0
4	1283	587003.263845086006	1
4	1285	587003.263845086006	0
4	1291	588581.332131499481	1
4	1293	588581.332131499481	0
4	1309	604274.805185553189	1
4	1311	604274.805185553189	0
4	1337	644016.650242569989	1
4	1339	644016.650242569989	0
4	1345	645233.774022334023	1
4	1347	645233.774022334023	0
4	1364	673472.406870460966	1
4	1366	673472.406870460966	0
4	1382	685855.430612633779	1
4	1384	685855.430612633779	0
4	1399	695483.332864150652	1
4	1401	695483.332864150652	0
4	1417	717069.186075203041	1
4	1419	717069.186075203041	0
4	1434	725196.925700783932	1
4	1436	725196.925700783932	0
4	1467	732941.187161491168	1
4	1469	732941.187161491168	0
4	1472	733323.718273683495	1
4	1477	733853.855427945754	0
4	1483	735969.646500074366	1
4	1485	735969.646500074366	0
4	1502	756696.724335902754	1
4	1504	756696.724335902754	0
4	1518	763984.165333181047	1
4	1520	763984.165333181047	0
4	1537	784367.02409891617	1
4	1539	784367.02409891617	0
4	1555	808853.783001626734	1
4	1557	808853.783001626734	0
4	1574	829581.988465615363	1
4	1576	829581.988465615363	0
4	1591	840883.921761951613	1
4	1593	840883.921761951613	0
4	1616	849552.233202184073	1
4	1618	849552.233202184073	0
4	1624	851845.359050782822	1
4	1626	851845.359050782822	0
4	1649	862354.378419756778	1
4	1651	862354.378419756778	0
4	1657	863688.52824046468	1
4	1659	863688.52824046468	0
4	1683	874597.200542716961	1
4	1685	874597.200542716961	0
4	1691	875936.765905903291	1
4	1693	875936.765905903291	0
4	1721	885109.912639768763	1
4	1726	885581.567589762509	0
4	1729	885660.954762427151	1
4	1734	886416.912013235954	0
4	1745	889149.705131676413	1
4	1750	889549.241514672852	0
4	1773	893444.429944603146	1
4	1775	893444.429944603146	0
4	1781	895280.626875930914	1
4	1783	895280.626875930914	0
4	1789	896718.497939135628	1
4	1791	896718.497939135628	0
4	1806	902651.557270164488	1
4	1808	902651.557270164488	0
4	1822	907963.900929534899	1
4	1824	907963.900929534899	0
4	1842	936813.94435740486	1
4	1844	936813.94435740486	0
4	1858	943297.975304576643	1
4	1860	943297.975304576643	0
4	1875	951573.15852077643	1
4	1877	951573.15852077643	0
4	1893	970137.529690237947	1
4	1895	970137.529690237947	0
4	1918	978289.697409713446	1
4	1920	978289.697409713446	0
4	1926	980365.694124995233	1
4	1928	980365.694124995233	0
4	1943	988678.204668691953	1
4	1945	988678.204668691953	0
4	1960	994576.61179961044	1
4	1962	994576.61179961044	0
4	1977	999111.053251217144	1
4	1979	999111.053251217144	0
4	1993	1003930.46743871216	1
4	1995	1003930.46743871216	0
4	2018	1014678.639023059241	1
4	2020	1014678.639023059241	0
4	2026	1016002.97124923391	1
4	2028	1016002.97124923391	0
4	2045	1036276.255419801556	1
4	2047	1036276.255419801556	0
4	2062	1048833.246446849088	1
4	2064	1048833.246446849088	0
4	2087	1061551.888318836899	1
4	2089	1061551.888318836899	0
4	2096	1063545.35477789038	1
4	2098	1063545.35477789038	0
4	2113	1076301.950983897794	1
4	2115	1076301.950983897794	0
4	2146	1082133.276586711606	1
4	2148	1082133.276586711606	0
4	2151	1082619.069395191758	1
4	2156	1083068.930500946092	0
4	2162	1084592.919079548504	1
4	2164	1084592.919079548504	0
4	2187	1091329.932302637645	1
4	2189	1091329.932302637645	0
4	2195	1092500.121934429073	1
4	2197	1092500.121934429073	0
4	2212	1101275.033084224295	1
4	2214	1101275.033084224295	0
4	2234	1109244.883891869923	1
4	2239	1110058.982145495115	0
4	2245	1113372.788420592105	1
4	2247	1113372.788420592105	0
4	2267	1124546.379942354829	1
4	2273	1125334.677014334335	0
4	2279	1128995.939065617058	1
4	2281	1128995.939065617058	0
4	2297	1146891.03287743446	1
4	2299	1146891.03287743446	0
4	2316	1170638.28110227338	1
4	2318	1170638.28110227338	0
4	2341	1180482.70928617407	1
4	2343	1180482.70928617407	0
4	2349	1183527.053458163006	1
4	2351	1183527.053458163006	0
4	2366	1190869.320182306055	1
4	2368	1190869.320182306055	0
4	2382	1196499.002212804967	1
4	2384	1196499.002212804967	0
4	2399	1203642.339165142193	1
4	2401	1203642.339165142193	0
4	2416	1213351.546728867467	1
4	2418	1213351.546728867467	0
4	2443	1237462.45443503244	1
4	2445	1237462.45443503244	0
4	2451	1239309.2766488085	1
4	2453	1239309.2766488085	0
5	747	387000	0
5	748	396000	0
5	757	405000	1
5	782	414000	1
5	804	423000	2
5	861	432000	3
5	870	441000	0
5	898	450000	3
5	923	459000	1
5	961	468000	2
5	997	477000	2
5	998	486000	0
5	1007	495000	1
5	1024	504000	1
5	1057	513000	2
5	1079	522000	1
5	1099	531000	1
5	1124	540000	2
5	1149	549000	2
5	1182	558000	2
5	1223	567000	2
5	1237	576000	0
5	1278	585000	3
5	1298	594000	1
5	1307	603000	1
5	1316	612000	0
5	1317	621000	0
5	1318	630000	0
5	1319	639000	0
5	1352	648000	2
5	1353	657000	0
5	1354	666000	0
5	1371	675000	1
5	1380	684000	1
5	1397	693000	1
5	1406	702000	0
5	1407	711000	0
5	1429	720000	1
5	1449	729000	2
5	1490	738000	2
5	1491	747000	0
5	1500	756000	1
5	1525	765000	1
5	1526	774000	0
5	1535	783000	1
5	1544	792000	0
5	1545	801000	0
5	1562	810000	1
5	1563	819000	0
5	1572	828000	1
5	1589	837000	1
5	1606	846000	1
5	1631	855000	1
5	1661	864000	2
5	1681	873000	2
5	1711	882000	1
5	1760	891000	3
5	1804	900000	3
5	1829	909000	1
5	1830	918000	0
5	1831	927000	0
5	1840	936000	1
5	1865	945000	1
5	1882	954000	1
5	1883	963000	0
5	1900	972000	1
5	1930	981000	2
5	1955	990000	1
5	1975	999000	2
5	2000	1008000	1
5	2033	1017000	2
5	2034	1026000	0
5	2043	1035000	1
5	2052	1044000	0
5	2069	1053000	1
5	2091	1062000	2
5	2103	1071000	0
5	2141	1080000	3
5	2185	1089000	3
5	2210	1098000	1
5	2227	1107000	1
5	2252	1116000	1
5	2269	1125000	1
5	2286	1134000	1
5	2292	1143000	0
5	2304	1152000	1
5	2305	1161000	0
5	2314	1170000	1
5	2336	1179000	1
5	2364	1188000	2
5	2386	1197000	1
5	2406	1206000	1
5	2423	1215000	1
5	2424	1224000	0
5	2425	1233000	0
5	2458	1242000	2
6	747	387000	0
6	748	396000	0
6	757	405000	0
6	782	414000	2
6	804	423000	0
6	861	432000	4
6	870	441000	1
6	898	450000	1
6	923	459000	2
6	961	468000	2
6	997	477000	3
6	998	486000	0
6	1007	495000	0
6	1024	504000	1
6	1057	513000	2
6	1079	522000	1
6	1099	531000	2
6	1124	540000	1
6	1149	549000	1
6	1182	558000	2
6	1223	567000	3
6	1237	576000	1
6	1278	585000	2
6	1298	594000	2
6	1307	603000	0
6	1316	612000	1
6	1317	621000	0
6	1318	630000	0
6	1319	639000	0
6	1352	648000	2
6	1353	657000	0
6	1354	666000	0
6	1371	675000	1
6	1380	684000	0
6	1397	693000	1
6	1406	702000	1
6	1407	711000	0
6	1429	720000	1
6	1449	729000	1
6	1490	738000	3
6	1491	747000	0
6	1500	756000	0
6	1525	765000	2
6	1526	774000	0
6	1535	783000	0
6	1544	792000	1
6	1545	801000	0
6	1562	810000	1
6	1563	819000	0
6	1572	828000	0
6	1589	837000	1
6	1606	846000	1
6	1631	855000	2
6	1661	864000	1
6	1681	873000	1
6	1711	882000	2
6	1760	891000	3
6	1804	900000	3
6	1829	909000	2
6	1830	918000	0
6	1831	927000	0
6	1840	936000	0
6	1865	945000	2
6	1882	954000	1
6	1883	963000	0
6	1900	972000	1
6	1930	981000	1
6	1955	990000	2
6	1975	999000	1
6	2000	1008000	2
6	2033	1017000	2
6	2034	1026000	0
6	2043	1035000	0
6	2052	1044000	1
6	2069	1053000	1
6	2091	1062000	0
6	2103	1071000	2
6	2141	1080000	1
6	2185	1089000	3
6	2210	1098000	2
6	2227	1107000	1
6	2252	1116000	2
6	2269	1125000	0
6	2286	1134000	2
6	2292	1143000	0
6	2304	1152000	1
6	2305	1161000	0
6	2314	1170000	0
6	2336	1179000	1
6	2364	1188000	2
6	2386	1197000	1
6	2406	1206000	2
6	2423	1215000	1
6	2424	1224000	0
6	2425	1233000	0
6	2458	1242000	2
7	755	401744.745292675587	1
7	758	405419.145303368612	0
7	772	408698.803330245569	1
7	774	412266.940483324949	0
7	792	421319.67220568375	1
7	797	422069.436960926955	2
7	806	423914.121827407267	3
7	813	424996.819784933946	2
7	817	425213.058177064478	3
7	821	425574.859538766652	2
7	837	427434.581028487438	1
7	841	427957.413893022542	2
7	845	428687.058162880459	1
7	856	431497.572318210694	0
7	872	441262.668375165467	1
7	874	445657.571224532674	0
7	888	447551.015158644926	1
7	896	449543.844831188306	2
7	899	451131.415162190155	1
7	907	452839.140864723779	0
7	921	456956.335452616876	1
7	929	460581.324516867236	0
7	933	461004.691368587416	1
7	940	464032.676799254168	0
7	954	467362.375227656895	1
7	963	468616.111132515288	2
7	971	470559.208573968058	3
7	973	471193.293056194668	2
7	981	472115.437007573496	1
7	989	474640.04246272737	0
7	1005	492325.108376512561	1
7	1008	495828.958382602705	0
7	1022	502891.483666461772	1
7	1031	507161.351507798815	2
7	1033	507245.802306439816	1
7	1041	510745.00886086847	0
7	1055	512569.396803608761	1
7	1058	516636.326660068459	0
7	1072	521146.823275446449	1
7	1081	522903.223577967202	2
7	1083	524209.58462871078	1
7	1091	526198.360434008196	0
7	1106	533651.408740335106	1
7	1113	537217.007708010763	0
7	1117	537963.846634470931	1
7	1125	541974.745705076349	0
7	1142	546889.365088326282	1
7	1147	547787.085675758313	2
7	1150	550773.248933806207	1
7	1155	550863.876970369337	0
7	1172	555663.961994263438	1
7	1180	556543.077914929609	2
7	1183	558933.262810678599	1
7	1191	560471.116510600217	0
7	1205	562505.034493366011	1
7	1213	565017.712729863623	2
7	1215	565950.641972999701	1
7	1224	568303.251484771235	0
7	1239	576718.678774829424	1
7	1247	578720.444617486949	2
7	1249	580257.163464957143	1
7	1262	583049.608236086623	0
7	1266	583840.30632942503	1
7	1280	585526.978775727339	2
7	1282	587003.263845086006	1
7	1290	588581.332131499481	0
7	1305	600416.909343842718	1
7	1308	604274.805185553189	0
7	1329	640596.823291014951	1
7	1334	641434.200801667962	2
7	1336	644016.650242569989	1
7	1344	645233.774022334023	0
7	1361	669475.558386731351	1
7	1363	673472.406870460966	0
7	1378	682565.988999169838	1
7	1381	685855.430612633779	0
7	1395	691909.330140792923	1
7	1398	695483.332864150652	0
7	1414	713080.419044447267	1
7	1416	717069.186075203041	0
7	1431	720831.856266784766	1
7	1433	725196.925700783932	0
7	1447	728855.231129139905	1
7	1456	730075.613757923266	2
7	1464	732500.456282462684	3
7	1466	732941.187161491168	2
7	1471	733323.718273683495	1
7	1482	735969.646500074366	0
7	1498	753094.060577211492	1
7	1501	756696.724335902754	0
7	1515	760615.341986787458	1
7	1517	763984.165333181047	0
7	1533	780409.143746323396	1
7	1536	784367.02409891617	0
7	1552	805008.841552187968	1
7	1554	808853.783001626734	0
7	1570	825703.487018905583	1
7	1573	829581.988465615363	0
7	1587	836964.142428128632	1
7	1590	840883.921761951613	0
7	1604	845922.514477723116	1
7	1613	848380.70918911082	2
7	1615	849552.233202184073	1
7	1623	851845.359050782822	0
7	1638	858966.086212650111	1
7	1646	860588.068324621659	2
7	1648	862354.378419756778	1
7	1656	863688.52824046468	0
7	1674	871027.51413299129	1
7	1679	872011.492361316293	2
7	1682	874597.200542716961	1
7	1690	875936.765905903291	0
7	1707	881497.876791920512	1
7	1713	882407.979109426937	2
7	1720	885109.912639768763	1
7	1724	885581.567589762509	2
7	1728	885660.954762427151	1
7	1744	889149.705131676413	0
7	1748	889549.241514672852	1
7	1765	891984.606835515808	2
7	1770	892927.27673535718	3
7	1772	893444.429944603146	2
7	1780	895280.626875930914	1
7	1788	896718.497939135628	0
7	1802	898729.372494374566	1
7	1805	902651.557270164488	0
7	1819	904311.41181039036	1
7	1821	907963.900929534899	0
7	1838	933832.397826665617	1
7	1841	936813.94435740486	0
7	1855	939709.544072506458	1
7	1857	943297.975304576643	0
7	1872	948750.634058907926	1
7	1874	951573.15852077643	0
7	1890	966469.035127837038	1
7	1892	970137.529690237947	0
7	1907	975295.750489772852	1
7	1915	976580.390962734877	2
7	1917	978289.697409713446	1
7	1925	980365.694124995233	0
7	1940	984606.876756723143	1
7	1942	988678.204668691953	0
7	1957	990692.233228336546	1
7	1959	994576.61179961044	0
7	1973	996382.022028208223	1
7	1976	999111.053251217144	0
7	1990	1000696.402526794732	1
7	1992	1003930.46743871216	0
7	2007	1011180.853265469608	1
7	2015	1012765.094541956773	2
7	2017	1014678.639023059241	1
7	2025	1016002.97124923391	0
7	2041	1032588.266580216106	1
7	2044	1036276.255419801556	0
7	2059	1045091.332106550481	1
7	2061	1048833.246446849088	0
7	2076	1057550.530351972945	1
7	2084	1060487.277662972166	2
7	2086	1061551.888318836899	1
7	2095	1063545.35477789038	0
7	2110	1072523.734376094248	1
7	2112	1076301.950983897794	0
7	2129	1078573.322899424156	1
7	2137	1079491.795660899647	2
7	2143	1080433.602953285716	3
7	2145	1082133.276586711606	2
7	2150	1082619.069395191758	1
7	2161	1084592.919079548504	0
7	2175	1087474.982977584139	1
7	2183	1088682.517210012998	2
7	2186	1091329.932302637645	1
7	2194	1092500.121934429073	0
7	2208	1097515.85097489491	1
7	2211	1101275.033084224295	0
7	2225	1105958.472412465374	1
7	2233	1109244.883891869923	0
7	2237	1110058.982145495115	1
7	2244	1113372.788420592105	0
7	2259	1121104.236665944911	1
7	2266	1124546.379942354829	0
7	2271	1125334.677014334335	1
7	2278	1128995.939065617058	0
7	2294	1143012.118526936049	1
7	2296	1146891.03287743446	0
7	2312	1166501.737414167814	1
7	2315	1170638.28110227338	0
7	2329	1176515.012591390183	1
7	2338	1179766.844212819569	2
7	2340	1180482.70928617407	1
7	2348	1183527.053458163006	0
7	2362	1186556.142771131415	1
7	2365	1190869.320182306055	0
7	2379	1192841.340630116653	1
7	2381	1196499.002212804967	0
7	2396	1200372.689384303785	1
7	2398	1203642.339165142193	0
7	2413	1210501.275000257372	1
7	2415	1213351.546728867467	0
7	2432	1234125.555171912612	1
7	2440	1235364.833744387336	2
7	2442	1237462.45443503244	1
7	2450	1239309.2766488085	0
