version 2
run ResponseMeasurement-119-20170110-19:44:06-22392
attr configname ResponseMeasurement
attr datetime 20170110-19:44:06
attr experiment ResponseMeasurement
attr inifile responseStudy.ini
attr iterationvars ""
attr iterationvars2 $repetition=119
attr measurement ""
attr network controltower.SimNetwork
attr processid 22392
attr repetition 119
attr replication #119
attr resultdir results
attr runnumber 119
attr seedset 119
param SimNetwork.a.parkingLot.parkingDelay "truncnormal(60min, 6min)"
param SimNetwork.a.runway.landingTime "truncnormal(15min, 1.5min)"
param SimNetwork.a.runway.takeoffTime "truncnormal(15min, 1.5min)"
param SimNetwork.a.runway.throughputCheckInterval 150min
param SimNetwork.wg.interArrivalTime exponential(150min)

vector 2  SimNetwork.a.landingQueue  queueLength:vector  ETV
attr source  queueLengthSignal
vector 1  SimNetwork.a.landingQueue  queueTime:vector  ETV
attr source  queueTimeSignal
vector 7  SimNetwork.a.parkingLot  parkingOccupancy:vector  ETV
attr source  parkingOccupancy
vector 5  SimNetwork.a.runway  landedThroughput:vector  ETV
attr source  landedThroughputSignal
vector 6  SimNetwork.a.runway  tookoffThroughput:vector  ETV
attr source  tookoffThroughputSignal
vector 4  SimNetwork.a.takeoffQueue  queueLength:vector  ETV
attr source  queueLengthSignal
vector 3  SimNetwork.a.takeoffQueue  queueTime:vector  ETV
attr source  queueTimeSignal
vector 0  SimNetwork.wg  responseTime:vector  ETV
attr source  responseTimeSignal
0	682	388159.109729800277	36692.072399274
0	701	416388.266955882892	33706.418865135
0	738	464454.491724041246	53615.278877807
0	746	465608.477099770784	6852.2157462541
0	757	467881.654665470479	7594.1933908605
0	774	473554.576223574019	10709.696067747
0	791	479106.223570941033	11611.856259897
0	812	484178.483823400335	10639.82132131
0	840	487845.456018552644	8797.0911399064
0	856	490103.849511556438	7754.187276838
0	861	490993.77176811799	6216.3949745575
0	872	493524.689904733692	7376.932182705
0	886	499254.367539427724	11786.870070497
0	911	505435.112120223937	12429.146216525
0	919	507645.170178573197	7433.9160130731
0	936	514229.475835665535	12021.9370934
0	955	544496.240701303895	35616.260621386
0	972	549480.067963792185	10016.572606292
0	990	568111.964904635413	23574.681568548
0	1006	574425.125246459748	11684.280066344
0	1031	580525.907315540937	11554.199242912
0	1039	582539.112353705507	6324.0718394155
0	1064	592318.647829937621	14950.147653568
0	1073	595532.828613131075	9117.5383546653
0	1092	601935.218206883892	11775.748879121
0	1106	607815.423874321351	11225.399751444
0	1139	616902.152712968742	15490.996591703
0	1147	618645.287296920218	7146.5576116437
0	1155	619937.606471130043	7209.9873269478
0	1176	632503.914782351885	17867.405911495
0	1189	637098.918898208037	9315.4287352793
0	1206	642710.179761132799	11094.724617784
0	1231	656060.507848722265	18745.170615227
0	1251	658922.351632145602	8029.3974070366
0	1264	661849.506834375562	7549.7971755207
0	1272	663721.17350282926	6930.5412360838
0	1298	681939.558213326017	23093.708951105
0	1307	684204.735114293498	7863.4620686271
0	1323	690544.969274538333	11686.756346283
0	1340	701395.392658043107	16548.141972581
0	1358	716540.672263484572	20037.625464297
0	1375	725267.205182421292	13578.995269031
0	1393	738167.721486874614	17455.241191662
0	1409	745893.616672856047	12963.539447276
0	1426	753129.261673010095	12088.288823653
0	1443	763683.935733102841	15913.250764832
0	1468	771041.902257995062	12780.054772549
0	1476	772597.496311740173	7113.0465651901
0	1493	782457.899870426832	15332.454070025
0	1514	800250.642109727529	23143.419202746
0	1531	805088.818738495152	10590.330083496
0	1545	810262.514491116269	10632.698050819
0	1562	822432.606045879099	17592.500579862
0	1579	829777.068442159492	12921.939244909
0	1604	842367.906006051559	18179.964558571
0	1613	846169.7461590139	9573.4456138122
0	1637	853125.32523092927	12597.594434343
0	1646	855936.49138184067	9003.2106445074
0	1663	870002.183881491362	18716.515834341
0	1688	880762.72906246817	15826.296744055
0	1697	883985.13264723094	9565.3099819951
0	1714	891915.329963375189	13758.662495662
0	1738	897379.46798358451	10753.963321978
0	1746	898878.259516258755	6795.8569866142
0	1764	910800.636788708697	17581.350887044
0	1792	923541.346669185737	5994.7797065025
0	1797	924552.631630294919	19210.635434021
0	1815	936239.970835456658	17964.2050573
0	1833	955847.447600718284	24865.766709907
0	1861	964601.167826105257	13582.250114834
0	1869	965517.509772202562	7548.5801965602
0	1882	970674.815488571321	12685.806564682
0	1923	980104.076684452697	14845.667717969
0	1938	982702.59786972918	5935.0648379442
0	1959	985571.834693771517	12364.995619706
0	1964	986427.92437313758	9064.7672358027
0	1972	988247.797247798859	10881.697679996
0	1980	989330.176854086157	6929.6990624857
0	1998	1007469.1755615785	24111.982447694
0	2024	1024951.354108779299	23165.920930526
0	2032	1025888.89797086329	6556.9695015768
0	2049	1031410.680407111364	11459.460873328
0	2069	1062055.378132269896	35892.06302068
0	2085	1070762.154410225972	14037.973572274
0	2103	1082463.128627126846	17570.200678168
0	2129	1099167.537146293628	21869.274022711
0	2145	1103318.458789269294	9711.0332384066
0	2156	1105802.722043384426	8234.6424993397
0	2178	1110854.787712429157	10454.867302527
0	2186	1114081.853107769903	8753.7785825688
0	2213	1141046.331581842231	32768.670947671
0	2222	1144318.549996458602	8263.6713245681
0	2239	1152118.980029303065	13187.267994981
0	2264	1165555.731621230014	18752.828624096
0	2275	1167188.053982073728	6363.0347252603
0	2297	1173066.1701647947	12196.24212329
0	2305	1174512.543483629181	7978.7798786031
0	2331	1192911.617191161632	24061.45301002
0	2348	1197008.754113718442	10250.236129939
0	2356	1200372.971267682059	9352.7935502613
0	2385	1221565.162402966885	26800.512258835
0	2399	1224644.976725161019	8862.4031180132
0	2407	1226344.77937328838	6800.717740294
0	2432	1233689.255218706915	12780.48373254
0	2440	1236992.77133200283	9204.0998647009
1	670	382681.84809074767	0
1	689	410839.21284623385	0
1	710	458756.26135351673	0
1	719	460287.461274610011	0
1	727	462844.880155827196	0
1	759	467881.654665470479	387.28735442655
1	776	473554.576223574019	15.913721483589
1	793	479106.223570941033	57.858692294785
1	801	482349.662234718444	0
1	817	484777.37679356048	0
1	826	486147.75772202868	0
1	842	487845.456018552644	377.95854962192
1	874	493524.689904733692	518.72400103507
1	891	500211.254165500078	0
1	899	502207.538742265717	0
1	924	508879.980079917437	0
1	943	539463.495357499885	0
1	960	544537.283336087317	0
1	978	562740.845180115613	0
1	995	568971.708072629241	0
1	1012	576215.040514289977	0
1	1020	577368.50017636938	0
1	1045	586415.290258465754	0
1	1053	590159.469327763163	0
1	1078	596590.024122877351	0
1	1094	601935.218206883892	524.06208561865
1	1111	611498.729685276559	0
1	1120	612727.61914418221	0
1	1128	614636.508870857234	0
1	1161	627783.49016292871	0
1	1178	632503.914782351885	888.45963900263
1	1194	637315.337233495021	0
1	1212	650892.954225109049	0
1	1220	654299.709658854817	0
1	1236	656790.632266745486	0
1	1253	658922.351632145602	76.502369924641
1	1279	676341.273045666387	0
1	1287	678858.212928255623	0
1	1312	684847.250685462371	0
1	1329	696503.046799187493	0
1	1347	711688.209913390775	0
1	1364	720712.480295212421	0
1	1381	732930.077225579703	0
1	1398	741040.972849356689	0
1	1415	747770.684968271245	0
1	1432	758261.847485446357	0
1	1449	765484.449746550029	0
1	1457	767125.445800401503	0
1	1482	777107.222906981887	0
1	1500	794498.488654998801	0
1	1516	800250.642109727529	620.82566943016
1	1533	805088.818738495152	248.71327247837
1	1550	816855.129197250395	0
1	1567	824187.941447480573	0
1	1584	836596.300545201749	0
1	1593	840527.73079658629	0
1	1618	846933.280737333312	0
1	1626	851285.668047150032	0
1	1652	864936.432318413408	0
1	1669	874419.822665235876	0
1	1677	878156.667467713392	0
1	1702	886625.504661606042	0
1	1719	892082.402529644592	0
1	1727	893219.28590166472	0
1	1752	905341.996196274252	0
1	1769	917546.566962683242	0
1	1778	918482.143286512849	206.377508356
1	1803	930981.680890811585	0
1	1821	951018.917711271673	0
1	1838	957968.929575642349	0
1	1846	958732.803272167443	743.79434827825
1	1871	965517.509772202562	259.10080571897
1	1888	973206.839074065731	0
1	1896	976767.533031784974	0
1	1910	977703.503594361915	340.34645702707
1	1915	978566.296988897457	1200.1974210949
1	1940	982702.59786972918	302.12007812872
1	1951	983797.143847275023	439.95073339094
1	1987	1001785.433178252871	0
1	2005	1019331.928469286457	0
1	2013	1020401.706115205135	450.48658142175
1	2038	1026163.315111590086	0
1	2057	1056724.180837951646	0
1	2074	1064892.927948959062	0
1	2091	1077298.263123582532	0
1	2109	1093607.42555086266	0
1	2117	1097568.079544044763	0
1	2134	1100399.920409901789	0
1	2158	1105802.722043384426	474.64751818335
1	2167	1108277.660634171092	0
1	2194	1136054.878671890476	0
1	2202	1138931.712034321958	0
1	2227	1146802.902997134158	0
1	2244	1160825.019256813394	0
1	2253	1161753.230218383936	883.30217687964
1	2277	1167188.053982073728	654.29037704767
1	2285	1168850.164181141136	0
1	2311	1186758.517983779006	0
1	2320	1191020.177717420767	0
1	2336	1194764.650144132218	0
1	2363	1215782.573607147806	0
1	2371	1219544.061632994371	0
1	2387	1221565.162402966885	656.39091680037
1	2412	1227788.671467301889	0
1	2420	1231461.373914437241	0
1	2445	1240195.374716395003	0
1	2453	1241525.575378371311	0
2	668	382681.84809074767	1
2	670	382681.84809074767	0
2	687	410839.21284623385	1
2	689	410839.21284623385	0
2	708	458756.26135351673	1
2	710	458756.26135351673	0
2	717	460287.461274610011	1
2	719	460287.461274610011	0
2	725	462844.880155827196	1
2	727	462844.880155827196	0
2	754	467494.367311043928	1
2	759	467881.654665470479	0
2	771	473538.66250209043	1
2	776	473554.576223574019	0
2	788	479048.364878646248	1
2	793	479106.223570941033	0
2	799	482349.662234718444	1
2	801	482349.662234718444	0
2	815	484777.37679356048	1
2	817	484777.37679356048	0
2	824	486147.75772202868	1
2	826	486147.75772202868	0
2	837	487467.49746893072	1
2	842	487845.456018552644	0
2	869	493005.96590369862	1
2	874	493524.689904733692	0
2	889	500211.254165500078	1
2	891	500211.254165500078	0
2	897	502207.538742265717	1
2	899	502207.538742265717	0
2	922	508879.980079917437	1
2	924	508879.980079917437	0
2	941	539463.495357499885	1
2	943	539463.495357499885	0
2	958	544537.283336087317	1
2	960	544537.283336087317	0
2	976	562740.845180115613	1
2	978	562740.845180115613	0
2	993	568971.708072629241	1
2	995	568971.708072629241	0
2	1010	576215.040514289977	1
2	1012	576215.040514289977	0
2	1018	577368.50017636938	1
2	1020	577368.50017636938	0
2	1043	586415.290258465754	1
2	1045	586415.290258465754	0
2	1051	590159.469327763163	1
2	1053	590159.469327763163	0
2	1076	596590.024122877351	1
2	1078	596590.024122877351	0
2	1089	601411.156121265245	1
2	1094	601935.218206883892	0
2	1109	611498.729685276559	1
2	1111	611498.729685276559	0
2	1118	612727.61914418221	1
2	1120	612727.61914418221	0
2	1126	614636.508870857234	1
2	1128	614636.508870857234	0
2	1159	627783.49016292871	1
2	1161	627783.49016292871	0
2	1173	631615.455143349253	1
2	1178	632503.914782351885	0
2	1192	637315.337233495021	1
2	1194	637315.337233495021	0
2	1210	650892.954225109049	1
2	1212	650892.954225109049	0
2	1218	654299.709658854817	1
2	1220	654299.709658854817	0
2	1234	656790.632266745486	1
2	1236	656790.632266745486	0
2	1248	658845.849262220961	1
2	1253	658922.351632145602	0
2	1277	676341.273045666387	1
2	1279	676341.273045666387	0
2	1285	678858.212928255623	1
2	1287	678858.212928255623	0
2	1310	684847.250685462371	1
2	1312	684847.250685462371	0
2	1327	696503.046799187493	1
2	1329	696503.046799187493	0
2	1345	711688.209913390775	1
2	1347	711688.209913390775	0
2	1362	720712.480295212421	1
2	1364	720712.480295212421	0
2	1379	732930.077225579703	1
2	1381	732930.077225579703	0
2	1396	741040.972849356689	1
2	1398	741040.972849356689	0
2	1413	747770.684968271245	1
2	1415	747770.684968271245	0
2	1430	758261.847485446357	1
2	1432	758261.847485446357	0
2	1447	765484.449746550029	1
2	1449	765484.449746550029	0
2	1455	767125.445800401503	1
2	1457	767125.445800401503	0
2	1480	777107.222906981887	1
2	1482	777107.222906981887	0
2	1498	794498.488654998801	1
2	1500	794498.488654998801	0
2	1511	799629.816440297373	1
2	1516	800250.642109727529	0
2	1528	804840.105466016779	1
2	1533	805088.818738495152	0
2	1548	816855.129197250395	1
2	1550	816855.129197250395	0
2	1565	824187.941447480573	1
2	1567	824187.941447480573	0
2	1582	836596.300545201749	1
2	1584	836596.300545201749	0
2	1591	840527.73079658629	1
2	1593	840527.73079658629	0
2	1616	846933.280737333312	1
2	1618	846933.280737333312	0
2	1624	851285.668047150032	1
2	1626	851285.668047150032	0
2	1650	864936.432318413408	1
2	1652	864936.432318413408	0
2	1667	874419.822665235876	1
2	1669	874419.822665235876	0
2	1675	878156.667467713392	1
2	1677	878156.667467713392	0
2	1700	886625.504661606042	1
2	1702	886625.504661606042	0
2	1717	892082.402529644592	1
2	1719	892082.402529644592	0
2	1725	893219.28590166472	1
2	1727	893219.28590166472	0
2	1750	905341.996196274252	1
2	1752	905341.996196274252	0
2	1767	917546.566962683242	1
2	1769	917546.566962683242	0
2	1773	918275.765778156849	1
2	1778	918482.143286512849	0
2	1801	930981.680890811585	1
2	1803	930981.680890811585	0
2	1819	951018.917711271673	1
2	1821	951018.917711271673	0
2	1836	957968.929575642349	1
2	1838	957968.929575642349	0
2	1841	957989.008923889193	1
2	1846	958732.803272167443	0
2	1866	965258.408966483591	1
2	1871	965517.509772202562	0
2	1886	973206.839074065731	1
2	1888	973206.839074065731	0
2	1894	976767.533031784974	1
2	1896	976767.533031784974	0
2	1899	977363.157137334844	1
2	1902	977366.099567802559	2
2	1910	977703.503594361915	1
2	1915	978566.296988897457	0
2	1935	982400.477791600461	1
2	1940	982702.59786972918	0
2	1946	983357.193113884079	1
2	1951	983797.143847275023	0
2	1985	1001785.433178252871	1
2	1987	1001785.433178252871	0
2	2003	1019331.928469286457	1
2	2005	1019331.928469286457	0
2	2008	1019951.219533783384	1
2	2013	1020401.706115205135	0
2	2036	1026163.315111590086	1
2	2038	1026163.315111590086	0
2	2055	1056724.180837951646	1
2	2057	1056724.180837951646	0
2	2072	1064892.927948959062	1
2	2074	1064892.927948959062	0
2	2089	1077298.263123582532	1
2	2091	1077298.263123582532	0
2	2107	1093607.42555086266	1
2	2109	1093607.42555086266	0
2	2115	1097568.079544044763	1
2	2117	1097568.079544044763	0
2	2132	1100399.920409901789	1
2	2134	1100399.920409901789	0
2	2153	1105328.074525201073	1
2	2158	1105802.722043384426	0
2	2165	1108277.660634171092	1
2	2167	1108277.660634171092	0
2	2192	1136054.878671890476	1
2	2194	1136054.878671890476	0
2	2200	1138931.712034321958	1
2	2202	1138931.712034321958	0
2	2225	1146802.902997134158	1
2	2227	1146802.902997134158	0
2	2242	1160825.019256813394	1
2	2244	1160825.019256813394	0
2	2247	1160869.928041504297	1
2	2253	1161753.230218383936	0
2	2272	1166533.763605026057	1
2	2277	1167188.053982073728	0
2	2283	1168850.164181141136	1
2	2285	1168850.164181141136	0
2	2309	1186758.517983779006	1
2	2311	1186758.517983779006	0
2	2318	1191020.177717420767	1
2	2320	1191020.177717420767	0
2	2334	1194764.650144132218	1
2	2336	1194764.650144132218	0
2	2361	1215782.573607147806	1
2	2363	1215782.573607147806	0
2	2369	1219544.061632994371	1
2	2371	1219544.061632994371	0
2	2382	1220908.771486166511	1
2	2387	1221565.162402966885	0
2	2410	1227788.671467301889	1
2	2412	1227788.671467301889	0
2	2418	1231461.373914437241	1
2	2420	1231461.373914437241	0
2	2443	1240195.374716395003	1
2	2445	1240195.374716395003	0
2	2451	1241525.575378371311	1
2	2453	1241525.575378371311	0
3	679	387341.250049374937	0
3	698	415449.260880598986	0
3	735	463620.675888337757	292.33053252357
3	743	464782.038057366337	0
3	751	466896.245130092267	0
3	768	472761.879447936368	0
3	785	478187.656089942992	0
3	809	483359.180260574373	0
3	834	486953.689281650164	674.85105515561
3	850	489176.917894755646	0
3	858	490103.849511556438	412.10537904126
3	866	492508.083506280892	0
3	883	498317.730137647444	0
3	908	504494.07928166814	0
3	916	506815.66303185772	0
3	933	513402.372437448909	0
3	952	543719.59365984028	0
3	968	548539.533478150893	0
3	987	567153.403145535183	0
3	1003	573391.816549296432	0
3	1028	579848.334736693632	0
3	1036	581607.943233002928	0
3	1061	591414.985235630617	0
3	1070	594738.174596045708	0
3	1086	601018.466155039835	0
3	1103	606785.147798037818	0
3	1136	615997.282577012504	0
3	1144	617599.792668292283	0
3	1152	619019.125287612301	0
3	1170	631570.379064566156	0
3	1186	636247.295067090006	0
3	1203	641800.837717493467	0
3	1228	655186.035356854761	164.60157884185
3	1245	658090.174569905563	0
3	1261	661045.6399954481	0
3	1269	662904.601087149645	0
3	1295	680866.775101998911	0
3	1303	683330.430743732713	0
3	1320	689524.130153418302	0
3	1337	700641.09740438938	0
3	1355	715703.20663859839	0
3	1372	724338.557327128585	0
3	1389	737441.266590463424	0
3	1406	745167.873228226509	0
3	1423	752231.423486432434	0
3	1440	762653.28841355498	0
3	1465	770105.582145359366	0
3	1473	771522.807681195444	0
3	1490	781578.970327516244	0
3	1508	799289.770589434904	0
3	1525	804191.445140315819	0
3	1541	809228.731484980031	0
3	1559	821432.590486734591	0
3	1576	828868.528331008786	0
3	1601	841471.421892005361	0
3	1609	845097.377268871632	0
3	1634	852171.354744425316	699.98474703926
3	1643	855269.873873789754	0
3	1660	869069.108199176992	0
3	1685	879741.718196781208	0
3	1694	882937.609494468464	0
3	1711	891116.618967659954	0
3	1735	896568.308976532465	0
3	1743	898023.429831393021	0
3	1761	909889.235525868136	0
3	1786	922667.110424121307	0
3	1794	923541.346669185737	729.62493849109
3	1811	935579.742673424757	0
3	1830	955096.388001553081	0
3	1855	963641.051673094249	0
3	1863	964601.167826105257	749.86569463237
3	1879	969866.084501988861	0
3	1920	979416.600119682767	1925.6310535971
3	1929	981773.414330347928	0
3	1956	984642.384717157646	2761.2965764393
3	1961	985571.834693771517	2488.4206188913
3	1969	987359.04527945189	0
3	1977	988516.070796946754	0
3	1995	1006635.60509074626	0
3	2021	1024053.644245225542	0
3	2029	1025019.953904975064	0
3	2046	1030532.647602117683	0
3	2065	1061040.150701484483	0
3	2082	1069937.361822786986	0
3	2100	1081508.614486460362	0
3	2126	1098415.044783949364	579.25454881409
3	2142	1102332.996598041114	0
3	2150	1104954.901217718522	0
3	2175	1109809.37836022122	0
3	2183	1113244.503822991828	0
3	2210	1140171.113944019941	0
3	2219	1143356.284343377043	0
3	2235	1151278.256312079041	0
3	2261	1164783.088793246612	0
3	2269	1166396.844042954371	0
3	2294	1172115.469869786439	0
3	2302	1173775.073567050652	0
3	2328	1192096.217191786286	1008.6710074009
3	2344	1196018.199363986401	0
3	2353	1199613.433361283847	0
3	2379	1220568.873845647221	904.33130737923
3	2395	1223734.20864774871	0
3	2404	1225566.286841641268	0
3	2428	1232842.927358334547	0
3	2437	1236280.997604556142	0
3	2462	1243897.235716338684	0
4	677	387341.250049374937	1
4	679	387341.250049374937	0
4	696	415449.260880598986	1
4	698	415449.260880598986	0
4	730	463328.345355814184	1
4	735	463620.675888337757	0
4	741	464782.038057366337	1
4	743	464782.038057366337	0
4	749	466896.245130092267	1
4	751	466896.245130092267	0
4	766	472761.879447936368	1
4	768	472761.879447936368	0
4	783	478187.656089942992	1
4	785	478187.656089942992	0
4	807	483359.180260574373	1
4	809	483359.180260574373	0
4	829	486278.838226494551	1
4	834	486953.689281650164	0
4	848	489176.917894755646	1
4	850	489176.917894755646	0
4	853	489691.744132515182	1
4	858	490103.849511556438	0
4	864	492508.083506280892	1
4	866	492508.083506280892	0
4	881	498317.730137647444	1
4	883	498317.730137647444	0
4	906	504494.07928166814	1
4	908	504494.07928166814	0
4	914	506815.66303185772	1
4	916	506815.66303185772	0
4	931	513402.372437448909	1
4	933	513402.372437448909	0
4	950	543719.59365984028	1
4	952	543719.59365984028	0
4	966	548539.533478150893	1
4	968	548539.533478150893	0
4	985	567153.403145535183	1
4	987	567153.403145535183	0
4	1001	573391.816549296432	1
4	1003	573391.816549296432	0
4	1026	579848.334736693632	1
4	1028	579848.334736693632	0
4	1034	581607.943233002928	1
4	1036	581607.943233002928	0
4	1059	591414.985235630617	1
4	1061	591414.985235630617	0
4	1068	594738.174596045708	1
4	1070	594738.174596045708	0
4	1084	601018.466155039835	1
4	1086	601018.466155039835	0
4	1101	606785.147798037818	1
4	1103	606785.147798037818	0
4	1134	615997.282577012504	1
4	1136	615997.282577012504	0
4	1142	617599.792668292283	1
4	1144	617599.792668292283	0
4	1150	619019.125287612301	1
4	1152	619019.125287612301	0
4	1168	631570.379064566156	1
4	1170	631570.379064566156	0
4	1184	636247.295067090006	1
4	1186	636247.295067090006	0
4	1201	641800.837717493467	1
4	1203	641800.837717493467	0
4	1223	655021.433778012915	1
4	1228	655186.035356854761	0
4	1243	658090.174569905563	1
4	1245	658090.174569905563	0
4	1259	661045.6399954481	1
4	1261	661045.6399954481	0
4	1267	662904.601087149645	1
4	1269	662904.601087149645	0
4	1293	680866.775101998911	1
4	1295	680866.775101998911	0
4	1301	683330.430743732713	1
4	1303	683330.430743732713	0
4	1318	689524.130153418302	1
4	1320	689524.130153418302	0
4	1335	700641.09740438938	1
4	1337	700641.09740438938	0
4	1353	715703.20663859839	1
4	1355	715703.20663859839	0
4	1370	724338.557327128585	1
4	1372	724338.557327128585	0
4	1387	737441.266590463424	1
4	1389	737441.266590463424	0
4	1404	745167.873228226509	1
4	1406	745167.873228226509	0
4	1421	752231.423486432434	1
4	1423	752231.423486432434	0
4	1438	762653.28841355498	1
4	1440	762653.28841355498	0
4	1463	770105.582145359366	1
4	1465	770105.582145359366	0
4	1471	771522.807681195444	1
4	1473	771522.807681195444	0
4	1488	781578.970327516244	1
4	1490	781578.970327516244	0
4	1506	799289.770589434904	1
4	1508	799289.770589434904	0
4	1523	804191.445140315819	1
4	1525	804191.445140315819	0
4	1539	809228.731484980031	1
4	1541	809228.731484980031	0
4	1557	821432.590486734591	1
4	1559	821432.590486734591	0
4	1574	828868.528331008786	1
4	1576	828868.528331008786	0
4	1599	841471.421892005361	1
4	1601	841471.421892005361	0
4	1607	845097.377268871632	1
4	1609	845097.377268871632	0
4	1629	851471.369997386056	1
4	1634	852171.354744425316	0
4	1641	855269.873873789754	1
4	1643	855269.873873789754	0
4	1658	869069.108199176992	1
4	1660	869069.108199176992	0
4	1683	879741.718196781208	1
4	1685	879741.718196781208	0
4	1692	882937.609494468464	1
4	1694	882937.609494468464	0
4	1709	891116.618967659954	1
4	1711	891116.618967659954	0
4	1733	896568.308976532465	1
4	1735	896568.308976532465	0
4	1741	898023.429831393021	1
4	1743	898023.429831393021	0
4	1759	909889.235525868136	1
4	1761	909889.235525868136	0
4	1784	922667.110424121307	1
4	1786	922667.110424121307	0
4	1789	922811.721730694651	1
4	1794	923541.346669185737	0
4	1809	935579.742673424757	1
4	1811	935579.742673424757	0
4	1828	955096.388001553081	1
4	1830	955096.388001553081	0
4	1853	963641.051673094249	1
4	1855	963641.051673094249	0
4	1858	963851.302131472889	1
4	1863	964601.167826105257	0
4	1877	969866.084501988861	1
4	1879	969866.084501988861	0
4	1905	977490.969066085622	1
4	1920	979416.600119682767	0
4	1927	981773.414330347928	1
4	1929	981773.414330347928	0
4	1932	981881.088140718359	1
4	1943	983083.414074880216	2
4	1956	984642.384717157646	1
4	1961	985571.834693771517	0
4	1967	987359.04527945189	1
4	1969	987359.04527945189	0
4	1975	988516.070796946754	1
4	1977	988516.070796946754	0
4	1993	1006635.60509074626	1
4	1995	1006635.60509074626	0
4	2019	1024053.644245225542	1
4	2021	1024053.644245225542	0
4	2027	1025019.953904975064	1
4	2029	1025019.953904975064	0
4	2044	1030532.647602117683	1
4	2046	1030532.647602117683	0
4	2063	1061040.150701484483	1
4	2065	1061040.150701484483	0
4	2080	1069937.361822786986	1
4	2082	1069937.361822786986	0
4	2098	1081508.614486460362	1
4	2100	1081508.614486460362	0
4	2120	1097835.790235135276	1
4	2126	1098415.044783949364	0
4	2140	1102332.996598041114	1
4	2142	1102332.996598041114	0
4	2148	1104954.901217718522	1
4	2150	1104954.901217718522	0
4	2173	1109809.37836022122	1
4	2175	1109809.37836022122	0
4	2181	1113244.503822991828	1
4	2183	1113244.503822991828	0
4	2208	1140171.113944019941	1
4	2210	1140171.113944019941	0
4	2217	1143356.284343377043	1
4	2219	1143356.284343377043	0
4	2233	1151278.256312079041	1
4	2235	1151278.256312079041	0
4	2259	1164783.088793246612	1
4	2261	1164783.088793246612	0
4	2267	1166396.844042954371	1
4	2269	1166396.844042954371	0
4	2292	1172115.469869786439	1
4	2294	1172115.469869786439	0
4	2300	1173775.073567050652	1
4	2302	1173775.073567050652	0
4	2323	1191087.546184385386	1
4	2328	1192096.217191786286	0
4	2342	1196018.199363986401	1
4	2344	1196018.199363986401	0
4	2351	1199613.433361283847	1
4	2353	1199613.433361283847	0
4	2374	1219664.542538267995	1
4	2379	1220568.873845647221	0
4	2393	1223734.20864774871	1
4	2395	1223734.20864774871	0
4	2402	1225566.286841641268	1
4	2404	1225566.286841641268	0
4	2426	1232842.927358334547	1
4	2428	1232842.927358334547	0
4	2435	1236280.997604556142	1
4	2437	1236280.997604556142	0
4	2460	1243897.235716338684	1
4	2462	1243897.235716338684	0
5	675	387000	1
5	684	396000	0
5	685	405000	0
5	694	414000	1
5	703	423000	0
5	704	432000	0
5	705	441000	0
5	706	450000	0
5	712	459000	0
5	761	468000	3
5	781	477000	2
5	822	486000	3
5	879	495000	3
5	904	504000	2
5	929	513000	1
5	938	522000	0
5	939	531000	0
5	945	540000	0
5	970	549000	2
5	974	558000	0
5	983	567000	1
5	1008	576000	1
5	1041	585000	2
5	1066	594000	2
5	1099	603000	2
5	1113	612000	0
5	1157	621000	3
5	1166	630000	1
5	1199	639000	2
5	1208	648000	0
5	1238	657000	2
5	1274	666000	2
5	1275	675000	0
5	1305	684000	2
5	1325	693000	1
5	1342	702000	1
5	1343	711000	0
5	1360	720000	1
5	1377	729000	1
5	1391	738000	1
5	1411	747000	1
5	1428	756000	1
5	1445	765000	1
5	1478	774000	2
5	1495	783000	1
5	1496	792000	0
5	1521	801000	2
5	1543	810000	1
5	1555	819000	1
5	1572	828000	1
5	1586	837000	0
5	1611	846000	2
5	1639	855000	2
5	1648	864000	0
5	1665	873000	1
5	1690	882000	2
5	1707	891000	1
5	1748	900000	2
5	1757	909000	1
5	1771	918000	0
5	1799	927000	2
5	1813	936000	1
5	1817	945000	0
5	1826	954000	1
5	1851	963000	2
5	1884	972000	1
5	1925	981000	4
5	1982	990000	2
5	1983	999000	0
5	2000	1008000	1
5	2001	1017000	0
5	2034	1026000	2
5	2051	1035000	1
5	2052	1044000	0
5	2053	1053000	0
5	2067	1062000	1
5	2087	1071000	1
5	2096	1080000	1
5	2105	1089000	0
5	2122	1098000	1
5	2163	1107000	3
5	2188	1116000	1
5	2189	1125000	0
5	2190	1134000	0
5	2215	1143000	2
5	2237	1152000	1
5	2249	1161000	0
5	2290	1170000	4
5	2307	1179000	0
5	2316	1188000	1
5	2346	1197000	2
5	2358	1206000	0
5	2359	1215000	0
5	2397	1224000	3
5	2430	1233000	2
5	2455	1242000	1
6	675	387000	0
6	684	396000	1
6	685	405000	0
6	694	414000	0
6	703	423000	1
6	704	432000	0
6	705	441000	0
6	706	450000	0
6	712	459000	0
6	761	468000	3
6	781	477000	1
6	822	486000	2
6	879	495000	4
6	904	504000	1
6	929	513000	2
6	938	522000	1
6	939	531000	0
6	945	540000	0
6	970	549000	1
6	974	558000	1
6	983	567000	0
6	1008	576000	2
6	1041	585000	2
6	1066	594000	1
6	1099	603000	2
6	1113	612000	1
6	1157	621000	3
6	1166	630000	0
6	1199	639000	2
6	1208	648000	1
6	1238	657000	1
6	1274	666000	3
6	1275	675000	0
6	1305	684000	1
6	1325	693000	2
6	1342	702000	1
6	1343	711000	0
6	1360	720000	1
6	1377	729000	1
6	1391	738000	0
6	1411	747000	2
6	1428	756000	1
6	1445	765000	1
6	1478	774000	2
6	1495	783000	1
6	1496	792000	0
6	1521	801000	1
6	1543	810000	1
6	1555	819000	1
6	1572	828000	1
6	1586	837000	1
6	1611	846000	1
6	1639	855000	2
6	1648	864000	1
6	1665	873000	1
6	1690	882000	1
6	1707	891000	1
6	1748	900000	3
6	1757	909000	0
6	1771	918000	1
6	1799	927000	2
6	1813	936000	0
6	1817	945000	1
6	1826	954000	0
6	1851	963000	1
6	1884	972000	3
6	1925	981000	1
6	1982	990000	5
6	1983	999000	0
6	2000	1008000	1
6	2001	1017000	0
6	2034	1026000	2
6	2051	1035000	1
6	2052	1044000	0
6	2053	1053000	0
6	2067	1062000	0
6	2087	1071000	2
6	2096	1080000	0
6	2105	1089000	1
6	2122	1098000	0
6	2163	1107000	3
6	2188	1116000	2
6	2189	1125000	0
6	2190	1134000	0
6	2215	1143000	1
6	2237	1152000	1
6	2249	1161000	1
6	2290	1170000	2
6	2307	1179000	2
6	2316	1188000	0
6	2346	1197000	1
6	2358	1206000	2
6	2359	1215000	0
6	2397	1224000	1
6	2430	1233000	2
6	2455	1242000	2
7	673	383594.279698659185	1
7	676	387341.250049374937	0
7	692	411736.988721772304	1
7	695	415449.260880598986	0
7	714	459592.554516920008	1
7	722	461158.653268807166	2
7	729	463328.345355814184	1
7	733	463620.675888337757	2
7	740	464782.038057366337	1
7	748	466896.245130092267	0
7	763	468710.693920965979	1
7	765	472761.879447936368	0
7	779	474612.09084086193	1
7	782	478187.656089942992	0
7	796	480005.975649618021	1
7	804	483096.648412451892	2
7	806	483359.180260574373	1
7	820	485736.211498168758	2
7	828	486278.838226494551	1
7	832	486953.689281650164	2
7	845	488627.098425656808	3
7	847	489176.917894755646	2
7	852	489691.744132515182	1
7	863	492508.083506280892	0
7	877	494418.879076023218	1
7	880	498317.730137647444	0
7	894	501040.738309492023	1
7	902	503069.360432260679	2
7	905	504494.07928166814	1
7	913	506815.66303185772	0
7	927	509783.629035303269	1
7	930	513402.372437448909	0
7	947	540288.982578059197	1
7	949	543719.59365984028	0
7	963	545419.069929234699	1
7	965	548539.533478150893	0
7	981	563690.23451993865	1
7	984	567153.403145535183	0
7	998	569840.013416378744	1
7	1000	573391.816549296432	0
7	1015	577110.512739915249	1
7	1023	578172.647208308814	2
7	1025	579848.334736693632	1
7	1033	581607.943233002928	0
7	1048	587400.437705863721	1
7	1056	590924.479508521991	2
7	1058	591414.985235630617	1
7	1067	594738.174596045708	0
7	1081	597579.290126838572	1
7	1083	601018.466155039835	0
7	1097	602782.635013503955	1
7	1100	606785.147798037818	0
7	1115	612356.228728673324	1
7	1123	613509.935188446572	2
7	1131	615597.816774297447	3
7	1133	615997.282577012504	2
7	1141	617599.792668292283	1
7	1149	619019.125287612301	0
7	1164	628578.644539558055	1
7	1167	631570.379064566156	0
7	1181	633333.323940877654	1
7	1183	636247.295067090006	0
7	1197	638073.054761367098	1
7	1200	641800.837717493467	0
7	1215	651691.446367206397	1
7	1222	655021.433778012915	0
7	1226	655186.035356854761	1
7	1240	657750.814781363879	2
7	1242	658090.174569905563	1
7	1256	659661.967328319685	2
7	1258	661045.6399954481	1
7	1266	662904.601087149645	0
7	1282	677253.051593449181	1
7	1290	679828.192736337981	2
7	1292	680866.775101998911	1
7	1300	683330.430743732713	0
7	1315	685603.569649602792	1
7	1317	689524.130153418302	0
7	1332	697239.291150817912	1
7	1334	700641.09740438938	0
7	1350	712636.407878855788	1
7	1352	715703.20663859839	0
7	1367	721582.818993991433	1
7	1369	724338.557327128585	0
7	1384	733804.539154002142	1
7	1386	737441.266590463424	0
7	1401	741982.332334972986	1
7	1403	745167.873228226509	0
7	1418	748672.241649377975	1
7	1420	752231.423486432434	0
7	1435	759068.426236206634	1
7	1437	762653.28841355498	0
7	1452	766345.526291100356	1
7	1460	768013.539755368621	2
7	1462	770105.582145359366	1
7	1470	771522.807681195444	0
7	1485	777985.37548375097	1
7	1487	781578.970327516244	0
7	1503	795245.105778374901	1
7	1505	799289.770589434904	0
7	1519	800980.088775980597	1
7	1522	804191.445140315819	0
7	1536	805951.248853025145	1
7	1538	809228.731484980031	0
7	1553	817662.902810391121	1
7	1556	821432.590486734591	0
7	1570	825035.983822503242	1
7	1573	828868.528331008786	0
7	1588	837417.519725788198	1
7	1596	841410.788932851664	2
7	1598	841471.421892005361	1
7	1606	845097.377268871632	0
7	1621	847844.722937438482	1
7	1628	851471.369997386056	0
7	1632	852171.354744425316	1
7	1640	855269.873873789754	0
7	1655	865953.306427502304	1
7	1657	869069.108199176992	0
7	1672	875440.78182973046	1
7	1680	879052.736042752072	2
7	1682	879741.718196781208	1
7	1691	882937.609494468464	0
7	1705	887559.790376908231	1
7	1708	891116.618967659954	0
7	1722	892739.127276568428	1
7	1730	894173.061204103556	2
7	1732	896568.308976532465	1
7	1740	898023.429831393021	0
7	1755	906347.002090238016	1
7	1758	909889.235525868136	0
7	1776	918482.143286512849	1
7	1781	919280.456710984885	2
7	1783	922667.110424121307	1
7	1788	922811.721730694651	0
7	1806	931913.569779220232	1
7	1808	935579.742673424757	0
7	1824	951910.224735034235	1
7	1827	955096.388001553081	0
7	1844	958732.803272167443	1
7	1849	959621.297658343286	2
7	1852	963641.051673094249	1
7	1857	963851.302131472889	0
7	1874	966211.25655145262	1
7	1876	969866.084501988861	0
7	1891	974127.254883446468	1
7	1904	977490.969066085622	0
7	1908	977703.503594361915	1
7	1913	978566.296988897457	2
7	1918	979416.600119682767	3
7	1926	981773.414330347928	2
7	1931	981881.088140718359	1
7	1942	983083.414074880216	0
7	1949	983797.143847275023	1
7	1954	984642.384717157646	2
7	1966	987359.04527945189	1
7	1974	988516.070796946754	0
7	1990	1002814.357230211702	1
7	1992	1006635.60509074626	0
7	2011	1020401.706115205135	1
7	2016	1021299.260563377326	2
7	2018	1024053.644245225542	1
7	2026	1025019.953904975064	0
7	2041	1027010.536396077457	1
7	2043	1030532.647602117683	0
7	2060	1057710.164394543915	1
7	2062	1061040.150701484483	0
7	2077	1065865.224601034853	1
7	2079	1069937.361822786986	0
7	2094	1078254.677310016047	1
7	2097	1081508.614486460362	0
7	2112	1094365.132238762555	1
7	2119	1097835.790235135276	0
7	2124	1098415.044783949364	1
7	2137	1101261.244475244464	2
7	2139	1102332.996598041114	1
7	2147	1104954.901217718522	0
7	2161	1106618.556596989658	1
7	2170	1109082.464267878255	2
7	2172	1109809.37836022122	1
7	2180	1113244.503822991828	0
7	2197	1136891.779315205987	1
7	2205	1139891.241376241639	2
7	2207	1140171.113944019941	1
7	2216	1143356.284343377043	0
7	2230	1147602.813645331898	1
7	2232	1151278.256312079041	0
7	2251	1161753.230218383936	1
7	2256	1162765.154499427832	2
7	2258	1164783.088793246612	1
7	2266	1166396.844042954371	0
7	2280	1168174.792131907684	1
7	2288	1169618.984962656273	2
7	2291	1172115.469869786439	1
7	2299	1173775.073567050652	0
7	2314	1187565.90080398061	1
7	2322	1191087.546184385386	0
7	2326	1192096.217191786286	1
7	2339	1195865.609673816023	2
7	2341	1196018.199363986401	1
7	2350	1199613.433361283847	0
7	2366	1216692.773316878979	1
7	2373	1219664.542538267995	0
7	2377	1220568.873845647221	1
7	2390	1222352.859131975818	2
7	2392	1223734.20864774871	1
7	2401	1225566.286841641268	0
7	2415	1228678.577431021629	1
7	2423	1232425.953164567609	2
7	2425	1232842.927358334547	1
7	2434	1236280.997604556142	0
7	2448	1240952.864116192282	1
7	2457	1242409.164604824848	2
7	2459	1243897.235716338684	1
