version 2
run ResponseMeasurement-78-20170110-19:43:53-22350
attr configname ResponseMeasurement
attr datetime 20170110-19:43:53
attr experiment ResponseMeasurement
attr inifile responseStudy.ini
attr iterationvars ""
attr iterationvars2 $repetition=78
attr measurement ""
attr network controltower.SimNetwork
attr processid 22350
attr repetition 78
attr replication #78
attr resultdir results
attr runnumber 78
attr seedset 78
param SimNetwork.a.parkingLot.parkingDelay "truncnormal(60min, 6min)"
param SimNetwork.a.runway.landingTime "truncnormal(15min, 1.5min)"
param SimNetwork.a.runway.takeoffTime "truncnormal(15min, 1.5min)"
param SimNetwork.a.runway.throughputCheckInterval 150min
param SimNetwork.wg.interArrivalTime exponential(150min)

vector 2  SimNetwork.a.landingQueue  queueLength:vector  ETV
attr source  queueLengthSignal
vector 1  SimNetwork.a.landingQueue  queueTime:vector  ETV
attr source  queueTimeSignal
vector 7  SimNetwork.a.parkingLot  parkingOccupancy:vector  ETV
attr source  parkingOccupancy
vector 5  SimNetwork.a.runway  landedThroughput:vector  ETV
attr source  landedThroughputSignal
vector 6  SimNetwork.a.runway  tookoffThroughput:vector  ETV
attr source  tookoffThroughputSignal
vector 4  SimNetwork.a.takeoffQueue  queueLength:vector  ETV
attr source  queueLengthSignal
vector 3  SimNetwork.a.takeoffQueue  queueTime:vector  ETV
attr source  queueTimeSignal
vector 0  SimNetwork.wg  responseTime:vector  ETV
attr source  responseTimeSignal
0	717	387982.934702701089	20061.63045903
0	730	391845.644631110907	9851.3751332847
0	747	404651.546705152349	17435.42993043
0	767	433634.93063153777	34301.514596916
0	792	445757.760465968249	17645.575013614
0	800	449061.723531892498	8420.835261301
0	817	455170.273766806005	12222.827257572
0	843	474481.557879371327	24516.428636506
0	852	478081.473770283721	10226.613258072
0	868	483438.195128659938	10955.363357722
0	891	493740.924713917538	15442.770286788
0	921	500449.230698336956	12304.056132187
0	926	501450.77070395533	8232.0955500037
0	934	503329.687157449327	9830.4774018518
0	952	513184.73333489232	14498.848616422
0	971	546554.490963316753	38550.24794595
0	999	551880.267188583215	10633.153384731
0	1004	552871.853102835515	6239.0538340512
0	1021	559534.642863364336	12457.240982783
0	1038	575828.295167135161	21896.803430213
0	1056	586933.187650874348	16294.061900213
0	1078	614541.101302791642	33120.928060166
0	1091	620227.960322361116	11754.997144968
0	1117	638107.310004792225	23678.319865514
0	1142	642143.253468693971	9539.0607979962
0	1150	643633.890730826307	7298.3260892004
0	1158	644957.439380133704	6037.08801066
0	1176	659056.356820889506	20129.749902486
0	1198	716264.269871938535	62425.140821041
0	1218	727821.239160526546	16445.124215367
0	1232	733368.776942107516	10714.313011587
0	1258	751501.279094443532	24327.294353785
0	1266	752414.085706950143	6176.3641353761
0	1284	769708.732857416057	22530.550042157
0	1305	784068.412253818391	20250.94410688
0	1318	789719.248100992481	10242.689711265
0	1339	828097.496190286624	44688.668313136
0	1359	840692.16850803526	17944.041525152
0	1381	846468.082308973895	11346.656560133
0	1389	849276.752859867983	8881.2791567318
0	1406	859299.152915910391	15772.364501
0	1434	896650.206035991096	43001.638102786
0	1443	900253.819210816094	9925.3660796741
0	1468	910022.290791661082	15117.664888238
0	1484	913860.229555564549	9216.7910993757
0	1492	917502.489609307476	9340.1689198942
0	1509	925318.919593938999	13323.813741708
0	1528	950718.294527821049	31152.371200756
0	1569	957607.550136310172	12264.594821519
0	1580	959008.229704263324	6538.0936519733
0	1585	959856.144089883072	5765.0693352039
0	1593	961201.378012420119	6350.9020934381
0	1610	967505.000877226533	11791.248833153
0	1627	975785.939391602017	13841.836359689
0	1644	982137.802179726786	12216.207131399
0	1672	995800.245859677537	18708.655076498
0	1677	996695.576278503915	6519.9096893163
0	1694	1004947.508870132596	14049.825702914
0	1712	1017338.652047558521	17456.902294227
0	1728	1023225.767530761805	11085.903090107
0	1746	1038009.246621476607	20123.664843932
0	1771	1051444.698581666753	18683.250468585
0	1780	1054927.019788027858	9059.287596565
0	1797	1062755.932185004148	13007.356398849
0	1813	1068606.528495682312	11363.389917184
0	1839	1085529.677387075336	22371.824530009
0	1847	1087270.219454622263	6944.6523934558
0	1881	1099315.026048197143	18278.253918841
0	1892	1102453.112464431732	9092.754795715
0	1897	1103414.257615198934	6957.2573662714
0	1914	1113430.912786578422	15996.56199058
0	1932	1133661.52547168833	26074.228385411
0	1956	1172741.12506014632	44440.302364868
0	1969	1178058.60484624841	10181.224239656
0	1987	1196908.873216101142	25063.833618834
0	2007	1203019.00025470786	12393.959410376
0	2021	1208030.05135713624	9689.5841520851
0	2046	1216281.463330762159	13596.413989026
0	2054	1219406.116873058259	9602.2014467576
0	2073	1244044.261866782855	29829.032532771
1	702	381994.269497826159	0
1	719	387982.934702701089	766.81792797911
1	736	399333.416034621555	0
1	755	428112.185452354399	0
1	772	440640.888270591541	0
1	781	442947.446509233766	0
1	805	449965.129242865536	0
1	823	467854.86051221181	0
1	832	472482.831770937778	0
1	857	478298.154427129176	0
1	874	488145.174566149878	0
1	893	493740.924713917538	522.24955996587
1	898	494710.342669975662	1211.1329143781
1	907	498685.884718470558	0
1	940	508004.243017366732	0
1	960	541247.113803852576	0
1	976	546632.7992687843	0
1	984	547708.400892009733	630.99901142835
1	1009	553931.491736922107	0
1	1027	570639.125750661649	0
1	1044	581420.173242626011	0
1	1063	608472.963177392767	0
1	1080	614541.101302791642	112.11116351369
1	1098	632604.192670697731	0
1	1106	636335.564641625893	0
1	1122	638920.351369473736	0
1	1131	639951.362216742435	1024.7552983393
1	1164	653839.129050897981	0
1	1187	711376.114945159693	0
1	1204	722654.463930520035	0
1	1220	727821.239160526546	647.25441986787
1	1238	746237.721571574081	0
1	1247	747178.182815259228	0
1	1272	763817.468146938606	0
1	1290	779476.558389727834	0
1	1307	784068.412253818391	659.58437666787
1	1327	822748.126982883181	0
1	1344	835121.425748840551	0
1	1361	840692.16850803526	296.69480489911
1	1369	843526.788414910301	0
1	1394	853648.567933205059	0
1	1414	890328.453131141995	0
1	1423	894904.625903423239	0
1	1448	904643.438456188873	0
1	1456	908162.32068941331	0
1	1473	911995.105852230942	0
1	1498	919565.923327064878	0
1	1517	945342.955314790862	0
1	1533	952470.136052290002	0
1	1542	954091.074754679159	0
1	1550	954850.475918982048	0
1	1558	955713.752044073389	0
1	1598	961944.103031912765	0
1	1615	969921.595048327515	0
1	1632	977091.590783179603	0
1	1650	990175.666589187641	0
1	1658	990974.592557328681	76.909390110221
1	1683	999881.749753331658	0
1	1700	1012139.86444065528	0
1	1717	1017885.581777544734	0
1	1734	1032761.448113082192	0
1	1752	1045867.73219146286	0
1	1760	1049748.57578615513	0
1	1785	1057243.13857849785	0
1	1802	1063157.852857066762	0
1	1820	1080325.567061166424	0
1	1828	1081244.352386301961	207.58025694628
1	1853	1093360.357668716685	0
1	1861	1096457.000248927553	0
1	1869	1097471.33729041276	36.986494414698
1	1903	1107587.297086277448	0
1	1921	1128300.822695278532	0
1	1941	1167877.380606592604	0
1	1958	1172741.12506014632	896.08546287942
1	1976	1190625.040844331411	0
1	1993	1198340.467205051175	0
1	2009	1203019.00025470786	333.9509129714
1	2026	1209803.915426300639	0
1	2034	1214215.229334011889	0
1	2061	1238729.183607774241	0
2	700	381994.269497826159	1
2	702	381994.269497826159	0
2	714	387216.116774721983	1
2	719	387982.934702701089	0
2	734	399333.416034621555	1
2	736	399333.416034621555	0
2	753	428112.185452354399	1
2	755	428112.185452354399	0
2	770	440640.888270591541	1
2	772	440640.888270591541	0
2	779	442947.446509233766	1
2	781	442947.446509233766	0
2	803	449965.129242865536	1
2	805	449965.129242865536	0
2	821	467854.86051221181	1
2	823	467854.86051221181	0
2	830	472482.831770937778	1
2	832	472482.831770937778	0
2	855	478298.154427129176	1
2	857	478298.154427129176	0
2	872	488145.174566149878	1
2	874	488145.174566149878	0
2	885	493218.675153951668	1
2	888	493499.209755597516	2
2	893	493740.924713917538	1
2	898	494710.342669975662	0
2	905	498685.884718470558	1
2	907	498685.884718470558	0
2	938	508004.243017366732	1
2	940	508004.243017366732	0
2	958	541247.113803852576	1
2	960	541247.113803852576	0
2	974	546632.7992687843	1
2	976	546632.7992687843	0
2	979	547077.401880581381	1
2	984	547708.400892009733	0
2	1007	553931.491736922107	1
2	1009	553931.491736922107	0
2	1025	570639.125750661649	1
2	1027	570639.125750661649	0
2	1042	581420.173242626011	1
2	1044	581420.173242626011	0
2	1061	608472.963177392767	1
2	1063	608472.963177392767	0
2	1075	614428.990139277951	1
2	1080	614541.101302791642	0
2	1096	632604.192670697731	1
2	1098	632604.192670697731	0
2	1104	636335.564641625893	1
2	1106	636335.564641625893	0
2	1120	638920.351369473736	1
2	1122	638920.351369473736	0
2	1125	638926.606918403133	1
2	1131	639951.362216742435	0
2	1162	653839.129050897981	1
2	1164	653839.129050897981	0
2	1185	711376.114945159693	1
2	1187	711376.114945159693	0
2	1202	722654.463930520035	1
2	1204	722654.463930520035	0
2	1215	727173.984740658677	1
2	1220	727821.239160526546	0
2	1236	746237.721571574081	1
2	1238	746237.721571574081	0
2	1245	747178.182815259228	1
2	1247	747178.182815259228	0
2	1270	763817.468146938606	1
2	1272	763817.468146938606	0
2	1288	779476.558389727834	1
2	1290	779476.558389727834	0
2	1302	783408.827877150525	1
2	1307	784068.412253818391	0
2	1325	822748.126982883181	1
2	1327	822748.126982883181	0
2	1342	835121.425748840551	1
2	1344	835121.425748840551	0
2	1356	840395.473703136155	1
2	1361	840692.16850803526	0
2	1367	843526.788414910301	1
2	1369	843526.788414910301	0
2	1392	853648.567933205059	1
2	1394	853648.567933205059	0
2	1412	890328.453131141995	1
2	1414	890328.453131141995	0
2	1421	894904.625903423239	1
2	1423	894904.625903423239	0
2	1446	904643.438456188873	1
2	1448	904643.438456188873	0
2	1454	908162.32068941331	1
2	1456	908162.32068941331	0
2	1471	911995.105852230942	1
2	1473	911995.105852230942	0
2	1496	919565.923327064878	1
2	1498	919565.923327064878	0
2	1515	945342.955314790862	1
2	1517	945342.955314790862	0
2	1531	952470.136052290002	1
2	1533	952470.136052290002	0
2	1540	954091.074754679159	1
2	1542	954091.074754679159	0
2	1548	954850.475918982048	1
2	1550	954850.475918982048	0
2	1556	955713.752044073389	1
2	1558	955713.752044073389	0
2	1596	961944.103031912765	1
2	1598	961944.103031912765	0
2	1613	969921.595048327515	1
2	1615	969921.595048327515	0
2	1630	977091.590783179603	1
2	1632	977091.590783179603	0
2	1648	990175.666589187641	1
2	1650	990175.666589187641	0
2	1653	990897.68316721846	1
2	1658	990974.592557328681	0
2	1681	999881.749753331658	1
2	1683	999881.749753331658	0
2	1698	1012139.86444065528	1
2	1700	1012139.86444065528	0
2	1715	1017885.581777544734	1
2	1717	1017885.581777544734	0
2	1732	1032761.448113082192	1
2	1734	1032761.448113082192	0
2	1750	1045867.73219146286	1
2	1752	1045867.73219146286	0
2	1758	1049748.57578615513	1
2	1760	1049748.57578615513	0
2	1783	1057243.13857849785	1
2	1785	1057243.13857849785	0
2	1800	1063157.852857066762	1
2	1802	1063157.852857066762	0
2	1818	1080325.567061166424	1
2	1820	1080325.567061166424	0
2	1823	1081036.772129355685	1
2	1828	1081244.352386301961	0
2	1851	1093360.357668716685	1
2	1853	1093360.357668716685	0
2	1859	1096457.000248927553	1
2	1861	1096457.000248927553	0
2	1864	1097434.350795998062	1
2	1869	1097471.33729041276	0
2	1901	1107587.297086277448	1
2	1903	1107587.297086277448	0
2	1919	1128300.822695278532	1
2	1921	1128300.822695278532	0
2	1939	1167877.380606592604	1
2	1941	1167877.380606592604	0
2	1953	1171845.039597266895	1
2	1958	1172741.12506014632	0
2	1974	1190625.040844331411	1
2	1976	1190625.040844331411	0
2	1991	1198340.467205051175	1
2	1993	1198340.467205051175	0
2	2004	1202685.049341736461	1
2	2009	1203019.00025470786	0
2	2024	1209803.915426300639	1
2	2026	1209803.915426300639	0
2	2032	1214215.229334011889	1
2	2034	1214215.229334011889	0
2	2059	1238729.183607774241	1
2	2061	1238729.183607774241	0
3	711	387059.926571463989	0
3	727	391153.71163341701	0
3	744	403683.622677842663	0
3	764	432736.975441193029	0
3	789	444839.444833320152	0
3	797	448131.102568109319	0
3	814	454275.12162683292	0
3	840	473468.524071505506	960.152938232
3	849	477209.06287949675	0
3	865	482584.16731009779	0
3	882	492655.047639068161	0
3	918	499475.439275610604	758.05543857309
3	923	500449.230698336956	1241.4618731135
3	931	502486.271711017075	0
3	948	512199.879748786056	0
3	968	545635.492849579806	0
3	993	550886.019032894117	0
3	1001	551880.267188583215	161.26606687335
3	1018	558559.870563595944	0
3	1035	574837.844702395734	0
3	1053	586106.391589353267	0
3	1072	613629.59793776604	0
3	1088	619257.90561970666	0
3	1114	637210.714739327642	449.43300017084
3	1139	641069.551120501889	0
3	1147	642850.58531865612	0
3	1155	644037.120789754771	0
3	1173	658129.056401034617	0
3	1195	715329.340941541994	0
3	1212	727006.847343030681	0
3	1229	732322.011712691321	0
3	1255	750465.484459321527	0
3	1263	751528.880573165894	0
3	1281	768770.286677361054	0
3	1299	783312.248707455375	0
3	1315	788757.590625216256	0
3	1335	827283.572508508524	0
3	1353	839687.168292430921	0
3	1377	845628.844249156238	0
3	1386	848331.064728133761	0
3	1403	858428.153487975785	0
3	1431	895831.810224816008	910.86655641776
3	1439	899446.568959606313	0
3	1465	909089.27591772033	357.30769640456
3	1481	913031.998857427047	678.99850596228
3	1489	916616.496454603393	0
3	1506	924477.441477920169	0
3	1525	949816.578456302658	0
3	1566	956756.015992878218	0
3	1574	958054.919915828802	0
3	1582	959008.229704263324	211.39342719353
3	1590	960254.940936479964	0
3	1607	966571.496238328261	0
3	1624	974969.360330365533	0
3	1641	981215.12783065454	0
3	1666	994887.092473840219	0
3	1674	995800.245859677537	570.39921355249
3	1691	1004088.428546191387	0
3	1708	1016378.115800169076	0
3	1725	1022417.841623881972	0
3	1743	1037083.592689243099	0
3	1768	1050618.52150611893	545.87373438111
3	1777	1054097.125930197045	0
3	1793	1061794.359748892484	0
3	1810	1067664.130354551118	0
3	1836	1084606.966451285489	0
3	1844	1086293.57442364034	0
3	1878	1098406.370840948814	765.39500363226
3	1886	1101492.738453588912	0
3	1894	1102453.112464431732	619.07809776999
3	1911	1112561.262567519593	0
3	1929	1132723.475611432498	0
3	1950	1171845.029289640064	0
3	1966	1177168.391483064666	0
3	1984	1196009.749608072065	0
3	2001	1202099.135523126148	0
3	2018	1207132.656652004939	0
3	2043	1215341.900662893599	0
3	2051	1218370.713088181012	0
3	2070	1243311.948201679607	0
4	709	387059.926571463989	1
4	711	387059.926571463989	0
4	725	391153.71163341701	1
4	727	391153.71163341701	0
4	742	403683.622677842663	1
4	744	403683.622677842663	0
4	762	432736.975441193029	1
4	764	432736.975441193029	0
4	787	444839.444833320152	1
4	789	444839.444833320152	0
4	795	448131.102568109319	1
4	797	448131.102568109319	0
4	812	454275.12162683292	1
4	814	454275.12162683292	0
4	835	472508.371133273501	1
4	840	473468.524071505506	0
4	847	477209.06287949675	1
4	849	477209.06287949675	0
4	863	482584.16731009779	1
4	865	482584.16731009779	0
4	880	492655.047639068161	1
4	882	492655.047639068161	0
4	910	498717.383837037515	1
4	913	499207.768825223475	2
4	918	499475.439275610604	1
4	923	500449.230698336956	0
4	929	502486.271711017075	1
4	931	502486.271711017075	0
4	946	512199.879748786056	1
4	948	512199.879748786056	0
4	966	545635.492849579806	1
4	968	545635.492849579806	0
4	991	550886.019032894117	1
4	993	550886.019032894117	0
4	996	551719.00112170987	1
4	1001	551880.267188583215	0
4	1016	558559.870563595944	1
4	1018	558559.870563595944	0
4	1033	574837.844702395734	1
4	1035	574837.844702395734	0
4	1051	586106.391589353267	1
4	1053	586106.391589353267	0
4	1070	613629.59793776604	1
4	1072	613629.59793776604	0
4	1086	619257.90561970666	1
4	1088	619257.90561970666	0
4	1109	636761.281739156805	1
4	1114	637210.714739327642	0
4	1137	641069.551120501889	1
4	1139	641069.551120501889	0
4	1145	642850.58531865612	1
4	1147	642850.58531865612	0
4	1153	644037.120789754771	1
4	1155	644037.120789754771	0
4	1171	658129.056401034617	1
4	1173	658129.056401034617	0
4	1193	715329.340941541994	1
4	1195	715329.340941541994	0
4	1210	727006.847343030681	1
4	1212	727006.847343030681	0
4	1227	732322.011712691321	1
4	1229	732322.011712691321	0
4	1253	750465.484459321527	1
4	1255	750465.484459321527	0
4	1261	751528.880573165894	1
4	1263	751528.880573165894	0
4	1279	768770.286677361054	1
4	1281	768770.286677361054	0
4	1297	783312.248707455375	1
4	1299	783312.248707455375	0
4	1313	788757.590625216256	1
4	1315	788757.590625216256	0
4	1333	827283.572508508524	1
4	1335	827283.572508508524	0
4	1351	839687.168292430921	1
4	1353	839687.168292430921	0
4	1375	845628.844249156238	1
4	1377	845628.844249156238	0
4	1384	848331.064728133761	1
4	1386	848331.064728133761	0
4	1401	858428.153487975785	1
4	1403	858428.153487975785	0
4	1426	894920.943668398252	1
4	1431	895831.810224816008	0
4	1437	899446.568959606313	1
4	1439	899446.568959606313	0
4	1459	908731.968221315765	1
4	1465	909089.27591772033	0
4	1476	912353.000351464768	1
4	1481	913031.998857427047	0
4	1487	916616.496454603393	1
4	1489	916616.496454603393	0
4	1504	924477.441477920169	1
4	1506	924477.441477920169	0
4	1523	949816.578456302658	1
4	1525	949816.578456302658	0
4	1564	956756.015992878218	1
4	1566	956756.015992878218	0
4	1572	958054.919915828802	1
4	1574	958054.919915828802	0
4	1577	958796.836277069789	1
4	1582	959008.229704263324	0
4	1588	960254.940936479964	1
4	1590	960254.940936479964	0
4	1605	966571.496238328261	1
4	1607	966571.496238328261	0
4	1622	974969.360330365533	1
4	1624	974969.360330365533	0
4	1639	981215.12783065454	1
4	1641	981215.12783065454	0
4	1664	994887.092473840219	1
4	1666	994887.092473840219	0
4	1669	995229.846646125045	1
4	1674	995800.245859677537	0
4	1689	1004088.428546191387	1
4	1691	1004088.428546191387	0
4	1706	1016378.115800169076	1
4	1708	1016378.115800169076	0
4	1723	1022417.841623881972	1
4	1725	1022417.841623881972	0
4	1741	1037083.592689243099	1
4	1743	1037083.592689243099	0
4	1763	1050072.647771737816	1
4	1768	1050618.52150611893	0
4	1775	1054097.125930197045	1
4	1777	1054097.125930197045	0
4	1791	1061794.359748892484	1
4	1793	1061794.359748892484	0
4	1808	1067664.130354551118	1
4	1810	1067664.130354551118	0
4	1834	1084606.966451285489	1
4	1836	1084606.966451285489	0
4	1842	1086293.57442364034	1
4	1844	1086293.57442364034	0
4	1872	1097640.975837316551	1
4	1878	1098406.370840948814	0
4	1884	1101492.738453588912	1
4	1886	1101492.738453588912	0
4	1889	1101834.034366661741	1
4	1894	1102453.112464431732	0
4	1909	1112561.262567519593	1
4	1911	1112561.262567519593	0
4	1927	1132723.475611432498	1
4	1929	1132723.475611432498	0
4	1948	1171845.029289640064	1
4	1950	1171845.029289640064	0
4	1964	1177168.391483064666	1
4	1966	1177168.391483064666	0
4	1982	1196009.749608072065	1
4	1984	1196009.749608072065	0
4	1999	1202099.135523126148	1
4	2001	1202099.135523126148	0
4	2016	1207132.656652004939	1
4	2018	1207132.656652004939	0
4	2041	1215341.900662893599	1
4	2043	1215341.900662893599	0
4	2049	1218370.713088181012	1
4	2051	1218370.713088181012	0
4	2068	1243311.948201679607	1
4	2070	1243311.948201679607	0
5	707	387000	1
5	732	396000	1
5	749	405000	1
5	750	414000	0
5	751	423000	0
5	760	432000	1
5	774	441000	0
5	807	450000	2
5	819	459000	1
5	825	468000	0
5	845	477000	2
5	870	486000	1
5	900	495000	2
5	936	504000	2
5	950	513000	1
5	954	522000	0
5	955	531000	0
5	956	540000	0
5	989	549000	3
5	1014	558000	1
5	1023	567000	0
5	1040	576000	1
5	1049	585000	1
5	1058	594000	0
5	1059	603000	0
5	1068	612000	1
5	1093	621000	1
5	1094	630000	0
5	1127	639000	2
5	1160	648000	2
5	1169	657000	1
5	1178	666000	0
5	1179	675000	0
5	1180	684000	0
5	1181	693000	0
5	1182	702000	0
5	1183	711000	0
5	1200	720000	1
5	1225	729000	2
5	1234	738000	0
5	1240	747000	0
5	1268	756000	2
5	1277	765000	1
5	1286	774000	0
5	1295	783000	1
5	1320	792000	1
5	1321	801000	0
5	1322	810000	0
5	1323	819000	0
5	1337	828000	1
5	1349	837000	1
5	1379	846000	2
5	1399	855000	1
5	1408	864000	0
5	1409	873000	0
5	1410	882000	0
5	1416	891000	0
5	1441	900000	2
5	1461	909000	1
5	1494	918000	2
5	1511	927000	1
5	1512	936000	0
5	1513	945000	0
5	1538	954000	2
5	1603	963000	4
5	1620	972000	1
5	1637	981000	1
5	1646	990000	0
5	1679	999000	2
5	1696	1008000	1
5	1710	1017000	1
5	1730	1026000	1
5	1739	1035000	1
5	1748	1044000	0
5	1773	1053000	2
5	1795	1062000	1
5	1815	1071000	1
5	1816	1080000	0
5	1849	1089000	2
5	1874	1098000	2
5	1899	1107000	1
5	1916	1116000	1
5	1917	1125000	0
5	1934	1134000	1
5	1935	1143000	0
5	1936	1152000	0
5	1937	1161000	0
5	1946	1170000	1
5	1971	1179000	1
5	1972	1188000	0
5	1989	1197000	1
5	2014	1206000	2
5	2036	1215000	1
5	2056	1224000	1
5	2057	1233000	0
5	2066	1242000	1
6	707	387000	0
6	732	396000	2
6	749	405000	1
6	750	414000	0
6	751	423000	0
6	760	432000	0
6	774	441000	1
6	807	450000	2
6	819	459000	1
6	825	468000	0
6	845	477000	1
6	870	486000	2
6	900	495000	1
6	936	504000	3
6	950	513000	0
6	954	522000	1
6	955	531000	0
6	956	540000	0
6	989	549000	1
6	1014	558000	2
6	1023	567000	1
6	1040	576000	1
6	1049	585000	0
6	1058	594000	1
6	1059	603000	0
6	1068	612000	0
6	1093	621000	2
6	1094	630000	0
6	1127	639000	1
6	1160	648000	3
6	1169	657000	0
6	1178	666000	1
6	1179	675000	0
6	1180	684000	0
6	1181	693000	0
6	1182	702000	0
6	1183	711000	0
6	1200	720000	1
6	1225	729000	1
6	1234	738000	1
6	1240	747000	0
6	1268	756000	2
6	1277	765000	0
6	1286	774000	1
6	1295	783000	0
6	1320	792000	2
6	1321	801000	0
6	1322	810000	0
6	1323	819000	0
6	1337	828000	0
6	1349	837000	1
6	1379	846000	1
6	1399	855000	2
6	1408	864000	1
6	1409	873000	0
6	1410	882000	0
6	1416	891000	0
6	1441	900000	1
6	1461	909000	1
6	1494	918000	3
6	1511	927000	1
6	1512	936000	0
6	1513	945000	0
6	1538	954000	1
6	1603	963000	4
6	1620	972000	1
6	1637	981000	1
6	1646	990000	1
6	1679	999000	2
6	1696	1008000	1
6	1710	1017000	0
6	1730	1026000	2
6	1739	1035000	0
6	1748	1044000	1
6	1773	1053000	1
6	1795	1062000	1
6	1815	1071000	2
6	1816	1080000	0
6	1849	1089000	2
6	1874	1098000	0
6	1899	1107000	3
6	1916	1116000	1
6	1917	1125000	0
6	1934	1134000	1
6	1935	1143000	0
6	1936	1152000	0
6	1937	1161000	0
6	1946	1170000	0
6	1971	1179000	2
6	1972	1188000	0
6	1989	1197000	1
6	2014	1206000	1
6	2036	1215000	1
6	2056	1224000	2
6	2057	1233000	0
6	2066	1242000	0
7	705	382906.680463188994	1
7	708	387059.926571463989	0
7	722	388646.288965989286	1
7	724	391153.71163341701	0
7	739	400279.978455386678	1
7	741	403683.622677842663	0
7	758	429062.482264307339	1
7	761	432736.975441193029	0
7	776	441442.155680417657	1
7	784	443951.829422867664	2
7	786	444839.444833320152	1
7	794	448131.102568109319	0
7	809	450693.301646417667	1
7	811	454275.12162683292	0
7	827	468775.458074769275	1
7	834	472508.371133273501	0
7	838	473468.524071505506	1
7	846	477209.06287949675	0
7	860	479117.270530832337	1
7	862	482584.16731009779	0
7	877	488997.962291798258	1
7	879	492655.047639068161	0
7	896	494710.342669975662	1
7	902	495708.465054317984	2
7	909	498717.383837037515	1
7	912	499207.768825223475	0
7	916	499475.439275610604	1
7	928	502486.271711017075	0
7	943	508884.993391173256	1
7	945	512199.879748786056	0
7	963	542268.570043611902	1
7	965	545635.492849579806	0
7	982	547708.400892009733	1
7	987	548524.873327121543	2
7	990	550886.019032894117	1
7	995	551719.00112170987	0
7	1012	554913.653653106456	1
7	1015	558559.870563595944	0
7	1030	571366.307647433485	1
7	1032	574837.844702395734	0
7	1047	582305.220254611043	1
7	1050	586106.391589353267	0
7	1066	609508.995647512623	1
7	1069	613629.59793776604	0
7	1083	615507.834151134866	1
7	1085	619257.90561970666	0
7	1101	633455.988481062737	1
7	1108	636761.281739156805	0
7	1112	637210.714739327642	1
7	1129	639951.362216742435	2
7	1134	640803.601955428175	3
7	1136	641069.551120501889	2
7	1144	642850.58531865612	1
7	1152	644037.120789754771	0
7	1167	654760.808565838358	1
7	1170	658129.056401034617	0
7	1190	712139.761249580846	1
7	1192	715329.340941541994	0
7	1207	723496.250374264253	1
7	1209	727006.847343030681	0
7	1223	728758.778283979625	1
7	1226	732322.011712691321	0
7	1242	747054.121958227739	1
7	1250	748128.495073849195	2
7	1252	750465.484459321527	1
7	1260	751528.880573165894	0
7	1275	764760.377847988916	1
7	1278	768770.286677361054	0
7	1293	780397.653499857829	1
7	1296	783312.248707455375	0
7	1310	785087.63178780374	1
7	1312	788757.590625216256	0
7	1330	823569.715375821141	1
7	1332	827283.572508508524	0
7	1347	836036.063396913136	1
7	1350	839687.168292430921	0
7	1364	841529.225655204976	1
7	1372	844392.765188672349	2
7	1374	845628.844249156238	1
7	1383	848331.064728133761	0
7	1397	854528.594428669688	1
7	1400	858428.153487975785	0
7	1418	891141.752058642491	1
7	1425	894920.943668398252	0
7	1429	895831.810224816008	1
7	1436	899446.568959606313	0
7	1451	905595.754408749891	1
7	1458	908731.968221315765	0
7	1463	909089.27591772033	1
7	1475	912353.000351464768	0
7	1479	913031.998857427047	1
7	1486	916616.496454603393	0
7	1501	920456.221293280352	1
7	1503	924477.441477920169	0
7	1520	946266.565657365798	1
7	1522	949816.578456302658	0
7	1536	953280.308998352418	1
7	1545	954833.601335184743	2
7	1553	955661.585843619484	3
7	1561	956581.184523696453	4
7	1563	956756.015992878218	3
7	1571	958054.919915828802	2
7	1576	958796.836277069789	1
7	1587	960254.940936479964	0
7	1601	962875.498873664991	1
7	1604	966571.496238328261	0
7	1618	970684.677514408089	1
7	1621	974969.360330365533	0
7	1635	977908.896423029332	1
7	1638	981215.12783065454	0
7	1656	990974.592557328681	1
7	1661	991898.454569524945	2
7	1663	994887.092473840219	1
7	1668	995229.846646125045	0
7	1686	1000625.776870800764	1
7	1688	1004088.428546191387	0
7	1703	1012961.169463639763	1
7	1705	1016378.115800169076	0
7	1720	1018749.910170055411	1
7	1722	1022417.841623881972	0
7	1737	1033679.332644806079	1
7	1740	1037083.592689243099	0
7	1755	1046723.854440057179	1
7	1762	1050072.647771737816	0
7	1766	1050618.52150611893	1
7	1774	1054097.125930197045	0
7	1788	1058378.326089879187	1
7	1790	1061794.359748892484	0
7	1805	1063895.432631524645	1
7	1807	1067664.130354551118	0
7	1826	1081244.352386301961	1
7	1831	1082149.207538371576	2
7	1833	1084606.966451285489	1
7	1841	1086293.57442364034	0
7	1856	1094298.432022502291	1
7	1867	1097471.33729041276	2
7	1871	1097640.975837316551	1
7	1876	1098406.370840948814	2
7	1883	1101492.738453588912	1
7	1888	1101834.034366661741	0
7	1906	1108584.667426235492	1
7	1908	1112561.262567519593	0
7	1924	1129216.699882113264	1
7	1926	1132723.475611432498	0
7	1944	1168858.608494837948	1
7	1947	1171845.029289640064	0
7	1961	1173580.862895672447	1
7	1963	1177168.391483064666	0
7	1979	1191619.01257602971	1
7	1981	1196009.749608072065	0
7	1996	1199302.193326734703	1
7	1998	1202099.135523126148	0
7	2012	1203831.811421822851	1
7	2015	1207132.656652004939	0
7	2029	1210779.932078765075	1
7	2038	1215245.365266838413	2
7	2040	1215341.900662893599	1
7	2048	1218370.713088181012	0
7	2064	1239782.122271239887	1
7	2067	1243311.948201679607	0
