version 2
run ResponseMeasurement-46-20170110-19:43:42-22317
attr configname ResponseMeasurement
attr datetime 20170110-19:43:42
attr experiment ResponseMeasurement
attr inifile responseStudy.ini
attr iterationvars ""
attr iterationvars2 $repetition=46
attr measurement ""
attr network controltower.SimNetwork
attr processid 22317
attr repetition 46
attr replication #46
attr resultdir results
attr runnumber 46
attr seedset 46
param SimNetwork.a.parkingLot.parkingDelay "truncnormal(60min, 6min)"
param SimNetwork.a.runway.landingTime "truncnormal(15min, 1.5min)"
param SimNetwork.a.runway.takeoffTime "truncnormal(15min, 1.5min)"
param SimNetwork.a.runway.throughputCheckInterval 150min
param SimNetwork.wg.interArrivalTime exponential(150min)

vector 7  SimNetwork.a.parkingLot  parkingOccupancy:vector  ETV
attr source  parkingOccupancy
vector 4  SimNetwork.a.takeoffQueue  queueLength:vector  ETV
attr source  queueLengthSignal
vector 3  SimNetwork.a.takeoffQueue  queueTime:vector  ETV
attr source  queueTimeSignal
vector 0  SimNetwork.wg  responseTime:vector  ETV
attr source  responseTimeSignal
vector 5  SimNetwork.a.runway  landedThroughput:vector  ETV
attr source  landedThroughputSignal
vector 6  SimNetwork.a.runway  tookoffThroughput:vector  ETV
attr source  tookoffThroughputSignal
vector 2  SimNetwork.a.landingQueue  queueLength:vector  ETV
attr source  queueLengthSignal
vector 1  SimNetwork.a.landingQueue  queueTime:vector  ETV
attr source  queueTimeSignal
0	649	385980.792909943628	14264.061936694
0	680	441501.731309555323	61657.150074756
0	696	444505.195695941939	8661.6034971401
0	712	448405.789439916782	8755.2873048433
0	721	451886.907563131103	8805.1407958209
0	739	470494.440449752996	24092.463439452
0	756	477039.59629597859	11794.917793036
0	781	489092.98444757249	17247.811083635
0	792	493420.956386011453	10592.913456329
0	814	499112.185379970862	11794.239405527
0	825	502526.841021987238	9417.7795873529
0	850	508358.652035885427	11450.482695012
0	855	509347.299753680257	7012.8197319135
0	880	515603.761644028586	13025.374110361
0	891	518382.16080441104	7867.0429921996
0	905	523920.054557915276	11205.00017162
0	922	532442.556279085713	14412.98102694
0	942	543667.115833394679	16914.667625132
0	955	548997.015012138435	10605.431168022
0	980	555829.00079569064	12887.171162582
0	988	556826.378476242418	6471.9745659805
0	1006	572975.500052899827	20832.843137047
0	1023	580277.492365915489	12617.262189028
0	1056	590261.367468608338	15617.868379104
0	1064	591462.722855883839	7007.5390033133
0	1072	592781.256298262854	6455.9939928001
0	1091	613479.619030747285	25936.299808357
0	1108	625657.647807390047	17153.207733962
0	1134	644730.244683202389	24860.857134708
0	1142	647164.819168370937	8327.8917037684
0	1165	702296.449938433165	61330.659676706
0	1189	709141.419290997681	11826.394650776
0	1197	710932.488906913471	6774.8459641492
0	1223	722813.721345393972	17494.659285171
0	1231	724902.246472727181	6413.89796238
0	1248	736345.993453376961	17138.61459668
0	1265	744593.78454503697	13612.981675746
0	1284	765763.757913798017	26179.545360367
0	1328	775968.585364805565	16018.773110538
0	1333	776889.703099432251	7906.6859729612
0	1347	778608.52389087293	9145.4362359052
0	1357	780613.327281698703	7493.6326338118
0	1366	783998.037657887383	10368.287956971
0	1395	806906.029120922476	28306.515400904
0	1400	807887.126065558464	6290.9739238982
0	1419	830201.418863510807	27810.155513356
0	1444	837864.26617261419	12794.869381442
0	1452	840770.392981661637	9223.7354223142
0	1469	851294.750221575997	16145.005030559
0	1486	859602.005772555414	13516.077819711
0	1511	866704.069683293704	12439.07285089
0	1519	868654.386412489725	7579.5299202944
0	1537	885242.072274105364	21825.547730543
0	1557	893983.781997502113	14107.405484266
0	1571	900044.848701690248	11464.675996319
0	1591	910216.980274065777	17015.813135769
0	1612	915920.584756158638	10561.012656559
0	1620	917817.900122974306	7690.1621133802
0	1647	940397.170961841959	28407.42304235
0	1655	942475.192962813322	7418.1241731198
0	1674	964043.103349237009	27110.606682253
0	1690	969825.019007734001	10902.742217579
0	1716	983956.163759034283	19642.895754658
0	1732	987036.874549383688	9140.7827332461
0	1741	990916.915350349896	8792.0705692264
0	1761	1006201.476621646188	21578.046678164
0	1783	1011378.021349544627	10864.032021165
0	1791	1014108.506586054649	8007.5246154628
0	1817	1027865.556909368987	18708.232406023
0	1825	1028763.065281379259	6285.8956473599
0	1842	1038977.41154533078	15695.681599061
0	1860	1061468.73311559259	27645.544601366
0	1880	1069502.414614581697	13139.780256083
0	1908	1075441.349023915527	11301.689763239
0	1918	1077095.872961803657	8354.7987108123
0	1927	1081366.062510745054	10957.890982888
0	1945	1104966.32389187422	30268.875083641
0	1962	1111371.099345003952	11228.120603259
0	1980	1126172.895502683017	19812.630901012
0	1999	1155743.918385308455	35011.457468631
0	2035	1166878.58474592778	16864.206253273
0	2048	1168437.531012814576	7144.8634852561
0	2056	1169948.294397294558	8228.8967569881
0	2065	1172264.123903835109	7450.1335849058
0	2082	1186796.442423953239	19989.146619281
0	2099	1192480.462863154784	11544.112212558
0	2116	1200490.093852867227	13283.435183167
0	2134	1220025.99272289794	25275.426399412
0	2162	1227800.34561863454	13497.003458715
0	2167	1228723.649883445912	6583.5573722666
0	2184	1239120.704058625767	16239.607040496
1	660	435843.592198801814	0
1	668	439650.502135073482	0
1	685	443081.766767310237	0
1	701	446401.977010300609	0
1	727	465244.678502942485	0
1	744	471845.173363937697	0
1	761	482828.042929682807	0
1	770	487317.945974444187	0
1	794	493420.956386011453	311.8949513771
1	803	496908.169340873088	0
1	827	502526.841021987238	192.36100022048
1	835	503270.210198862794	691.82266519545
1	860	510515.117812211394	0
1	868	512715.0543862949	0
1	893	518382.16080441104	352.58555226538
1	910	526752.448208262756	0
1	927	538391.583844116656	0
1	944	543667.115833394679	725.28620028604
1	961	550354.40391026189	0
1	969	552142.656915853013	0
1	995	567660.230176887629	0
1	1011	574643.499089503859	0
1	1028	584455.183852570569	0
1	1037	586325.262305462744	0
1	1045	587543.319222389975	0
1	1079	608504.440073428299	0
1	1096	619869.387548493997	0
1	1114	638836.927464602525	0
1	1123	640965.790261727056	0
1	1153	697315.024640221664	0
1	1170	704157.64294276431	0
1	1178	705319.062060222879	0
1	1203	718488.348510347149	0
1	1211	719308.844240174743	101.46538347801
1	1237	730980.802869291068	0
1	1254	739584.212553431304	0
1	1272	759949.812254267364	0
1	1289	768983.017126471084	0
1	1297	769741.752215338625	278.66456037091
1	1305	773119.694647886862	0
1	1320	774066.484396460875	436.73469554411
1	1349	778608.52389087293	9.010170854517
1	1373	801596.152141660221	0
1	1381	802476.189727764727	84.926377609963
1	1407	825069.396791171752	0
1	1424	831546.657559347398	0
1	1432	835149.745191017383	0
1	1458	846085.927952843991	0
1	1474	854264.996832403749	0
1	1491	861074.856492195369	0
1	1499	863416.524543562121	0
1	1525	879876.376513235671	0
1	1542	888580.172705370871	0
1	1559	893983.781997502113	782.6148592056
1	1576	905359.572099599307	0
1	1593	910216.980274065777	89.242264471694
1	1601	911989.747919491842	0
1	1627	935057.068789693486	0
1	1636	936932.496666983841	0
1	1662	958922.276790155413	0
1	1679	964313.268004376153	0
1	1696	977896.091816137575	0
1	1705	982124.84478112345	0
1	1721	984623.429943481835	0
1	1747	1000513.989328379953	0
1	1763	1006201.476621646188	100.49465105437
1	1772	1009157.324503346357	0
1	1797	1022477.169634019405	0
1	1805	1023348.85081763685	67.120871366684
1	1830	1033823.188514226906	0
1	1849	1056362.634358498602	0
1	1866	1064139.65926067611	0
1	1882	1069502.414614581697	761.34036359034
1	1890	1070408.171527857115	0
1	1910	1075441.349023915527	743.90021568238
1	1934	1100142.978741744884	0
1	1950	1106360.264601671194	0
1	1968	1120732.460916677762	0
1	1987	1150014.378492654466	0
1	2005	1161292.667527558468	0
1	2013	1162154.321760019939	434.9241197135
1	2021	1164813.990318929327	0
1	2037	1166878.58474592778	71.288941255055
1	2071	1180936.350650597249	0
1	2087	1187206.658669700273	0
1	2104	1194750.566323486119	0
1	2122	1214303.342159919691	0
1	2139	1222140.092511179331	0
1	2147	1223114.310778048967	233.21375991951
1	2173	1233465.441463837935	0
2	658	435843.592198801814	1
2	660	435843.592198801814	0
2	666	439650.502135073482	1
2	668	439650.502135073482	0
2	683	443081.766767310237	1
2	685	443081.766767310237	0
2	699	446401.977010300609	1
2	701	446401.977010300609	0
2	725	465244.678502942485	1
2	727	465244.678502942485	0
2	742	471845.173363937697	1
2	744	471845.173363937697	0
2	759	482828.042929682807	1
2	761	482828.042929682807	0
2	768	487317.945974444187	1
2	770	487317.945974444187	0
2	789	493109.061434634349	1
2	794	493420.956386011453	0
2	801	496908.169340873088	1
2	803	496908.169340873088	0
2	822	502334.48002176676	1
2	827	502526.841021987238	0
2	830	502578.387533667346	1
2	835	503270.210198862794	0
2	858	510515.117812211394	1
2	860	510515.117812211394	0
2	866	512715.0543862949	1
2	868	512715.0543862949	0
2	888	518029.575252145656	1
2	893	518382.16080441104	0
2	908	526752.448208262756	1
2	910	526752.448208262756	0
2	925	538391.583844116656	1
2	927	538391.583844116656	0
2	939	542941.829633108636	1
2	944	543667.115833394679	0
2	959	550354.40391026189	1
2	961	550354.40391026189	0
2	967	552142.656915853013	1
2	969	552142.656915853013	0
2	993	567660.230176887629	1
2	995	567660.230176887629	0
2	1009	574643.499089503859	1
2	1011	574643.499089503859	0
2	1026	584455.183852570569	1
2	1028	584455.183852570569	0
2	1035	586325.262305462744	1
2	1037	586325.262305462744	0
2	1043	587543.319222389975	1
2	1045	587543.319222389975	0
2	1077	608504.440073428299	1
2	1079	608504.440073428299	0
2	1094	619869.387548493997	1
2	1096	619869.387548493997	0
2	1112	638836.927464602525	1
2	1114	638836.927464602525	0
2	1121	640965.790261727056	1
2	1123	640965.790261727056	0
2	1151	697315.024640221664	1
2	1153	697315.024640221664	0
2	1168	704157.64294276431	1
2	1170	704157.64294276431	0
2	1176	705319.062060222879	1
2	1178	705319.062060222879	0
2	1201	718488.348510347149	1
2	1203	718488.348510347149	0
2	1206	719207.378856696728	1
2	1211	719308.844240174743	0
2	1235	730980.802869291068	1
2	1237	730980.802869291068	0
2	1252	739584.212553431304	1
2	1254	739584.212553431304	0
2	1270	759949.812254267364	1
2	1272	759949.812254267364	0
2	1287	768983.017126471084	1
2	1289	768983.017126471084	0
2	1292	769463.087654967715	1
2	1297	769741.752215338625	0
2	1303	773119.694647886862	1
2	1305	773119.694647886862	0
2	1311	773629.749700916767	1
2	1320	774066.484396460875	0
2	1344	778599.513720018413	1
2	1349	778608.52389087293	0
2	1371	801596.152141660221	1
2	1373	801596.152141660221	0
2	1376	802391.263350154764	1
2	1381	802476.189727764727	0
2	1405	825069.396791171752	1
2	1407	825069.396791171752	0
2	1422	831546.657559347398	1
2	1424	831546.657559347398	0
2	1430	835149.745191017383	1
2	1432	835149.745191017383	0
2	1456	846085.927952843991	1
2	1458	846085.927952843991	0
2	1472	854264.996832403749	1
2	1474	854264.996832403749	0
2	1489	861074.856492195369	1
2	1491	861074.856492195369	0
2	1497	863416.524543562121	1
2	1499	863416.524543562121	0
2	1523	879876.376513235671	1
2	1525	879876.376513235671	0
2	1540	888580.172705370871	1
2	1542	888580.172705370871	0
2	1554	893201.167138296509	1
2	1559	893983.781997502113	0
2	1574	905359.572099599307	1
2	1576	905359.572099599307	0
2	1588	910127.738009594083	1
2	1593	910216.980274065777	0
2	1599	911989.747919491842	1
2	1601	911989.747919491842	0
2	1625	935057.068789693486	1
2	1627	935057.068789693486	0
2	1634	936932.496666983841	1
2	1636	936932.496666983841	0
2	1660	958922.276790155413	1
2	1662	958922.276790155413	0
2	1677	964313.268004376153	1
2	1679	964313.268004376153	0
2	1694	977896.091816137575	1
2	1696	977896.091816137575	0
2	1703	982124.84478112345	1
2	1705	982124.84478112345	0
2	1719	984623.429943481835	1
2	1721	984623.429943481835	0
2	1745	1000513.989328379953	1
2	1747	1000513.989328379953	0
2	1758	1006100.981970591817	1
2	1763	1006201.476621646188	0
2	1770	1009157.324503346357	1
2	1772	1009157.324503346357	0
2	1795	1022477.169634019405	1
2	1797	1022477.169634019405	0
2	1800	1023281.729946270166	1
2	1805	1023348.85081763685	0
2	1828	1033823.188514226906	1
2	1830	1033823.188514226906	0
2	1847	1056362.634358498602	1
2	1849	1056362.634358498602	0
2	1864	1064139.65926067611	1
2	1866	1064139.65926067611	0
2	1877	1068741.074250991358	1
2	1882	1069502.414614581697	0
2	1888	1070408.171527857115	1
2	1890	1070408.171527857115	0
2	1902	1074697.448808233148	1
2	1910	1075441.349023915527	0
2	1932	1100142.978741744884	1
2	1934	1100142.978741744884	0
2	1948	1106360.264601671194	1
2	1950	1106360.264601671194	0
2	1966	1120732.460916677762	1
2	1968	1120732.460916677762	0
2	1985	1150014.378492654466	1
2	1987	1150014.378492654466	0
2	2003	1161292.667527558468	1
2	2005	1161292.667527558468	0
2	2008	1161719.397640306439	1
2	2013	1162154.321760019939	0
2	2019	1164813.990318929327	1
2	2021	1164813.990318929327	0
2	2032	1166807.295804672725	1
2	2037	1166878.58474592778	0
2	2069	1180936.350650597249	1
2	2071	1180936.350650597249	0
2	2085	1187206.658669700273	1
2	2087	1187206.658669700273	0
2	2102	1194750.566323486119	1
2	2104	1194750.566323486119	0
2	2120	1214303.342159919691	1
2	2122	1214303.342159919691	0
2	2137	1222140.092511179331	1
2	2139	1222140.092511179331	0
2	2142	1222881.097018129461	1
2	2147	1223114.310778048967	0
2	2171	1233465.441463837935	1
2	2173	1233465.441463837935	0
3	646	385006.097002625343	0
3	676	440645.427593650824	0
3	693	443918.043000942573	137.88475754183
3	709	447445.195070466388	51.505599504183
3	718	450910.07148381307	0
3	736	469625.392746314365	0
3	752	476213.874131584431	0
3	778	488298.962477978076	724.87627487198
3	786	492549.356205488859	0
3	811	498202.222583279611	0
3	819	501699.108962325476	0
3	844	507373.714357605046	0
3	852	508358.652035885427	502.47568171483
3	877	514796.738147908095	0
3	885	517532.025632799	0
3	902	522969.57311267788	0
3	919	531734.171834020313	0
3	936	542849.185806023345	0
3	952	548083.884639527674	0
3	977	554799.216469511879	0
3	985	555863.591910083729	0
3	1003	572063.283710936079	0
3	1020	579381.588142493378	0
3	1053	589372.096358305021	0
3	1061	590400.865598195532	0
3	1069	591839.975893689371	0
3	1088	612592.645492393506	0
3	1105	624761.603451414728	0
3	1131	643693.703850105738	0
3	1139	646135.271813387055	0
3	1161	701361.219812667462	0
3	1186	708292.023647426684	0
3	1194	710132.603135509174	0
3	1220	721935.780337048631	0
3	1228	724084.312339591906	0
3	1245	735390.870939855044	0
3	1262	743870.489345471038	0
3	1280	764889.9201171818	0
3	1325	774974.32536514223	1482.7500980454
3	1330	775968.585364805565	2264.9658400169
3	1338	777745.710719424039	0
3	1354	779631.857623438463	1275.9037591948
3	1363	783228.010227348182	0
3	1389	805987.667328591855	0
3	1397	806906.029120922476	167.27189856726
3	1416	829358.439151304268	0
3	1440	836904.704136792735	0
3	1449	839870.2801096258	0
3	1466	850627.637790175041	0
3	1483	858641.798869322429	0
3	1508	865815.105830610273	0
3	1516	867902.79366146276	0
3	1534	884499.209746130375	0
3	1551	893058.124678368747	0
3	1567	899047.502459155522	0
3	1585	909346.572028905525	0
3	1609	915018.008178077229	0
3	1617	916962.672777254531	0
3	1644	939492.645842093119	0
3	1652	941523.855549016493	0
3	1671	963148.63524981837	0
3	1687	968876.67188997994	0
3	1713	983016.580157001826	150.97346957092
3	1729	985991.83902008192	0
3	1737	989907.296860115382	0
3	1755	1005268.791085446904	0
3	1780	1010383.631901270983	0
3	1788	1013124.230387065879	0
3	1814	1026936.495006991143	0
3	1822	1027882.057175250962	0
3	1839	1038059.186208287761	0
3	1857	1060555.395856288011	0
3	1874	1068623.741616914652	0
3	1899	1074460.15108214853	0
3	1915	1076289.244604372613	1179.3995903298
3	1924	1080515.547287825753	0
3	1942	1103954.56376488239	0
3	1959	1110476.216142568406	0
3	1977	1125150.637778919455	0
3	1996	1154796.677258159778	0
3	2029	1166058.214342510882	0
3	2045	1167713.030425954896	587.41964374695
3	2053	1168896.179893710469	0
3	2062	1171359.938945704867	0
3	2079	1185864.862690550125	0
3	2096	1191666.541345635836	0
3	2113	1199595.36206141636	0
3	2131	1219115.915439445525	0
3	2156	1226849.242529566942	0
3	2164	1227800.34561863454	159.49575357783
3	2181	1238316.826472154347	0
4	644	385006.097002625343	1
4	646	385006.097002625343	0
4	674	440645.427593650824	1
4	676	440645.427593650824	0
4	688	443780.158243400745	1
4	693	443918.043000942573	0
4	704	447393.689470962205	1
4	709	447445.195070466388	0
4	716	450910.07148381307	1
4	718	450910.07148381307	0
4	734	469625.392746314365	1
4	736	469625.392746314365	0
4	750	476213.874131584431	1
4	752	476213.874131584431	0
4	773	487574.086203106091	1
4	778	488298.962477978076	0
4	784	492549.356205488859	1
4	786	492549.356205488859	0
4	809	498202.222583279611	1
4	811	498202.222583279611	0
4	817	501699.108962325476	1
4	819	501699.108962325476	0
4	842	507373.714357605046	1
4	844	507373.714357605046	0
4	847	507856.176354170592	1
4	852	508358.652035885427	0
4	875	514796.738147908095	1
4	877	514796.738147908095	0
4	883	517532.025632799	1
4	885	517532.025632799	0
4	900	522969.57311267788	1
4	902	522969.57311267788	0
4	917	531734.171834020313	1
4	919	531734.171834020313	0
4	934	542849.185806023345	1
4	936	542849.185806023345	0
4	950	548083.884639527674	1
4	952	548083.884639527674	0
4	975	554799.216469511879	1
4	977	554799.216469511879	0
4	983	555863.591910083729	1
4	985	555863.591910083729	0
4	1001	572063.283710936079	1
4	1003	572063.283710936079	0
4	1018	579381.588142493378	1
4	1020	579381.588142493378	0
4	1051	589372.096358305021	1
4	1053	589372.096358305021	0
4	1059	590400.865598195532	1
4	1061	590400.865598195532	0
4	1067	591839.975893689371	1
4	1069	591839.975893689371	0
4	1086	612592.645492393506	1
4	1088	612592.645492393506	0
4	1103	624761.603451414728	1
4	1105	624761.603451414728	0
4	1129	643693.703850105738	1
4	1131	643693.703850105738	0
4	1137	646135.271813387055	1
4	1139	646135.271813387055	0
4	1159	701361.219812667462	1
4	1161	701361.219812667462	0
4	1184	708292.023647426684	1
4	1186	708292.023647426684	0
4	1192	710132.603135509174	1
4	1194	710132.603135509174	0
4	1218	721935.780337048631	1
4	1220	721935.780337048631	0
4	1226	724084.312339591906	1
4	1228	724084.312339591906	0
4	1243	735390.870939855044	1
4	1245	735390.870939855044	0
4	1260	743870.489345471038	1
4	1262	743870.489345471038	0
4	1278	764889.9201171818	1
4	1280	764889.9201171818	0
4	1308	773491.575267096879	1
4	1314	773703.619524788703	2
4	1325	774974.32536514223	1
4	1330	775968.585364805565	0
4	1336	777745.710719424039	1
4	1338	777745.710719424039	0
4	1341	778355.953864243679	1
4	1354	779631.857623438463	0
4	1361	783228.010227348182	1
4	1363	783228.010227348182	0
4	1387	805987.667328591855	1
4	1389	805987.667328591855	0
4	1392	806738.757222355214	1
4	1397	806906.029120922476	0
4	1414	829358.439151304268	1
4	1416	829358.439151304268	0
4	1438	836904.704136792735	1
4	1440	836904.704136792735	0
4	1447	839870.2801096258	1
4	1449	839870.2801096258	0
4	1464	850627.637790175041	1
4	1466	850627.637790175041	0
4	1481	858641.798869322429	1
4	1483	858641.798869322429	0
4	1506	865815.105830610273	1
4	1508	865815.105830610273	0
4	1514	867902.79366146276	1
4	1516	867902.79366146276	0
4	1532	884499.209746130375	1
4	1534	884499.209746130375	0
4	1549	893058.124678368747	1
4	1551	893058.124678368747	0
4	1565	899047.502459155522	1
4	1567	899047.502459155522	0
4	1583	909346.572028905525	1
4	1585	909346.572028905525	0
4	1607	915018.008178077229	1
4	1609	915018.008178077229	0
4	1615	916962.672777254531	1
4	1617	916962.672777254531	0
4	1642	939492.645842093119	1
4	1644	939492.645842093119	0
4	1650	941523.855549016493	1
4	1652	941523.855549016493	0
4	1669	963148.63524981837	1
4	1671	963148.63524981837	0
4	1685	968876.67188997994	1
4	1687	968876.67188997994	0
4	1708	982865.606687430909	1
4	1713	983016.580157001826	0
4	1727	985991.83902008192	1
4	1729	985991.83902008192	0
4	1735	989907.296860115382	1
4	1737	989907.296860115382	0
4	1753	1005268.791085446904	1
4	1755	1005268.791085446904	0
4	1778	1010383.631901270983	1
4	1780	1010383.631901270983	0
4	1786	1013124.230387065879	1
4	1788	1013124.230387065879	0
4	1812	1026936.495006991143	1
4	1814	1026936.495006991143	0
4	1820	1027882.057175250962	1
4	1822	1027882.057175250962	0
4	1837	1038059.186208287761	1
4	1839	1038059.186208287761	0
4	1855	1060555.395856288011	1
4	1857	1060555.395856288011	0
4	1872	1068623.741616914652	1
4	1874	1068623.741616914652	0
4	1897	1074460.15108214853	1
4	1899	1074460.15108214853	0
4	1905	1075109.845014042801	1
4	1915	1076289.244604372613	0
4	1922	1080515.547287825753	1
4	1924	1080515.547287825753	0
4	1940	1103954.56376488239	1
4	1942	1103954.56376488239	0
4	1957	1110476.216142568406	1
4	1959	1110476.216142568406	0
4	1975	1125150.637778919455	1
4	1977	1125150.637778919455	0
4	1994	1154796.677258159778	1
4	1996	1154796.677258159778	0
4	2027	1166058.214342510882	1
4	2029	1166058.214342510882	0
4	2040	1167125.610782207946	1
4	2045	1167713.030425954896	0
4	2051	1168896.179893710469	1
4	2053	1168896.179893710469	0
4	2060	1171359.938945704867	1
4	2062	1171359.938945704867	0
4	2077	1185864.862690550125	1
4	2079	1185864.862690550125	0
4	2094	1191666.541345635836	1
4	2096	1191666.541345635836	0
4	2111	1199595.36206141636	1
4	2113	1199595.36206141636	0
4	2129	1219115.915439445525	1
4	2131	1219115.915439445525	0
4	2154	1226849.242529566942	1
4	2156	1226849.242529566942	0
4	2159	1227640.849865056714	1
4	2164	1227800.34561863454	0
4	2179	1238316.826472154347	1
4	2181	1238316.826472154347	0
5	651	387000	1
5	652	396000	0
5	653	405000	0
5	654	414000	0
5	655	423000	0
5	656	432000	0
5	678	441000	2
5	714	450000	2
5	723	459000	0
5	732	468000	1
5	754	477000	1
5	766	486000	1
5	799	495000	2
5	837	504000	2
5	870	513000	2
5	898	522000	2
5	915	531000	1
5	932	540000	1
5	957	549000	1
5	990	558000	2
5	991	567000	0
5	1016	576000	2
5	1030	585000	0
5	1074	594000	3
5	1075	603000	0
5	1084	612000	1
5	1101	621000	1
5	1110	630000	0
5	1116	639000	0
5	1144	648000	2
5	1145	657000	0
5	1146	666000	0
5	1147	675000	0
5	1148	684000	0
5	1149	693000	0
5	1163	702000	1
5	1199	711000	2
5	1213	720000	1
5	1233	729000	1
5	1250	738000	1
5	1267	747000	1
5	1268	756000	0
5	1282	765000	1
5	1316	774000	2
5	1359	783000	3
5	1368	792000	0
5	1369	801000	0
5	1402	810000	2
5	1403	819000	0
5	1412	828000	1
5	1442	837000	2
5	1454	846000	0
5	1476	855000	1
5	1501	864000	2
5	1521	873000	1
5	1530	882000	1
5	1547	891000	1
5	1569	900000	1
5	1581	909000	1
5	1622	918000	2
5	1623	927000	0
5	1632	936000	1
5	1657	945000	1
5	1658	954000	0
5	1667	963000	1
5	1692	972000	1
5	1701	981000	1
5	1739	990000	2
5	1743	999000	0
5	1768	1008000	2
5	1793	1017000	1
5	1810	1026000	2
5	1835	1035000	1
5	1844	1044000	0
5	1845	1053000	0
5	1862	1062000	1
5	1892	1071000	2
5	1920	1080000	2
5	1929	1089000	0
5	1930	1098000	0
5	1952	1107000	1
5	1964	1116000	1
5	1973	1125000	1
5	1982	1134000	0
5	1983	1143000	0
5	1992	1152000	1
5	2001	1161000	0
5	2058	1170000	4
5	2067	1179000	0
5	2089	1188000	1
5	2109	1197000	2
5	2118	1206000	0
5	2124	1215000	0
5	2149	1224000	2
5	2169	1233000	1
5	2186	1242000	1
6	651	387000	1
6	652	396000	0
6	653	405000	0
6	654	414000	0
6	655	423000	0
6	656	432000	0
6	678	441000	0
6	714	450000	3
6	723	459000	1
6	732	468000	0
6	754	477000	1
6	766	486000	1
6	799	495000	2
6	837	504000	2
6	870	513000	2
6	898	522000	2
6	915	531000	1
6	932	540000	1
6	957	549000	2
6	990	558000	2
6	991	567000	0
6	1016	576000	1
6	1030	585000	1
6	1074	594000	3
6	1075	603000	0
6	1084	612000	0
6	1101	621000	1
6	1110	630000	1
6	1116	639000	0
6	1144	648000	2
6	1145	657000	0
6	1146	666000	0
6	1147	675000	0
6	1148	684000	0
6	1149	693000	0
6	1163	702000	0
6	1199	711000	3
6	1213	720000	0
6	1233	729000	2
6	1250	738000	1
6	1267	747000	1
6	1268	756000	0
6	1282	765000	0
6	1316	774000	1
6	1359	783000	4
6	1368	792000	1
6	1369	801000	0
6	1402	810000	2
6	1403	819000	0
6	1412	828000	0
6	1442	837000	1
6	1454	846000	2
6	1476	855000	1
6	1501	864000	1
6	1521	873000	2
6	1530	882000	0
6	1547	891000	1
6	1569	900000	1
6	1581	909000	1
6	1622	918000	3
6	1623	927000	0
6	1632	936000	0
6	1657	945000	2
6	1658	954000	0
6	1667	963000	0
6	1692	972000	2
6	1701	981000	0
6	1739	990000	2
6	1743	999000	1
6	1768	1008000	1
6	1793	1017000	2
6	1810	1026000	0
6	1835	1035000	2
6	1844	1044000	1
6	1845	1053000	0
6	1862	1062000	1
6	1892	1071000	1
6	1920	1080000	2
6	1929	1089000	1
6	1930	1098000	0
6	1952	1107000	1
6	1964	1116000	1
6	1973	1125000	0
6	1982	1134000	1
6	1983	1143000	0
6	1992	1152000	0
6	2001	1161000	1
6	2058	1170000	3
6	2067	1179000	1
6	2089	1188000	1
6	2109	1197000	1
6	2118	1206000	1
6	2124	1215000	0
6	2149	1224000	1
6	2169	1233000	2
6	2186	1242000	1
7	641	380896.478589991358	1
7	643	385006.097002625343	0
7	663	436718.044017681045	1
7	671	440441.30238518266	2
7	673	440645.427593650824	1
7	687	443780.158243400745	0
7	691	443918.043000942573	1
7	703	447393.689470962205	0
7	707	447445.195070466388	1
7	715	450910.07148381307	0
7	730	466179.780084476121	1
7	733	469625.392746314365	0
7	747	472620.114364359153	1
7	749	476213.874131584431	0
7	764	483827.373833244468	1
7	772	487574.086203106091	0
7	776	488298.962477978076	1
7	783	492549.356205488859	0
7	797	494175.447238043683	1
7	806	497779.97101016036	2
7	808	498202.222583279611	1
7	816	501699.108962325476	0
7	833	503270.210198862794	1
7	839	504255.423720134109	2
7	841	507373.714357605046	1
7	846	507856.176354170592	0
7	863	511287.676045830568	1
7	872	513584.768696003929	2
7	874	514796.738147908095	1
7	882	517532.025632799	0
7	896	519127.63344771772	1
7	899	522969.57311267788	0
7	913	527623.290665597273	1
7	916	531734.171834020313	0
7	930	539236.055315539954	1
7	933	542849.185806023345	0
7	947	544579.073783853001	1
7	949	548083.884639527674	0
7	964	551286.106027152251	1
7	972	552960.181909625894	2
7	974	554799.216469511879	1
7	982	555863.591910083729	0
7	998	568697.337331928855	1
7	1000	572063.283710936079	0
7	1014	575446.088451347441	1
7	1017	579381.588142493378	0
7	1032	585382.471940371822	1
7	1040	587090.890482699734	2
7	1048	588408.563290722132	3
7	1050	589372.096358305021	2
7	1058	590400.865598195532	1
7	1066	591839.975893689371	0
7	1082	609342.771380558867	1
7	1085	612592.645492393506	0
7	1099	620757.029968723708	1
7	1102	624761.603451414728	0
7	1118	639704.397471731246	1
7	1126	641693.522633048044	2
7	1128	643693.703850105738	1
7	1136	646135.271813387055	0
7	1156	698112.722811860538	1
7	1158	701361.219812667462	0
7	1173	705032.655935684043	1
7	1181	706264.053256637916	2
7	1183	708292.023647426684	1
7	1191	710132.603135509174	0
7	1209	719308.844240174743	1
7	1215	720234.486555621268	2
7	1217	721935.780337048631	1
7	1225	724084.312339591906	0
7	1240	731765.049739777959	1
7	1242	735390.870939855044	0
7	1257	740510.522974698117	1
7	1259	743870.489345471038	0
7	1275	760875.402534371646	1
7	1277	764889.9201171818	0
7	1295	769741.752215338625	1
7	1300	770650.108101924243	2
7	1307	773491.575267096879	1
7	1313	773703.619524788703	0
7	1318	774066.484396460875	1
7	1323	774974.32536514223	2
7	1335	777745.710719424039	1
7	1340	778355.953864243679	0
7	1352	779631.857623438463	1
7	1360	783228.010227348182	0
7	1379	802476.189727764727	1
7	1384	803383.756098110636	2
7	1386	805987.667328591855	1
7	1391	806738.757222355214	0
7	1410	826041.30476261618	1
7	1413	829358.439151304268	0
7	1427	832551.18690621175	1
7	1435	836283.141503147338	2
7	1437	836904.704136792735	1
7	1446	839870.2801096258	0
7	1461	846982.521815600207	1
7	1463	850627.637790175041	0
7	1478	855106.60018927336	1
7	1480	858641.798869322429	0
7	1494	861920.459750999737	1
7	1503	864312.79901832473	2
7	1505	865815.105830610273	1
7	1513	867902.79366146276	0
7	1528	880829.759968050702	1
7	1531	884499.209746130375	0
7	1545	889359.98048686942	1
7	1548	893058.124678368747	0
7	1562	894841.46522928785	1
7	1564	899047.502459155522	0
7	1579	906223.03775985088	1
7	1582	909346.572028905525	0
7	1596	911253.105661828633	1
7	1604	912942.099896336068	2
7	1606	915018.008178077229	1
7	1614	916962.672777254531	0
7	1630	935918.331402095415	1
7	1639	937825.019367259032	2
7	1641	939492.645842093119	1
7	1649	941523.855549016493	0
7	1665	959853.898744081527	1
7	1668	963148.63524981837	0
7	1682	965256.481448102786	1
7	1684	968876.67188997994	0
7	1699	978862.890525068355	1
7	1707	982865.606687430909	0
7	1711	983016.580157001826	1
7	1724	985607.880428473481	2
7	1726	985991.83902008192	1
7	1734	989907.296860115382	0
7	1750	1001289.541107746257	1
7	1752	1005268.791085446904	0
7	1766	1007070.258286961801	1
7	1775	1009949.477764718359	2
7	1777	1010383.631901270983	1
7	1785	1013124.230387065879	0
7	1803	1023348.85081763685	1
7	1808	1024267.94327557089	2
7	1811	1026936.495006991143	1
7	1819	1027882.057175250962	0
7	1833	1034796.475999976216	1
7	1836	1038059.186208287761	0
7	1852	1057366.532086296912	1
7	1854	1060555.395856288011	0
7	1869	1065172.306901531135	1
7	1871	1068623.741616914652	0
7	1885	1070367.824375902006	1
7	1894	1071195.441065497649	2
7	1896	1074460.15108214853	1
7	1904	1075109.845014042801	0
7	1913	1076289.244604372613	1
7	1921	1080515.547287825753	0
7	1937	1101014.836914215314	1
7	1939	1103954.56376488239	0
7	1954	1107249.192316243695	1
7	1956	1110476.216142568406	0
7	1971	1121709.539084211773	1
7	1974	1125150.637778919455	0
7	1990	1150960.272000734619	1
7	1993	1154796.677258159778	0
7	2011	1162154.321760019939	1
7	2016	1163119.224343551106	2
7	2024	1165867.699097494379	3
7	2026	1166058.214342510882	2
7	2039	1167125.610782207946	1
7	2043	1167713.030425954896	2
7	2050	1168896.179893710469	1
7	2059	1171359.938945704867	0
7	2074	1181749.723061266405	1
7	2076	1185864.862690550125	0
7	2091	1188027.888696583704	1
7	2093	1191666.541345635836	0
7	2107	1195654.648486329638	1
7	2110	1199595.36206141636	0
7	2126	1215107.228281704129	1
7	2128	1219115.915439445525	0
7	2145	1223114.310778048967	1
7	2151	1224056.351589885376	2
7	2153	1226849.242529566942	1
7	2158	1227640.849865056714	0
7	2176	1234437.807369881997	1
7	2178	1238316.826472154347	0
