version 2
run ResponseMeasurement-112-20170110-19:44:04-22385
attr configname ResponseMeasurement
attr datetime 20170110-19:44:04
attr experiment ResponseMeasurement
attr inifile responseStudy.ini
attr iterationvars ""
attr iterationvars2 $repetition=112
attr measurement ""
attr network controltower.SimNetwork
attr processid 22385
attr repetition 112
attr replication #112
attr resultdir results
attr runnumber 112
attr seedset 112
param SimNetwork.a.parkingLot.parkingDelay "truncnormal(60min, 6min)"
param SimNetwork.a.runway.landingTime "truncnormal(15min, 1.5min)"
param SimNetwork.a.runway.takeoffTime "truncnormal(15min, 1.5min)"
param SimNetwork.a.runway.throughputCheckInterval 150min
param SimNetwork.wg.interArrivalTime exponential(150min)

vector 0  SimNetwork.wg  responseTime:vector  ETV
attr source  responseTimeSignal
vector 5  SimNetwork.a.runway  landedThroughput:vector  ETV
attr source  landedThroughputSignal
vector 6  SimNetwork.a.runway  tookoffThroughput:vector  ETV
attr source  tookoffThroughputSignal
vector 2  SimNetwork.a.landingQueue  queueLength:vector  ETV
attr source  queueLengthSignal
vector 1  SimNetwork.a.landingQueue  queueTime:vector  ETV
attr source  queueTimeSignal
vector 7  SimNetwork.a.parkingLot  parkingOccupancy:vector  ETV
attr source  parkingOccupancy
vector 4  SimNetwork.a.takeoffQueue  queueLength:vector  ETV
attr source  queueLengthSignal
vector 3  SimNetwork.a.takeoffQueue  queueTime:vector  ETV
attr source  queueTimeSignal
0	649	380950.477965680515	13953.179640059
0	675	403977.447034483149	28609.481603293
0	684	406392.056944230463	7512.4997642542
0	701	415850.550395995239	14303.713787254
0	731	422240.040771492784	11944.782556262
0	742	424192.783278667514	7461.6438241341
0	758	428589.022605969998	11434.673710277
0	766	431801.179163772488	10359.120676503
0	783	436821.499234131518	10088.790408966
0	811	448909.098011719776	16639.641340705
0	819	449841.281819018746	6359.102428101
0	836	455201.795917578363	11226.443271454
0	858	461410.42506351271	12070.852006352
0	866	465450.802032389146	10950.563250786
0	885	486051.29199064997	26488.929452879
0	901	493895.369086431174	12906.068637767
0	919	504069.054498765941	15766.94658776
0	935	512387.171515337185	14618.460927642
0	955	520197.24914837493	13198.685980841
0	985	524638.773952082282	10052.56914926
0	996	527474.089179681663	8018.7928852999
0	1001	528290.543715801857	6440.3807516865
0	1019	541861.254318142078	19557.664539065
0	1044	550779.97247955983	14223.801228223
0	1052	552365.113642052847	6476.2480522733
0	1069	559804.670720158708	13266.617132464
0	1096	566987.826778420701	12763.257738683
0	1102	567811.335167335269	6624.504240068
0	1127	577517.929149280085	15379.644375947
0	1135	580873.740742095555	8888.4333952986
0	1152	586701.965511722891	10979.187800476
0	1169	594453.504619559883	13062.904142036
0	1194	603615.98005368393	14578.027211045
0	1205	607263.21368591883	8679.7689146416
0	1254	612912.497143328124	11052.486717311
0	1262	613768.614137094103	6650.6817068313
0	1270	614594.969480006202	6448.6399218946
0	1278	615540.734045894799	6312.9544838659
0	1283	616455.627497317831	7202.4643758797
0	1301	633302.097661472748	22370.804505308
0	1320	663613.755512411374	36001.02112096
0	1338	680306.483440052124	22421.918375689
0	1355	685993.271707185261	11195.755739527
0	1380	701166.87166091577	20814.526297585
0	1389	702726.331469450101	6847.1190057851
0	1406	714169.750264583157	18078.258409212
0	1432	730955.449922620599	22294.793959313
0	1440	732907.757685081532	7818.8219845775
0	1457	740884.777573122132	13150.772019018
0	1482	754484.527229934633	19124.648375618
0	1491	758224.107910137085	10063.606748767
0	1516	771611.070465065438	19105.037789321
0	1524	772882.103162048005	6463.7065380947
0	1541	779716.557868085793	13090.056099156
0	1566	790656.832307328585	15874.676303382
0	1578	793580.994112775228	8008.967545784
0	1602	800042.808464445837	11563.243768441
0	1616	803700.363743292211	10236.539251152
0	1624	805152.404332918993	7051.9858797891
0	1658	827008.674842892293	27120.604600464
0	1670	829539.04697147683	8661.3256657617
0	1675	830421.685671729127	6495.6152432946
0	1692	838597.610919078314	14456.712721788
0	1714	891973.323988426757	58712.391913257
0	1734	902697.596003878606	16320.205321187
0	1747	907934.489545186602	10098.282470735
0	1774	934097.344747875175	32000.793384802
0	1783	936833.248116065209	7946.8943984313
0	1806	979970.330371988938	48342.894191137
0	1831	985132.61091819855	11088.69628882
0	1836	986057.996221373916	6897.7064778858
0	1855	1009688.768432132283	28611.225131169
0	1873	1029751.49514161941	25573.66205466
0	1891	1046116.851073518257	22208.203501385
0	1933	1063251.559210176646	21763.858588343
0	1947	1065799.464942662911	7898.168477025
0	1952	1066737.079893940137	6953.0448698634
0	1957	1067701.038474906208	7594.8829761617
0	1976	1092852.752396305468	32287.352401825
0	1993	1100814.320465531369	13326.464656458
0	2010	1108325.223233543065	13270.302233614
0	2026	1115916.444210051684	12635.228681832
0	2044	1129386.939904473828	18216.38871628
0	2071	1158281.116950920497	34413.756676281
0	2080	1161943.034037915913	9850.7992719541
0	2097	1174412.513654642325	18454.344072152
0	2122	1182364.87989323884	13740.101259831
0	2130	1186405.732496221496	10529.682038178
0	2156	1197097.795856957466	16311.599720439
0	2164	1199557.919339894268	7664.4140988317
0	2182	1215561.350979405253	20847.916163812
0	2198	1221720.140270083312	11621.720058986
0	2215	1230855.075993690612	14197.192189573
0	2232	1239178.932239263209	13549.621926101
1	656	398879.557179976232	0
1	664	401546.83660874077	0
1	689	410295.258215230468	0
1	706	416731.139454533442	0
1	714	417776.707521552995	622.35862586003
1	733	422240.040771492784	797.98228422296
1	747	426732.708825165756	0
1	772	432269.456671014982	0
1	789	443482.179390917706	0
1	797	444318.381687310003	343.0290411861
1	821	449841.281819018746	501.70876185845
1	838	455201.795917578363	701.55713597531
1	847	459562.36253777128	0
1	873	480989.300448664196	0
1	890	488302.107911006222	0
1	907	497768.710587694702	0
1	924	506998.563167534358	0
1	941	514586.204802821932	0
1	957	520197.24914837493	741.95285399313
1	965	521850.162964115308	0
1	974	522728.441527212444	424.85174813561
1	1007	536556.171251336975	0
1	1024	545888.865589779563	0
1	1032	546925.299889665464	387.24630197028
1	1057	554224.569039737486	0
1	1074	561186.830927267224	0
1	1082	562138.284773332794	0
1	1107	571985.307346796988	0
1	1115	575722.777711246826	0
1	1140	581390.600477524038	0
1	1157	589037.952842638666	0
1	1174	598583.444771277224	0
1	1182	601860.01042601711	0
1	1207	607263.21368591883	145.28125565603
1	1215	608223.373260118926	77.043702007277
1	1223	609227.779562028914	0
1	1231	610209.945734281997	956.78261284385
1	1239	611024.535115191643	93.241959026432
1	1289	627612.734391451239	0
1	1309	657884.565064363167	0
1	1326	674797.515967658019	0
1	1343	680352.345363330325	0
1	1361	695879.212463665003	0
1	1369	696795.068604638032	703.57674926724
1	1394	708660.655963307981	0
1	1412	725088.935700504039	0
1	1420	727734.005554104449	0
1	1445	735359.878854316753	0
1	1463	748160.501161370429	0
1	1471	752506.032675744273	0
1	1497	766418.396623953309	0
1	1505	767338.630824180466	712.12905525054
1	1530	774782.156003946584	0
1	1547	785572.02656699118	0
1	1555	788479.564696004603	0
1	1580	793580.994112775228	117.16962063527
1	1588	798100.418453129929	0
1	1604	800042.808464445837	154.73822201723
1	1631	820877.721305715131	0
1	1639	823926.070428434487	0
1	1647	824960.88025957152	819.98206228082
1	1680	833260.932075169835	0
1	1702	886377.390682691131	0
1	1719	897836.207074451205	0
1	1736	902697.596003878606	601.04464080591
1	1755	928886.353717633896	0
1	1763	931627.436180851565	0
1	1792	974043.914629378189	0
1	1808	979970.330371988938	810.04062850078
1	1817	981077.543300963314	0
1	1843	1004177.833086959306	0
1	1861	1023908.647572133182	0
1	1879	1041487.700621833742	0
1	1897	1057901.29646563796	0
1	1905	1059784.035024076733	0
1	1916	1060718.785960280722	612.63046153624
1	1921	1061536.579072363881	971.17907788349
1	1964	1087487.85580907297	0
1	1981	1095054.920999929332	0
1	1998	1103281.215528219886	0
1	2015	1111170.551188194226	0
1	2032	1123867.360274639836	0
1	2052	1152092.234765961812	0
1	2060	1155958.169582490207	0
1	2085	1168624.778633407659	0
1	2102	1175876.050458043257	0
1	2111	1180786.196136518461	0
1	2136	1191893.505241062587	0
1	2144	1194713.434815593262	0
1	2170	1210098.42021109683	0
1	2187	1216657.883804117988	0
1	2204	1225629.310313162364	0
1	2221	1233423.400820581972	0
1	2237	1239977.63949210148	0
2	654	398879.557179976232	1
2	656	398879.557179976232	0
2	662	401546.83660874077	1
2	664	401546.83660874077	0
2	687	410295.258215230468	1
2	689	410295.258215230468	0
2	704	416731.139454533442	1
2	706	416731.139454533442	0
2	709	417154.34889569296	1
2	714	417776.707521552995	0
2	725	421442.05848726982	1
2	733	422240.040771492784	0
2	745	426732.708825165756	1
2	747	426732.708825165756	0
2	770	432269.456671014982	1
2	772	432269.456671014982	0
2	787	443482.179390917706	1
2	789	443482.179390917706	0
2	792	443975.352646123908	1
2	797	444318.381687310003	0
2	816	449339.573057160296	1
2	821	449841.281819018746	0
2	833	454500.238781603048	1
2	838	455201.795917578363	0
2	845	459562.36253777128	1
2	847	459562.36253777128	0
2	871	480989.300448664196	1
2	873	480989.300448664196	0
2	888	488302.107911006222	1
2	890	488302.107911006222	0
2	905	497768.710587694702	1
2	907	497768.710587694702	0
2	922	506998.563167534358	1
2	924	506998.563167534358	0
2	939	514586.204802821932	1
2	941	514586.204802821932	0
2	952	519455.2962943818	1
2	957	520197.24914837493	0
2	963	521850.162964115308	1
2	965	521850.162964115308	0
2	969	522303.589779076835	1
2	974	522728.441527212444	0
2	1005	536556.171251336975	1
2	1007	536556.171251336975	0
2	1022	545888.865589779563	1
2	1024	545888.865589779563	0
2	1027	546538.053587695188	1
2	1032	546925.299889665464	0
2	1055	554224.569039737486	1
2	1057	554224.569039737486	0
2	1072	561186.830927267224	1
2	1074	561186.830927267224	0
2	1080	562138.284773332794	1
2	1082	562138.284773332794	0
2	1105	571985.307346796988	1
2	1107	571985.307346796988	0
2	1113	575722.777711246826	1
2	1115	575722.777711246826	0
2	1138	581390.600477524038	1
2	1140	581390.600477524038	0
2	1155	589037.952842638666	1
2	1157	589037.952842638666	0
2	1172	598583.444771277224	1
2	1174	598583.444771277224	0
2	1180	601860.01042601711	1
2	1182	601860.01042601711	0
2	1202	607117.932430262796	1
2	1207	607263.21368591883	0
2	1210	608146.329558111649	1
2	1215	608223.373260118926	0
2	1221	609227.779562028914	1
2	1223	609227.779562028914	0
2	1226	609253.163121438144	1
2	1231	610209.945734281997	0
2	1234	610931.293156165211	1
2	1239	611024.535115191643	0
2	1287	627612.734391451239	1
2	1289	627612.734391451239	0
2	1307	657884.565064363167	1
2	1309	657884.565064363167	0
2	1324	674797.515967658019	1
2	1326	674797.515967658019	0
2	1341	680352.345363330325	1
2	1343	680352.345363330325	0
2	1359	695879.212463665003	1
2	1361	695879.212463665003	0
2	1364	696091.491855370793	1
2	1369	696795.068604638032	0
2	1392	708660.655963307981	1
2	1394	708660.655963307981	0
2	1410	725088.935700504039	1
2	1412	725088.935700504039	0
2	1418	727734.005554104449	1
2	1420	727734.005554104449	0
2	1443	735359.878854316753	1
2	1445	735359.878854316753	0
2	1461	748160.501161370429	1
2	1463	748160.501161370429	0
2	1469	752506.032675744273	1
2	1471	752506.032675744273	0
2	1495	766418.396623953309	1
2	1497	766418.396623953309	0
2	1500	766626.501768929924	1
2	1505	767338.630824180466	0
2	1528	774782.156003946584	1
2	1530	774782.156003946584	0
2	1545	785572.02656699118	1
2	1547	785572.02656699118	0
2	1553	788479.564696004603	1
2	1555	788479.564696004603	0
2	1575	793463.824492139953	1
2	1580	793580.994112775228	0
2	1586	798100.418453129929	1
2	1588	798100.418453129929	0
2	1599	799888.070242428611	1
2	1604	800042.808464445837	0
2	1629	820877.721305715131	1
2	1631	820877.721305715131	0
2	1637	823926.070428434487	1
2	1639	823926.070428434487	0
2	1642	824140.898197290703	1
2	1647	824960.88025957152	0
2	1678	833260.932075169835	1
2	1680	833260.932075169835	0
2	1700	886377.390682691131	1
2	1702	886377.390682691131	0
2	1717	897836.207074451205	1
2	1719	897836.207074451205	0
2	1731	902096.5513630727	1
2	1736	902697.596003878606	0
2	1753	928886.353717633896	1
2	1755	928886.353717633896	0
2	1761	931627.436180851565	1
2	1763	931627.436180851565	0
2	1790	974043.914629378189	1
2	1792	974043.914629378189	0
2	1803	979160.289743488161	1
2	1808	979970.330371988938	0
2	1815	981077.543300963314	1
2	1817	981077.543300963314	0
2	1841	1004177.833086959306	1
2	1843	1004177.833086959306	0
2	1859	1023908.647572133182	1
2	1861	1023908.647572133182	0
2	1877	1041487.700621833742	1
2	1879	1041487.700621833742	0
2	1895	1057901.29646563796	1
2	1897	1057901.29646563796	0
2	1903	1059784.035024076733	1
2	1905	1059784.035024076733	0
2	1908	1060106.155498744482	1
2	1911	1060565.399994480386	2
2	1916	1060718.785960280722	1
2	1921	1061536.579072363881	0
2	1962	1087487.85580907297	1
2	1964	1087487.85580907297	0
2	1979	1095054.920999929332	1
2	1981	1095054.920999929332	0
2	1996	1103281.215528219886	1
2	1998	1103281.215528219886	0
2	2013	1111170.551188194226	1
2	2015	1111170.551188194226	0
2	2030	1123867.360274639836	1
2	2032	1123867.360274639836	0
2	2050	1152092.234765961812	1
2	2052	1152092.234765961812	0
2	2058	1155958.169582490207	1
2	2060	1155958.169582490207	0
2	2083	1168624.778633407659	1
2	2085	1168624.778633407659	0
2	2100	1175876.050458043257	1
2	2102	1175876.050458043257	0
2	2109	1180786.196136518461	1
2	2111	1180786.196136518461	0
2	2134	1191893.505241062587	1
2	2136	1191893.505241062587	0
2	2142	1194713.434815593262	1
2	2144	1194713.434815593262	0
2	2168	1210098.42021109683	1
2	2170	1210098.42021109683	0
2	2185	1216657.883804117988	1
2	2187	1216657.883804117988	0
2	2202	1225629.310313162364	1
2	2204	1225629.310313162364	0
2	2219	1233423.400820581972	1
2	2221	1233423.400820581972	0
2	2235	1239977.63949210148	1
2	2237	1239977.63949210148	0
3	672	403056.296495053763	0
3	681	405533.114213699368	0
3	698	414909.26488799266	0
3	722	421177.622579662334	0
3	739	423238.331443977261	1430.9051249906
3	755	427732.179341175958	0
3	763	430805.689360896883	0
3	780	435935.533966599509	0
3	805	448067.720479961862	0
3	813	448909.098011719776	411.34638236861
3	830	454228.668362866017	0
3	855	460521.459820444825	698.41288210163
3	863	464580.761409022905	0
3	881	485187.690340199973	0
3	898	493001.362619877084	0
3	915	503063.797284835237	0
3	932	511501.324602145587	0
3	949	519263.807007659026	0
3	982	523774.111868914748	0
3	990	526674.617477416464	0
3	998	527474.089179681663	148.82860501656
3	1016	541039.719092015297	0
3	1041	549775.64176234523	0
3	1049	551504.986088241501	0
3	1066	558904.977309062309	0
3	1090	565853.56161741646	0
3	1098	566987.826778420701	474.67005438681
3	1124	576584.347384848194	0
3	1132	579989.35833473894	0
3	1149	585970.669703229644	0
3	1165	593574.483374295977	0
3	1190	602914.624203811071	0
3	1199	606396.678973575858	0
3	1247	611932.609521919663	0
3	1256	612912.497143328124	216.68102709497
3	1264	613768.614137094103	432.57793380212
3	1272	614594.969480006202	531.97313204998
3	1280	615540.734045894799	884.18609332288
3	1298	632241.642161805512	0
3	1317	662669.059933835149	0
3	1335	679358.204064904678	0
3	1352	685104.647441107002	0
3	1377	700291.768409809979	0
3	1385	701909.804400650151	0
3	1403	713232.670226538357	0
3	1429	730027.005973824097	0
3	1437	731967.17244404738	0
3	1454	739997.923036722559	0
3	1479	753431.537233943131	548.50088176033
3	1488	757255.627159554854	0
3	1513	770631.336161786545	0
3	1521	771849.466961751996	0
3	1538	778857.308195322429	0
3	1563	789795.823804487161	0
3	1572	792768.432844167841	0
3	1596	799119.95270761745	904.88730860649
3	1613	802726.702898317289	0
3	1621	804331.632114148174	0
3	1655	826131.100404927216	0
3	1664	828569.607228999012	0
3	1672	829539.04697147683	87.320660327343
3	1689	837788.229677001712	0
3	1711	891066.612496552852	0
3	1728	901830.383694847727	0
3	1744	907004.300871153797	0
3	1771	933124.002045691669	0
3	1779	935849.479124074083	0
3	1800	978976.924369601983	0
3	1825	984246.229192574613	0
3	1833	985132.61091819855	173.30134816895
3	1852	1008868.799604331065	0
3	1870	1028805.801141882386	0
3	1888	1045204.689397032346	0
3	1930	1062406.159291032099	203.68564453851
3	1938	1064737.797662140844	0
3	1949	1065799.464942662911	964.0388382604
3	1954	1066737.079893940137	998.19612645245
3	1973	1091880.675655436334	0
3	1990	1099944.557731118301	0
3	2007	1107422.410229583718	0
3	2023	1114916.312059181698	0
3	2041	1128523.351574552674	0
3	2068	1157421.793917666231	0
3	2077	1161119.980289659461	0
3	2094	1173498.11992778148	0
3	2119	1181627.996200549111	753.96224903828
3	2127	1185607.947660374163	0
3	2152	1196282.874112586237	0
3	2161	1198762.803318627711	0
3	2178	1214685.445489161954	0
3	2195	1220826.268728659382	0
3	2212	1230005.876783328119	0
3	2229	1238236.921190337807	0
3	2246	1243890.470759445483	0
4	670	403056.296495053763	1
4	672	403056.296495053763	0
4	679	405533.114213699368	1
4	681	405533.114213699368	0
4	696	414909.26488799266	1
4	698	414909.26488799266	0
4	720	421177.622579662334	1
4	722	421177.622579662334	0
4	728	421807.426318986678	1
4	739	423238.331443977261	0
4	753	427732.179341175958	1
4	755	427732.179341175958	0
4	761	430805.689360896883	1
4	763	430805.689360896883	0
4	778	435935.533966599509	1
4	780	435935.533966599509	0
4	803	448067.720479961862	1
4	805	448067.720479961862	0
4	808	448497.751629351165	1
4	813	448909.098011719776	0
4	828	454228.668362866017	1
4	830	454228.668362866017	0
4	850	459823.046938343195	1
4	855	460521.459820444825	0
4	861	464580.761409022905	1
4	863	464580.761409022905	0
4	879	485187.690340199973	1
4	881	485187.690340199973	0
4	896	493001.362619877084	1
4	898	493001.362619877084	0
4	913	503063.797284835237	1
4	915	503063.797284835237	0
4	930	511501.324602145587	1
4	932	511501.324602145587	0
4	947	519263.807007659026	1
4	949	519263.807007659026	0
4	980	523774.111868914748	1
4	982	523774.111868914748	0
4	988	526674.617477416464	1
4	990	526674.617477416464	0
4	993	527325.260574665108	1
4	998	527474.089179681663	0
4	1014	541039.719092015297	1
4	1016	541039.719092015297	0
4	1039	549775.64176234523	1
4	1041	549775.64176234523	0
4	1047	551504.986088241501	1
4	1049	551504.986088241501	0
4	1064	558904.977309062309	1
4	1066	558904.977309062309	0
4	1088	565853.56161741646	1
4	1090	565853.56161741646	0
4	1093	566513.156724033891	1
4	1098	566987.826778420701	0
4	1122	576584.347384848194	1
4	1124	576584.347384848194	0
4	1130	579989.35833473894	1
4	1132	579989.35833473894	0
4	1147	585970.669703229644	1
4	1149	585970.669703229644	0
4	1163	593574.483374295977	1
4	1165	593574.483374295977	0
4	1188	602914.624203811071	1
4	1190	602914.624203811071	0
4	1197	606396.678973575858	1
4	1199	606396.678973575858	0
4	1245	611932.609521919663	1
4	1247	611932.609521919663	0
4	1251	612695.816116233154	1
4	1256	612912.497143328124	0
4	1259	613336.036203291983	1
4	1264	613768.614137094103	0
4	1267	614062.996347956218	1
4	1272	614594.969480006202	0
4	1275	614656.547952571922	1
4	1280	615540.734045894799	0
4	1296	632241.642161805512	1
4	1298	632241.642161805512	0
4	1315	662669.059933835149	1
4	1317	662669.059933835149	0
4	1333	679358.204064904678	1
4	1335	679358.204064904678	0
4	1350	685104.647441107002	1
4	1352	685104.647441107002	0
4	1375	700291.768409809979	1
4	1377	700291.768409809979	0
4	1383	701909.804400650151	1
4	1385	701909.804400650151	0
4	1401	713232.670226538357	1
4	1403	713232.670226538357	0
4	1427	730027.005973824097	1
4	1429	730027.005973824097	0
4	1435	731967.17244404738	1
4	1437	731967.17244404738	0
4	1452	739997.923036722559	1
4	1454	739997.923036722559	0
4	1474	752883.036352182799	1
4	1479	753431.537233943131	0
4	1486	757255.627159554854	1
4	1488	757255.627159554854	0
4	1511	770631.336161786545	1
4	1513	770631.336161786545	0
4	1519	771849.466961751996	1
4	1521	771849.466961751996	0
4	1536	778857.308195322429	1
4	1538	778857.308195322429	0
4	1561	789795.823804487161	1
4	1563	789795.823804487161	0
4	1570	792768.432844167841	1
4	1572	792768.432844167841	0
4	1591	798215.065399010959	1
4	1596	799119.95270761745	0
4	1611	802726.702898317289	1
4	1613	802726.702898317289	0
4	1619	804331.632114148174	1
4	1621	804331.632114148174	0
4	1653	826131.100404927216	1
4	1655	826131.100404927216	0
4	1662	828569.607228999012	1
4	1664	828569.607228999012	0
4	1667	829451.726311149487	1
4	1672	829539.04697147683	0
4	1687	837788.229677001712	1
4	1689	837788.229677001712	0
4	1709	891066.612496552852	1
4	1711	891066.612496552852	0
4	1726	901830.383694847727	1
4	1728	901830.383694847727	0
4	1742	907004.300871153797	1
4	1744	907004.300871153797	0
4	1769	933124.002045691669	1
4	1771	933124.002045691669	0
4	1777	935849.479124074083	1
4	1779	935849.479124074083	0
4	1798	978976.924369601983	1
4	1800	978976.924369601983	0
4	1823	984246.229192574613	1
4	1825	984246.229192574613	0
4	1828	984959.309570029604	1
4	1833	985132.61091819855	0
4	1850	1008868.799604331065	1
4	1852	1008868.799604331065	0
4	1868	1028805.801141882386	1
4	1870	1028805.801141882386	0
4	1886	1045204.689397032346	1
4	1888	1045204.689397032346	0
4	1925	1062202.473646493591	1
4	1930	1062406.159291032099	0
4	1936	1064737.797662140844	1
4	1938	1064737.797662140844	0
4	1941	1064835.426104402506	1
4	1944	1065738.88376748769	2
4	1949	1065799.464942662911	1
4	1954	1066737.079893940137	0
4	1971	1091880.675655436334	1
4	1973	1091880.675655436334	0
4	1988	1099944.557731118301	1
4	1990	1099944.557731118301	0
4	2005	1107422.410229583718	1
4	2007	1107422.410229583718	0
4	2021	1114916.312059181698	1
4	2023	1114916.312059181698	0
4	2039	1128523.351574552674	1
4	2041	1128523.351574552674	0
4	2066	1157421.793917666231	1
4	2068	1157421.793917666231	0
4	2075	1161119.980289659461	1
4	2077	1161119.980289659461	0
4	2092	1173498.11992778148	1
4	2094	1173498.11992778148	0
4	2114	1180874.033951510833	1
4	2119	1181627.996200549111	0
4	2125	1185607.947660374163	1
4	2127	1185607.947660374163	0
4	2150	1196282.874112586237	1
4	2152	1196282.874112586237	0
4	2159	1198762.803318627711	1
4	2161	1198762.803318627711	0
4	2176	1214685.445489161954	1
4	2178	1214685.445489161954	0
4	2193	1220826.268728659382	1
4	2195	1220826.268728659382	0
4	2210	1230005.876783328119	1
4	2212	1230005.876783328119	0
4	2227	1238236.921190337807	1
4	2229	1238236.921190337807	0
4	2244	1243890.470759445483	1
4	2246	1243890.470759445483	0
5	651	387000	0
5	652	396000	0
5	677	405000	2
5	694	414000	1
5	735	423000	2
5	768	432000	2
5	785	441000	1
5	823	450000	2
5	843	459000	2
5	868	468000	1
5	869	477000	0
5	883	486000	1
5	903	495000	1
5	917	504000	1
5	937	513000	1
5	967	522000	2
5	1003	531000	2
5	1012	540000	1
5	1037	549000	2
5	1062	558000	1
5	1100	567000	2
5	1117	576000	1
5	1145	585000	2
5	1167	594000	1
5	1192	603000	2
5	1249	612000	5
5	1285	621000	0
5	1294	630000	1
5	1303	639000	0
5	1304	648000	0
5	1305	657000	0
5	1322	666000	1
5	1328	675000	0
5	1348	684000	2
5	1357	693000	0
5	1387	702000	2
5	1399	711000	1
5	1408	720000	0
5	1425	729000	2
5	1450	738000	1
5	1459	747000	0
5	1484	756000	2
5	1493	765000	0
5	1526	774000	2
5	1543	783000	1
5	1568	792000	2
5	1609	801000	3
5	1626	810000	0
5	1627	819000	0
5	1660	828000	3
5	1685	837000	1
5	1694	846000	0
5	1695	855000	0
5	1696	864000	0
5	1697	873000	0
5	1698	882000	0
5	1707	891000	1
5	1724	900000	1
5	1749	909000	1
5	1750	918000	0
5	1751	927000	0
5	1781	936000	2
5	1785	945000	0
5	1786	954000	0
5	1787	963000	0
5	1788	972000	0
5	1813	981000	2
5	1838	990000	1
5	1839	999000	0
5	1848	1008000	1
5	1857	1017000	0
5	1866	1026000	1
5	1875	1035000	0
5	1884	1044000	1
5	1893	1053000	0
5	1923	1062000	3
5	1959	1071000	1
5	1960	1080000	0
5	1969	1089000	1
5	1986	1098000	1
5	2003	1107000	1
5	2028	1116000	1
5	2037	1125000	1
5	2046	1134000	0
5	2047	1143000	0
5	2048	1152000	0
5	2073	1161000	2
5	2090	1170000	1
5	2107	1179000	1
5	2132	1188000	1
5	2154	1197000	2
5	2166	1206000	0
5	2180	1215000	1
5	2200	1224000	1
5	2217	1233000	1
5	2242	1242000	2
6	651	387000	1
6	652	396000	0
6	677	405000	1
6	694	414000	1
6	735	423000	2
6	768	432000	3
6	785	441000	1
6	823	450000	2
6	843	459000	1
6	868	468000	2
6	869	477000	0
6	883	486000	0
6	903	495000	2
6	917	504000	0
6	937	513000	2
6	967	522000	1
6	1003	531000	3
6	1012	540000	0
6	1037	549000	1
6	1062	558000	2
6	1100	567000	2
6	1117	576000	1
6	1145	585000	2
6	1167	594000	1
6	1192	603000	1
6	1249	612000	2
6	1285	621000	5
6	1294	630000	0
6	1303	639000	1
6	1304	648000	0
6	1305	657000	0
6	1322	666000	1
6	1328	675000	0
6	1348	684000	1
6	1357	693000	1
6	1387	702000	1
6	1399	711000	1
6	1408	720000	1
6	1425	729000	0
6	1450	738000	2
6	1459	747000	1
6	1484	756000	1
6	1493	765000	1
6	1526	774000	2
6	1543	783000	1
6	1568	792000	1
6	1609	801000	2
6	1626	810000	2
6	1627	819000	0
6	1660	828000	1
6	1685	837000	2
6	1694	846000	1
6	1695	855000	0
6	1696	864000	0
6	1697	873000	0
6	1698	882000	0
6	1707	891000	0
6	1724	900000	1
6	1749	909000	2
6	1750	918000	0
6	1751	927000	0
6	1781	936000	1
6	1785	945000	1
6	1786	954000	0
6	1787	963000	0
6	1788	972000	0
6	1813	981000	1
6	1838	990000	2
6	1839	999000	0
6	1848	1008000	0
6	1857	1017000	1
6	1866	1026000	0
6	1875	1035000	1
6	1884	1044000	0
6	1893	1053000	1
6	1923	1062000	0
6	1959	1071000	4
6	1960	1080000	0
6	1969	1089000	0
6	1986	1098000	1
6	2003	1107000	1
6	2028	1116000	2
6	2037	1125000	0
6	2046	1134000	1
6	2047	1143000	0
6	2048	1152000	0
6	2073	1161000	1
6	2090	1170000	1
6	2107	1179000	1
6	2132	1188000	2
6	2154	1197000	0
6	2166	1206000	2
6	2180	1215000	0
6	2200	1224000	2
6	2217	1233000	1
6	2242	1242000	1
7	659	399553.427384832542	1
7	667	402341.605058094422	2
7	669	403056.296495053763	1
7	678	405533.114213699368	0
7	692	411231.181078579139	1
7	695	414909.26488799266	0
7	712	417776.707521552995	1
7	717	418700.632216729517	2
7	719	421177.622579662334	1
7	727	421807.426318986678	0
7	737	423238.331443977261	1
7	750	427616.682326754492	2
7	752	427732.179341175958	1
7	760	430805.689360896883	0
7	775	433194.672522416662	1
7	777	435935.533966599509	0
7	795	444318.381687310003	1
7	800	445167.142284599817	2
7	802	448067.720479961862	1
7	807	448497.751629351165	0
7	825	450670.757827022231	1
7	827	454228.668362866017	0
7	841	456227.888847024274	1
7	849	459823.046938343195	0
7	853	460521.459820444825	1
7	860	464580.761409022905	0
7	876	481907.061206328746	1
7	878	485187.690340199973	0
7	893	489293.908823010535	1
7	895	493001.362619877084	0
7	910	498874.567911192271	1
7	912	503063.797284835237	0
7	927	507882.854023936046	1
7	929	511501.324602145587	0
7	944	515558.461946631782	1
7	946	519263.807007659026	0
7	960	520960.897116098024	1
7	972	522728.441527212444	2
7	977	523588.272431920383	3
7	979	523774.111868914748	2
7	987	526674.617477416464	1
7	992	527325.260574665108	0
7	1010	537415.094510579732	1
7	1013	541039.719092015297	0
7	1030	546925.299889665464	1
7	1035	547792.034268729052	2
7	1038	549775.64176234523	1
7	1046	551504.986088241501	0
7	1060	555018.9703652888	1
7	1063	558904.977309062309	0
7	1077	561984.88044716126	1
7	1085	563138.315525277865	2
7	1087	565853.56161741646	1
7	1092	566513.156724033891	0
7	1110	572829.744522007249	1
7	1119	576551.519533960509	2
7	1121	576584.347384848194	1
7	1129	579989.35833473894	0
7	1143	582376.188846339162	1
7	1146	585970.669703229644	0
7	1160	589880.59954253015	1
7	1162	593574.483374295977	0
7	1177	599455.082382179281	1
7	1185	602731.22386551485	2
7	1187	602914.624203811071	1
7	1196	606396.678973575858	0
7	1213	608223.373260118926	1
7	1218	609158.915623592692	2
7	1229	610209.945734281997	3
7	1237	611024.535115191643	4
7	1242	611843.791456577174	5
7	1244	611932.609521919663	4
7	1250	612695.816116233154	3
7	1258	613336.036203291983	2
7	1266	614062.996347956218	1
7	1274	614656.547952571922	0
7	1292	628594.72716335257	1
7	1295	632241.642161805512	0
7	1312	658780.59471346131	1
7	1314	662669.059933835149	0
7	1330	675569.15921237685	1
7	1332	679358.204064904678	0
7	1346	681417.524231890119	1
7	1349	685104.647441107002	0
7	1367	696795.068604638032	1
7	1372	697735.25795726551	2
7	1374	700291.768409809979	1
7	1382	701909.804400650151	0
7	1397	709499.938602745919	1
7	1400	713232.670226538357	0
7	1415	726077.33730925314	1
7	1423	728593.073889959296	2
7	1426	730027.005973824097	1
7	1434	731967.17244404738	0
7	1448	736215.422065223637	1
7	1451	739997.923036722559	0
7	1466	749090.923793777626	1
7	1473	752883.036352182799	0
7	1477	753431.537233943131	1
7	1485	757255.627159554854	0
7	1503	767338.630824180466	1
7	1508	768253.549926354827	2
7	1510	770631.336161786545	1
7	1518	771849.466961751996	0
7	1533	775860.389972731297	1
7	1535	778857.308195322429	0
7	1550	786454.665387062865	1
7	1558	789286.241397796838	2
7	1560	789795.823804487161	1
7	1569	792768.432844167841	0
7	1583	794526.371620653588	1
7	1590	798215.065399010959	0
7	1594	799119.95270761745	1
7	1607	800949.969371774606	2
7	1610	802726.702898317289	1
7	1618	804331.632114148174	0
7	1634	821818.439459330478	1
7	1645	824960.88025957152	2
7	1650	825986.001734203328	3
7	1652	826131.100404927216	2
7	1661	828569.607228999012	1
7	1666	829451.726311149487	0
7	1683	834218.68011399019	1
7	1686	837788.229677001712	0
7	1705	887349.364409479085	1
7	1708	891066.612496552852	0
7	1722	898658.42301669289	1
7	1725	901830.383694847727	0
7	1739	903649.943012579029	1
7	1741	907004.300871153797	0
7	1758	929844.270963426526	1
7	1766	932426.961765779889	2
7	1768	933124.002045691669	1
7	1776	935849.479124074083	0
7	1795	974915.815736916119	1
7	1797	978976.924369601983	0
7	1811	980979.212798785098	1
7	1820	982069.326331016471	2
7	1822	984246.229192574613	1
7	1827	984959.309570029604	0
7	1846	1005016.161150820447	1
7	1849	1008868.799604331065	0
7	1864	1024782.413074181095	1
7	1867	1028805.801141882386	0
7	1882	1042360.977540315665	1
7	1885	1045204.689397032346	0
7	1900	1058874.82519456033	1
7	1914	1060718.785960280722	2
7	1919	1061536.579072363881	3
7	1924	1062202.473646493591	2
7	1928	1062406.159291032099	3
7	1935	1064737.797662140844	2
7	1940	1064835.426104402506	1
7	1943	1065738.88376748769	0
7	1967	1088427.392619226469	1
7	1970	1091880.675655436334	0
7	1984	1095983.924786115381	1
7	1987	1099944.557731118301	0
7	2001	1104111.507253419943	1
7	2004	1107422.410229583718	0
7	2018	1112058.626777993098	1
7	2020	1114916.312059181698	0
7	2035	1124621.042286095515	1
7	2038	1128523.351574552674	0
7	2055	1153143.785369526752	1
7	2063	1156895.124356366106	2
7	2065	1157421.793917666231	1
7	2074	1161119.980289659461	0
7	2088	1169479.573561007232	1
7	2091	1173498.11992778148	0
7	2105	1176650.011902147294	1
7	2113	1180874.033951510833	0
7	2117	1181627.996200549111	1
7	2124	1185607.947660374163	0
7	2139	1192719.467442605817	1
7	2147	1195618.297713734405	2
7	2149	1196282.874112586237	1
7	2158	1198762.803318627711	0
7	2173	1211062.363242929803	1
7	2175	1214685.445489161954	0
7	2190	1217458.964133399318	1
7	2192	1220826.268728659382	0
7	2207	1226604.323335696434	1
7	2209	1230005.876783328119	0
7	2224	1234251.094630405468	1
7	2226	1238236.921190337807	0
7	2240	1240829.50507912171	1
7	2243	1243890.470759445483	0
