version 2
run WarmupMeasurement-2-20170109-15:30:31-1744
attr configname WarmupMeasurement
attr datetime 20170109-15:30:31
attr experiment WarmupMeasurement
attr inifile responseStudy.ini
attr iterationvars ""
attr iterationvars2 $repetition=2
attr measurement ""
attr network controltower.SimNetwork
attr processid 1744
attr repetition 2
attr replication #2
attr resultdir results
attr runnumber 2
attr seedset 2
param SimNetwork.a.parkingLot.parkingDelay "truncnormal(60min, 6min)"
param SimNetwork.a.runway.landingTime "truncnormal(15min, 1.5min)"
param SimNetwork.a.runway.takeoffTime "truncnormal(15min, 1.5min)"
param SimNetwork.a.runway.throughputCheckInterval 150min
param SimNetwork.wg.interArrivalTime exponential(150min)

vector 2  SimNetwork.a.landingQueue  queueLength:vector  ETV
attr source  queueLengthSignal
vector 1  SimNetwork.a.landingQueue  queueTime:vector  ETV
attr source  queueTimeSignal
vector 7  SimNetwork.a.parkingLot  parkingOccupancy:vector  ETV
attr source  parkingOccupancy
vector 5  SimNetwork.a.runway  landedThroughput:vector  ETV
attr source  landedThroughputSignal
vector 6  SimNetwork.a.runway  tookoffThroughput:vector  ETV
attr source  tookoffThroughputSignal
vector 4  SimNetwork.a.takeoffQueue  queueLength:vector  ETV
attr source  queueLengthSignal
vector 3  SimNetwork.a.takeoffQueue  queueTime:vector  ETV
attr source  queueTimeSignal
vector 0  SimNetwork.wg  responseTime:vector  ETV
attr source  responseTimeSignal
0	24	11018.057252580321	11018.05725258
0	32	12050.161602265154	6895.9336956204
0	56	17168.170631967117	10171.931766835
0	65	18936.193365450091	6796.4516372072
0	81	26652.067832812727	13362.331548239
0	99	38041.069438890153	16016.182831044
0	133	56469.169565684744	22995.488130696
0	149	58652.338415863726	8308.5585003972
0	157	59643.671519504798	6244.4533186197
0	165	61948.430709596876	7325.1856560731
0	182	68495.23033307437	11614.633091131
0	199	76292.051635322974	13735.042745545
0	216	87336.19302805272	16234.518286605
0	237	132054.402965488417	50094.37433116
0	254	137755.340925872732	10789.64851228
0	271	152099.568872525317	19967.634907401
0	297	170591.173359827254	24054.918510514
0	306	173778.610207774011	10117.100152811
0	325	205625.12371490694	36880.230006515
0	353	234679.725904145251	34200.010833894
0	361	235737.677032798866	6217.2120213171
0	378	246620.18225229131	16678.920895144
0	404	263033.460746467097	21913.474240068
0	412	266381.429020375649	9206.4154178192
0	429	274078.270730764565	12946.190638379
0	447	296676.43856380922	27679.135345935
0	467	329329.443158115382	38201.560831956
0	487	338083.973657462912	14478.546214157
0	501	343061.868980221222	10084.493832872
0	517	350170.437467003631	12340.754972671
0	543	368964.099026300758	24298.055547889
0	552	372179.359604835745	9226.0204093108
0	569	381118.922226844468	14027.134207462
0	589	414160.682416620553	38998.635684346
0	614	423500.572685181569	14136.851112717
0	638	428119.721100693768	9962.9539984651
0	649	430054.850792923576	8409.6525798313
1	4	5154.227906644704	0
1	12	6996.23886513237	0
1	37	12139.741728242892	0
1	45	13289.736284574198	0
1	70	22024.886607846016	0
1	87	33473.681434989168	0
1	105	50343.779915466512	0
1	113	53399.218200885049	0
1	122	54623.245053523733	0
1	138	56880.597241943791	0
1	170	62557.008889777959	0
1	187	71101.674741447461	0
1	205	81960.028634328111	0
1	226	126965.692413593175	0
1	242	132131.933965124727	0
1	260	146536.254849313365	0
1	278	163661.510054963077	0
1	286	168744.893708391877	0
1	314	200479.715070250805	0
1	333	229520.465011481769	0
1	341	230628.340581972965	687.07922482591
1	366	241119.986506398966	0
1	384	257175.013602556442	0
1	393	261132.080092385311	0
1	417	268997.303217874219	0
1	436	291127.882326159799	0
1	455	323605.427443306403	0
1	472	332977.375147349291	0
1	489	338083.973657462912	254.29116313065
1	506	344666.043478411713	0
1	524	362953.339195524937	0
1	532	367091.788019382475	0
1	557	375162.046732274149	0
1	577	409363.721572464749	0
1	594	418156.767102228687	0
1	602	421645.198213092246	0
1	619	424184.210649082098	0
1	627	426337.294010771891	0
1	651	430054.850792923576	569.3395795506
2	2	5154.227906644704	1
2	4	5154.227906644704	0
2	10	6996.23886513237	1
2	12	6996.23886513237	0
2	35	12139.741728242892	1
2	37	12139.741728242892	0
2	43	13289.736284574198	1
2	45	13289.736284574198	0
2	68	22024.886607846016	1
2	70	22024.886607846016	0
2	85	33473.681434989168	1
2	87	33473.681434989168	0
2	103	50343.779915466512	1
2	105	50343.779915466512	0
2	111	53399.218200885049	1
2	113	53399.218200885049	0
2	120	54623.245053523733	1
2	122	54623.245053523733	0
2	136	56880.597241943791	1
2	138	56880.597241943791	0
2	168	62557.008889777959	1
2	170	62557.008889777959	0
2	185	71101.674741447461	1
2	187	71101.674741447461	0
2	203	81960.028634328111	1
2	205	81960.028634328111	0
2	224	126965.692413593175	1
2	226	126965.692413593175	0
2	240	132131.933965124727	1
2	242	132131.933965124727	0
2	258	146536.254849313365	1
2	260	146536.254849313365	0
2	276	163661.510054963077	1
2	278	163661.510054963077	0
2	284	168744.893708391877	1
2	286	168744.893708391877	0
2	312	200479.715070250805	1
2	314	200479.715070250805	0
2	331	229520.465011481769	1
2	333	229520.465011481769	0
2	336	229941.261357147058	1
2	341	230628.340581972965	0
2	364	241119.986506398966	1
2	366	241119.986506398966	0
2	382	257175.013602556442	1
2	384	257175.013602556442	0
2	391	261132.080092385311	1
2	393	261132.080092385311	0
2	415	268997.303217874219	1
2	417	268997.303217874219	0
2	434	291127.882326159799	1
2	436	291127.882326159799	0
2	453	323605.427443306403	1
2	455	323605.427443306403	0
2	470	332977.375147349291	1
2	472	332977.375147349291	0
2	484	337829.682494332265	1
2	489	338083.973657462912	0
2	504	344666.043478411713	1
2	506	344666.043478411713	0
2	522	362953.339195524937	1
2	524	362953.339195524937	0
2	530	367091.788019382475	1
2	532	367091.788019382475	0
2	555	375162.046732274149	1
2	557	375162.046732274149	0
2	575	409363.721572464749	1
2	577	409363.721572464749	0
2	592	418156.767102228687	1
2	594	418156.767102228687	0
2	600	421645.198213092246	1
2	602	421645.198213092246	0
2	617	424184.210649082098	1
2	619	424184.210649082098	0
2	625	426337.294010771891	1
2	627	426337.294010771891	0
2	646	429485.51121337298	1
2	651	430054.850792923576	0
3	21	10103.403349199186	0
3	29	11252.24396687781	0
3	53	16373.533052220615	0
3	61	17988.285602505246	0
3	78	25839.830786472908	0
3	96	37071.778253973055	0
3	130	55527.939973881268	545.79344297392
3	146	57882.767830832129	0
3	154	58903.343040172755	0
3	162	61149.046865554793	0
3	179	67563.357746947621	0
3	196	75343.63384423584	0
3	213	86401.656946643868	0
3	234	131085.374893629631	0
3	251	136817.331978730023	0
3	268	151196.923967615911	0
3	294	169677.945968510658	419.53863475269
3	303	172828.512058904994	0
3	322	204718.793720920497	0
3	349	233842.187945838654	0
3	358	234907.65225360062	0
3	375	245575.33619759449	0
3	401	262214.421925699199	686.88791434783
3	409	265635.132656761354	0
3	426	273255.793548164664	0
3	444	295553.750522329406	0
3	464	328421.362610616404	0
3	481	337108.232786183755	0
3	498	342209.627425366974	0
3	514	349311.589469140794	0
3	540	367900.244792682111	149.79981181329
3	549	371460.659223192966	0
3	566	380237.060258283834	0
3	585	413372.032254337185	0
3	610	422627.0799345208	156.66701458072
3	635	427258.734303863267	722.9310379128
3	643	429120.36516167112	0
3	659	431216.413890032924	0
4	19	10103.403349199186	1
4	21	10103.403349199186	0
4	27	11252.24396687781	1
4	29	11252.24396687781	0
4	51	16373.533052220615	1
4	53	16373.533052220615	0
4	59	17988.285602505246	1
4	61	17988.285602505246	0
4	76	25839.830786472908	1
4	78	25839.830786472908	0
4	94	37071.778253973055	1
4	96	37071.778253973055	0
4	125	54982.146530907345	1
4	130	55527.939973881268	0
4	144	57882.767830832129	1
4	146	57882.767830832129	0
4	152	58903.343040172755	1
4	154	58903.343040172755	0
4	160	61149.046865554793	1
4	162	61149.046865554793	0
4	177	67563.357746947621	1
4	179	67563.357746947621	0
4	194	75343.63384423584	1
4	196	75343.63384423584	0
4	211	86401.656946643868	1
4	213	86401.656946643868	0
4	232	131085.374893629631	1
4	234	131085.374893629631	0
4	249	136817.331978730023	1
4	251	136817.331978730023	0
4	266	151196.923967615911	1
4	268	151196.923967615911	0
4	289	169258.407333757967	1
4	294	169677.945968510658	0
4	301	172828.512058904994	1
4	303	172828.512058904994	0
4	320	204718.793720920497	1
4	322	204718.793720920497	0
4	347	233842.187945838654	1
4	349	233842.187945838654	0
4	356	234907.65225360062	1
4	358	234907.65225360062	0
4	373	245575.33619759449	1
4	375	245575.33619759449	0
4	396	261527.534011351369	1
4	401	262214.421925699199	0
4	407	265635.132656761354	1
4	409	265635.132656761354	0
4	424	273255.793548164664	1
4	426	273255.793548164664	0
4	442	295553.750522329406	1
4	444	295553.750522329406	0
4	462	328421.362610616404	1
4	464	328421.362610616404	0
4	479	337108.232786183755	1
4	481	337108.232786183755	0
4	496	342209.627425366974	1
4	498	342209.627425366974	0
4	512	349311.589469140794	1
4	514	349311.589469140794	0
4	535	367750.44498086882	1
4	540	367900.244792682111	0
4	547	371460.659223192966	1
4	549	371460.659223192966	0
4	564	380237.060258283834	1
4	566	380237.060258283834	0
4	583	413372.032254337185	1
4	585	413372.032254337185	0
4	605	422470.412919940082	1
4	610	422627.0799345208	0
4	630	426535.803265950466	1
4	635	427258.734303863267	0
4	641	429120.36516167112	1
4	643	429120.36516167112	0
4	657	431216.413890032924	1
4	659	431216.413890032924	0
5	17	9000	2
5	63	18000	2
5	83	27000	1
5	92	36000	1
5	101	45000	0
5	115	54000	1
5	172	63000	3
5	189	72000	1
5	201	81000	1
5	218	90000	1
5	219	99000	0
5	220	108000	0
5	221	117000	0
5	222	126000	0
5	247	135000	2
5	256	144000	0
5	273	153000	1
5	274	162000	0
5	299	171000	2
5	308	180000	0
5	309	189000	0
5	310	198000	0
5	327	207000	1
5	328	216000	0
5	329	225000	0
5	351	234000	2
5	371	243000	1
5	380	252000	0
5	389	261000	1
5	422	270000	2
5	431	279000	0
5	432	288000	0
5	449	297000	1
5	450	306000	0
5	451	315000	0
5	457	324000	0
5	474	333000	1
5	494	342000	2
5	519	351000	1
5	520	360000	0
5	545	369000	2
5	562	378000	1
5	571	387000	0
5	572	396000	0
5	573	405000	0
5	587	414000	1
5	612	423000	2
5	661	432000	3
6	17	9000	0
6	63	18000	3
6	83	27000	2
6	92	36000	0
6	101	45000	1
6	115	54000	0
6	172	63000	4
6	189	72000	1
6	201	81000	1
6	218	90000	1
6	219	99000	0
6	220	108000	0
6	221	117000	0
6	222	126000	0
6	247	135000	1
6	256	144000	1
6	273	153000	1
6	274	162000	0
6	299	171000	1
6	308	180000	1
6	309	189000	0
6	310	198000	0
6	327	207000	1
6	328	216000	0
6	329	225000	0
6	351	234000	0
6	371	243000	2
6	380	252000	1
6	389	261000	0
6	422	270000	2
6	431	279000	1
6	432	288000	0
6	449	297000	1
6	450	306000	0
6	451	315000	0
6	457	324000	0
6	474	333000	1
6	494	342000	1
6	519	351000	2
6	520	360000	0
6	545	369000	1
6	562	378000	1
6	571	387000	1
6	572	396000	0
6	573	405000	0
6	587	414000	0
6	612	423000	1
6	661	432000	3
7	7	6072.97751977985	1
7	15	7805.29910224256	2
7	18	10103.403349199186	1
7	26	11252.24396687781	0
7	40	12964.109526780205	1
7	48	14026.319138827358	2
7	50	16373.533052220615	1
7	58	17988.285602505246	0
7	73	22916.46052636588	1
7	75	25839.830786472908	0
7	90	34422.966654348557	1
7	93	37071.778253973055	0
7	108	51314.677332824294	1
7	117	54212.948928907166	2
7	124	54982.146530907345	1
7	128	55527.939973881268	2
7	141	57806.317042566593	3
7	143	57882.767830832129	2
7	151	58903.343040172755	1
7	159	61149.046865554793	0
7	174	63616.637162354154	1
7	176	67563.357746947621	0
7	191	72173.342596474366	1
7	193	75343.63384423584	0
7	208	82827.207776137575	1
7	210	86401.656946643868	0
7	229	127879.65942678742	1
7	231	131085.374893629631	0
7	245	133076.179533110597	1
7	248	136817.331978730023	0
7	263	147346.204205251334	1
7	265	151196.923967615911	0
7	281	164587.135660879587	1
7	288	169258.407333757967	0
7	292	169677.945968510658	1
7	300	172828.512058904994	0
7	317	201312.717086853967	1
7	319	204718.793720920497	0
7	339	230628.340581972965	1
7	344	231608.052355017783	2
7	346	233842.187945838654	1
7	355	234907.65225360062	0
7	369	242002.880059160876	1
7	372	245575.33619759449	0
7	387	258112.131167602231	1
7	395	261527.534011351369	0
7	399	262214.421925699199	1
7	406	265635.132656761354	0
7	420	269940.319108344548	1
7	423	273255.793548164664	0
7	439	292090.394168742597	1
7	441	295553.750522329406	0
7	459	324647.675663457452	1
7	461	328421.362610616404	0
7	476	333762.900121641276	1
7	478	337108.232786183755	0
7	492	339166.2332540574	1
7	495	342209.627425366974	0
7	509	345565.320843618777	1
7	511	349311.589469140794	0
7	527	363866.894297932822	1
7	534	367750.44498086882	0
7	538	367900.244792682111	1
7	546	371460.659223192966	0
7	560	376159.574474543528	1
7	563	380237.060258283834	0
7	580	410348.881178466374	1
7	582	413372.032254337185	0
7	597	418966.18427240837	1
7	604	422470.412919940082	0
7	608	422627.0799345208	1
7	622	425097.129915363563	2
7	629	426535.803265950466	1
7	633	427258.734303863267	2
7	640	429120.36516167112	1
7	654	430943.836553005138	2
7	656	431216.413890032924	1
