version 2
run ParkingMeasurement-67-20170106-02:04:16-11593
attr configname ParkingMeasurement
attr datetime 20170106-02:04:16
attr experiment ParkingMeasurement
attr inifile parkingStudy.ini
attr iterationvars ""
attr iterationvars2 $repetition=67
attr measurement ""
attr network SimNetwork
attr processid 11593
attr repetition 67
attr replication #67
attr resultdir results
attr runnumber 67
attr seedset 67
param SimNetwork.a.parkingLot.parkingDelay exponential(30min)
param SimNetwork.a.runway.landingTime exponential(5min)
param SimNetwork.a.runway.takeoffTime exponential(5min)
param SimNetwork.a.runway.throughputCheckInterval 14.286min
param SimNetwork.wg.interArrivalTime exponential(14.286min)

statistic SimNetwork.wg 	responseTime:stats
field count 1126
field mean 5106.5986673806
field stddev 3180.0700348275
field sum 5750030.0994705
field sqrsum 40740047148.063
field min 458.38279404872
field max 18933.14083781
attr source  responseTimeSignal
scalar SimNetwork.a.landingQueue 	queueLength:timeavg 	0.42214993725313
attr source  queueLengthSignal
statistic SimNetwork.a.landingQueue 	queueLength:stats
field count 2250
field mean 0.94355555555556
field stddev 1.0639472709054
field sum 2123
field sqrsum 4549
field min 0
field max 8
attr source  queueLengthSignal
statistic SimNetwork.a.landingQueue 	queueTime:stats
field count 1125
field mean 351.39484249422
field stddev 517.49371912329
field sum 395319.197806
field sqrsum 439920045.49721
field min 0
field max 4215.1117264441
attr source  queueTimeSignal
scalar SimNetwork.a.takeoffQueue 	queueLength:timeavg 	1.9571549738361
attr source  queueLengthSignal
statistic SimNetwork.a.takeoffQueue 	queueLength:stats
field count 2249
field mean 2.7896843041352
field stddev 3.9526512947569
field sum 6274
field sqrsum 52624
field min 0
field max 22
attr source  queueLengthSignal
statistic SimNetwork.a.takeoffQueue 	queueTime:stats
field count 1125
field mean 1630.0895529721
field stddev 2425.8716224436
field sum 1833850.7470936
field sqrsum 9603915861.0683
field min 0
field max 14430.157566004
attr source  queueTimeSignal
scalar SimNetwork.a.parkingLot 	parkingOccupancy:timeavg 	2.034698739188
attr source  parkingOccupancy
statistic SimNetwork.a.parkingLot 	parkingOccupancy:stats
field count 2248
field mean 2.4866548042705
field stddev 1.5223596276301
field sum 5590
field sqrsum 19108
field min 0
field max 10
attr source  parkingOccupancy
