version 2
run ParkingMeasurement-117-20170108-17:27:52-4035
attr configname ParkingMeasurement
attr datetime 20170108-17:27:52
attr experiment ParkingMeasurement
attr inifile parkingStudy.ini
attr iterationvars ""
attr iterationvars2 $repetition=117
attr measurement ""
attr network controltower.SimNetwork
attr processid 4035
attr repetition 117
attr replication #117
attr resultdir results
attr runnumber 117
attr seedset 117
param SimNetwork.a.parkingLot.parkingDelay exponential(30min)
param SimNetwork.a.runway.landingTime exponential(5min)
param SimNetwork.a.runway.takeoffTime exponential(5min)
param SimNetwork.a.runway.throughputCheckInterval 14.286min
param SimNetwork.wg.interArrivalTime exponential(14.286min)

vector 0  SimNetwork.wg  responseTime:vector  ETV
attr source  responseTimeSignal
vector 2  SimNetwork.a.landingQueue  queueLength:vector  ETV
attr source  queueLengthSignal
vector 1  SimNetwork.a.landingQueue  queueTime:vector  ETV
attr source  queueTimeSignal
vector 5  SimNetwork.a.runway  landedThroughput:vector  ETV
attr source  landedThroughputSignal
vector 6  SimNetwork.a.runway  tookoffThroughput:vector  ETV
attr source  tookoffThroughputSignal
vector 7  SimNetwork.a.parkingLot  parkingOccupancy:vector  ETV
attr source  parkingOccupancy
vector 4  SimNetwork.a.takeoffQueue  queueLength:vector  ETV
attr source  queueLengthSignal
vector 3  SimNetwork.a.takeoffQueue  queueTime:vector  ETV
attr source  queueTimeSignal
0	2257	100244.576575122783	1868.7941829817
0	2308	102236.853766580669	3362.8019269502
0	2322	102897.953294859534	6931.3849941842
0	2330	103080.445689094354	2788.1256628822
0	2338	103274.715828912829	2151.8338441728
0	2343	103340.655007010716	7499.4654458201
0	2355	103830.145553954187	4354.7295355673
0	2360	103845.108536519579	4047.810894836
0	2368	103989.531445940688	5530.4920463374
0	2394	105805.976333901882	4128.5171378597
0	2426	107408.761962290784	5312.1759655106
0	2431	107529.70201126101	3040.1883484416
0	2439	107881.591590962717	2536.0018212748
0	2456	108126.384716230378	2207.5392325445
0	2469	108335.555808095485	1692.1704394192
0	2499	110682.805079006621	2695.6619993737
0	2510	111067.198952058278	3483.1793887361
0	2557	114216.506058802213	2744.9393709652
0	2576	114666.027326974948	3739.3119287306
0	2600	115635.36789429663	4586.845533635
0	2606	115992.069603300198	6809.2597032127
0	2614	116261.852298905864	1754.2351544056
0	2632	116923.083511755524	5411.5052147659
0	2654	117752.693769920018	4826.9412077558
0	2673	119157.470334519608	4590.2657790224
0	2781	122373.037645577457	7282.9293421879
0	2786	122490.579836404938	12781.600481123
0	2807	123181.426386707698	5142.8287309593
0	2818	123483.057335749429	6859.6866439703
0	2823	123492.400837828344	4066.8945976005
0	2831	123842.78589710454	5581.1516973115
0	2845	124935.401608736622	6267.9802310984
0	2873	125309.637759892683	7251.2787429833
0	2888	125753.038990730665	6330.489839331
0	2893	125757.130155557731	5255.9051422664
0	2901	125947.35857443524	4684.1370631269
0	2910	126072.317568467126	5475.8696910666
0	2915	126199.932525634213	5013.1073847611
0	2926	126651.574276229592	10131.392644697
0	2943	127355.403288796168	2423.0894120922
0	2948	127574.469166413485	4541.7890854237
0	2953	127658.715194341463	2657.4238629483
0	2959	127717.615155106162	4208.0052112858
0	2974	129106.091693117667	7232.3139342953
0	2993	130047.68354491236	5101.6057746542
0	2999	130439.655114313948	5244.4150332545
0	3026	132638.511372143445	4832.4793356675
0	3076	134311.332425787627	6449.8909174017
0	3085	134659.581474753772	2330.4020770318
0	3098	135132.75331186116	2800.6628805134
0	3103	135168.552192564862	3529.3331017992
0	3118	135697.781512506602	2882.2232917593
0	3137	136449.328328958706	9862.9914144781
0	3142	136648.782860683694	3604.4581578268
0	3167	137692.229752402292	4478.2560284418
0	3179	138236.192072560667	2673.4921670942
0	3191	139209.642553926045	3977.6022656082
0	3216	140157.288943014278	3501.5148974573
0	3221	140208.534020899797	5870.3247967243
0	3226	140362.284109781813	3233.5829833093
0	3255	141476.35540496752	2296.1126653089
0	3301	143135.550962500056	3830.0843118158
0	3318	143957.203728578802	2197.0975608501
0	3330	144269.281114979713	1507.5371039202
0	3349	144849.484338491543	4411.7931987582
0	3377	145476.706975185799	2737.4265618258
0	3399	147440.58990022865	6134.445155062
0	3407	148178.962048662846	4602.1722161216
0	3421	148469.221077144932	7954.9320827547
0	3426	148546.103622241051	6972.9412030015
0	3435	149206.767123079331	5042.2360675625
0	3445	149772.910401998446	4422.2726662044
0	3458	151170.251350818049	6490.3179479386
0	3471	151466.506943018567	6449.9029594696
0	3538	154687.730620884916	3135.85046818
0	3554	155253.861827821145	3209.7803101615
0	3565	155400.090143107418	7952.5935467812
0	3581	155625.869100684549	2954.7838274578
0	3623	157560.57386372182	6757.7097428546
0	3628	157693.858558800718	5268.5137643033
0	3646	158086.822676708389	2382.2107256351
0	3676	158886.428524321159	9939.9564934389
0	3684	158915.973872954966	4434.4321107757
0	3709	159552.265083020081	4184.6776438466
0	3714	159829.720238422429	7039.727464099
0	3728	160069.970202471486	4448.5385780001
0	3733	160080.015685185997	6190.651656264
0	3738	160230.866008257744	2335.8912540097
0	3750	160596.33076733419	4190.1573996124
0	3772	161495.857405515071	3539.7890568659
0	3778	162253.301635904403	6451.8601534555
0	3783	162346.658625928964	2043.1401209677
0	3791	162560.200559433445	4550.7694967138
0	3814	163843.925841314262	4954.2825800644
0	3843	164974.841904642369	4385.33215935
0	3859	165638.609163889091	6291.3865476558
0	3864	165872.975034989754	3350.7168547805
0	3872	166229.109103837786	2983.6995750579
0	3881	166780.249842342735	2220.3214987293
0	3898	167375.155694351642	2446.0755474247
0	3915	168231.334514435808	3473.3229352446
0	3964	170688.480603475148	3077.5453185906
0	3972	171331.420510797488	2821.7171421198
0	3983	171464.074968746651	4348.959139219
0	4007	172754.508602523006	3348.5839705131
0	4027	172887.524568130573	4297.4253767404
0	4033	173207.74467238194	4458.6268820858
0	4072	174545.827540485595	3252.9688465262
0	4084	174926.49099568644	2875.0371122452
0	4089	175188.567669469842	1975.8354615838
0	4097	175685.053481086432	2258.6005548689
0	4103	176392.336917086961	4314.0722836588
0	4108	176497.395055262067	3875.9799531261
0	4140	178011.828079906724	1297.3126007916
0	4150	178288.620731254822	4685.630914309
0	4187	179946.156529672822	2234.3361896435
0	4196	180199.785986771157	1788.943618776
0	4209	180398.234714662586	1620.1299875913
0	4218	181032.967854305592	1756.1468787787
0	4275	184751.83877203868	7860.3724726593
0	4333	186808.592401748276	5256.2104559541
0	4344	187433.426840585278	7416.3292841354
0	4350	187847.354993554149	6616.2356392244
0	4355	188062.117081488234	4654.7832773355
0	4366	188345.438254253628	5986.9839223063
0	4385	189323.350470304054	5559.1605051339
0	4390	189337.806691751534	3810.7482345897
0	4395	189396.586842944173	3815.0685929136
0	4407	190206.859136221339	2035.8899390066
0	4444	191293.778973936463	8194.6970918482
0	4458	191640.742486933865	4832.96120643
0	4477	192748.504438799713	4502.6814324204
0	4483	192861.129245767742	8217.5585009033
0	4491	193263.472370222859	3104.2425843187
0	4496	193381.858357401534	1945.751109222
0	4516	194264.997600443892	3645.0427216752
0	4550	195825.803322883208	2158.0120000697
0	4565	196558.208592461608	2448.1711527448
0	4570	196940.664753031037	5313.2015338356
0	4575	197126.768856818734	2166.0585697047
0	4584	197194.067075638088	6985.3971601018
0	4629	199701.232367152559	2554.34308363
0	4635	200175.980895131669	2915.1620495761
0	4644	200598.754737081808	5421.0459853318
0	4649	200788.715571473377	3010.0173281646
0	4668	203239.353430923437	5190.2309866927
0	4702	205631.711543480292	2343.6919122813
0	4726	207378.997811611951	3304.5601480351
0	4746	208428.481606787955	4062.283357707
0	4757	209014.90387680031	6799.466238967
0	4766	209519.013080478181	2977.191402098
0	4773	211154.359089244918	3871.0831652712
0	4805	215999.830435300712	8678.1297208324
0	4882	219315.30287613353	5716.5774813434
0	4893	219713.206224695468	3317.6069830172
0	4898	219746.926469406018	3975.1696563022
0	4903	220222.197533082163	3825.8406481399
0	4923	220651.267435230211	3632.0236539364
0	4928	220666.216256100588	5831.6053365852
0	4940	221264.044605239051	2532.9897226519
0	4945	221402.344539732886	3993.5568677756
0	4979	223067.463785604525	3827.2867789849
0	4987	223409.651893271058	5251.8378054438
0	5008	224717.377462119874	4494.6421445333
0	5016	224835.767019946891	2925.267667291
0	5021	225112.703961737821	3455.6840100742
0	5059	227943.783300779467	5785.9999483319
0	5076	228516.600266007142	2074.8657294366
0	5084	228848.173337736371	2658.3341090316
0	5098	229426.151857852809	2356.9893486759
0	5115	229812.582765968942	6346.1700915877
0	5123	230050.371057782781	1254.3739336678
0	5148	230628.371209158036	510.31402267783
0	5156	230790.866477125424	3436.8583818781
0	5174	232660.066307880042	3118.048193243
0	5182	233064.601136791407	2882.94239359
0	5201	234936.861721897623	3416.3502638652
0	5219	236746.977903907753	2564.3550780462
0	5262	239422.14886132856	3935.8502418744
0	5270	239943.607077585796	1707.0067775428
0	5279	240375.07333624146	2721.5904099607
0	5287	240535.587293568873	2921.9170264457
0	5322	242791.793320041974	4183.4055508669
0	5346	244907.027613319091	2702.9846660599
0	5397	247085.829525231074	5115.959153439
0	5402	247307.335534003498	6373.3358155773
0	5413	247562.101374460649	2127.2529748805
0	5418	247591.721465381506	4710.867134404
0	5424	248090.272579486233	3389.5563199906
0	5433	248598.699874558531	3028.2034095704
0	5441	249102.839022723015	2992.8123353816
0	5521	253322.712704829003	6761.7990538624
0	5526	253419.66735098891	3020.3158361411
0	5544	254400.893112404927	3878.1626414176
0	5550	254846.376529224244	5147.6310100138
0	5555	254846.674299266485	2687.3511214767
0	5563	255310.032596130739	4390.5390800366
0	5569	255558.012760179798	6146.6474460603
0	5591	258700.341631223041	7038.6733300721
0	5596	258833.509176884163	5703.3055822568
0	5640	262178.54815699227	1912.7997948894
0	5674	263953.249986606627	2784.0633099713
0	5695	264722.672520716366	2334.9785847649
0	5724	265653.71187992695	2299.5240332609
0	5742	266698.948685388899	2014.4111205868
0	5766	268167.325736068245	11072.517266458
0	5772	268522.885990187722	8271.7582115128
0	5777	268614.875723846345	3922.6144065293
0	5785	269085.054890385896	6797.9174534755
0	5794	269326.758066926453	4994.7580250503
0	5808	270319.960083527875	8718.002782583
0	5818	270700.475143801621	6076.3947115312
0	5826	270832.196578050552	1716.3415110054
0	5849	271582.59380216357	5658.793352043
0	5884	273621.399195621078	3647.0059773231
0	5903	274283.239302884299	3141.5437821741
0	5914	274385.863400775974	3506.5693916175
0	5919	274471.542896650935	2578.6686144097
0	5970	276759.869136657801	5082.2759949801
0	6013	278094.377549467749	3200.0260563367
0	6018	278160.463603264874	4659.2545688881
0	6026	278260.305863379527	2662.4912331022
0	6037	278646.627478606652	3013.0649242312
0	6042	278765.71130702271	1434.3657623932
0	6050	278991.219487430934	2397.6555339305
0	6064	280252.1284297567	4709.8845810741
0	6070	280300.463445316229	6056.5538188887
0	6085	281189.611687042348	3670.1637474949
0	6104	282095.445916306247	3867.1479231897
0	6112	282212.562689406092	3282.1337651349
0	6129	282919.737958583602	1486.2707798525
0	6164	285473.380850642557	4463.7970322948
0	6184	286623.958521470516	4404.0040854188
0	6195	286893.346774708077	1949.8931624774
0	6214	287270.718918097056	3154.4856819305
0	6222	287998.235244828799	3284.0173526213
0	6239	288699.546354386681	1857.6658595369
0	6248	289249.023850828648	2439.7562060685
0	6294	291770.789878575203	1204.0091784259
0	6299	292070.740769109115	6472.6648896866
0	6316	292407.051387028944	2597.1532318315
0	6325	293712.460713374866	5275.5701980472
0	6333	293792.393474353691	2452.99288005
0	6342	294654.708900249542	4061.1569993339
0	6362	295626.148198798547	3353.8099215533
0	6386	298210.865681317189	3048.0660008474
0	6395	298925.71639399095	3420.8451893905
0	6436	301321.278411109388	1270.6131135412
0	6517	305262.637132573709	5206.4222449923
0	6522	305437.908086860146	8602.0053565189
0	6527	305592.518922320574	4392.5123680942
0	6539	306329.163286624179	5906.5721441869
0	6581	307643.553347390446	6111.5996842232
0	6600	308477.970397058057	6891.4697490333
0	6605	308510.99630499748	6499.7157494869
0	6610	308563.720714200633	6639.335687933
0	6619	308875.941028995212	5913.2873919135
0	6624	308889.727362717749	4819.1526447974
0	6629	309221.863437991894	3241.4408484586
0	6637	309322.79698105907	2830.7328297239
0	6660	310333.447780705429	3822.8696487339
0	6671	310632.141658853177	3459.4312330868
0	6684	311092.180938961994	3551.1735130616
0	6698	311507.767893097158	2065.789033194
0	6707	312358.442822438098	1843.6704871487
0	6716	313078.535216768735	3781.6005445276
0	6735	316180.280357478639	5125.5600071568
0	6779	319139.710337887047	1772.1823797551
0	6802	320161.937333456945	2704.4953164853
0	6808	320613.250569682455	4075.5759064311
0	6816	320750.947496881725	6218.4469195794
0	6821	320874.37346789644	4088.9736037712
0	6850	322718.69597486993	1321.8850830276
0	6863	323042.69571354133	996.32964252148
0	6890	324551.184749502595	4721.4342478849
0	6906	324978.399905468728	2270.6552926722
0	6918	326017.449206357722	1557.8607795061
0	6923	326037.005993125737	2302.7209173624
0	6944	327811.394258012549	3272.8225769819
0	6961	328901.949810613877	1739.6008197094
0	6997	331819.338064513119	4173.9165613974
0	7002	331838.324531919218	3289.3536714582
0	7038	333205.496038272729	2779.6444911037
0	7043	333208.235057278811	1245.8230796163
0	7076	333986.083755182365	1614.1087938663
0	7108	335847.134146191278	2480.0873511221
0	7118	336002.010935500406	2271.8699078645
0	7127	336348.016240966877	2595.5376918397
0	7142	337048.361288955567	4882.058776773
0	7192	338658.388865751691	7208.6256284641
0	7219	340183.698320518919	5359.0633794224
0	7249	341657.012429182159	4343.086528849
0	7257	341678.087859548723	7653.9036478106
0	7269	342166.943566462156	5279.5799748061
0	7279	342385.69431573506	5026.2434518241
0	7294	343119.82339036491	7908.0551439581
0	7299	343293.990276716477	4603.3642561159
0	7304	343583.659263620804	3850.7958106303
0	7310	344088.008362968218	5400.3048342917
0	7321	344497.164702004483	3674.1687026513
0	7335	344889.307295824849	7461.5464273926
0	7340	345397.565101209621	7798.9795887735
0	7346	345461.761957824499	3761.4382457315
0	7391	349767.884887067224	5622.9071096059
0	7408	350424.986402104616	2048.6834541674
0	7460	353520.067200521844	6096.7646400213
0	7486	355003.485487060332	5968.6778978918
0	7491	355050.098698081627	3142.8975011673
0	7499	355090.586823905824	4884.5886372222
0	7504	355099.089893059204	4898.0952756477
0	7509	355119.996366221306	8966.6283834477
0	7517	355498.676531219433	4958.9348624768
0	7534	355874.965966090626	3037.0090701674
0	7542	356236.731752220157	3056.8586016395
0	7567	357274.204224843239	885.25061848305
0	7576	357580.139517220219	1948.9383883957
0	7610	359159.572834419911	5529.0252313004
0	7637	360969.941849752644	4097.5541255332
0	7647	361239.865595366738	2775.3510793275
0	7655	361489.290091445727	3618.2649438255
0	7680	362247.658876373874	2503.6282668571
0	7688	362397.937685533389	1493.7514015349
0	7725	363979.840082694018	2699.1151215292
0	7733	364088.647852207328	2391.7441265602
0	7754	365350.234248322687	2666.173382643
0	7769	365474.517463004435	3181.6814993434
0	7790	366896.028724851359	8225.3731169339
0	7795	366943.999740784944	2921.4495946891
0	7809	367441.270906422597	2907.1246999324
0	7819	367634.643093755389	4695.8400584577
0	7854	369194.308145927343	4027.0328593625
0	7957	373084.123854721144	5702.7196420824
0	7965	373431.186968230102	7409.422578544
0	7973	373710.563391910658	5445.3839371064
0	7982	373886.040695204112	4860.1349758267
0	7996	375090.904749061408	6020.5795280407
0	8001	375160.694386153946	5599.4235755044
0	8010	375510.129742033429	5234.6120049102
0	8020	375659.447841789197	7516.3900277502
0	8025	375907.542209561201	6769.3053398288
0	8031	376620.607953303885	5586.5431831906
0	8039	376738.884906252212	6056.4221369644
0	8048	377464.153546749809	6636.1770052545
0	8080	379808.046013580747	7935.6087697228
0	8085	380016.855756865117	6185.7619446721
0	8097	380926.766426742311	5427.8037090865
0	8107	381100.147767466141	3479.5293949039
0	8127	381949.809854115415	5012.113088733
0	8132	382213.754660667345	3251.5055903045
0	8154	384052.281938690048	3813.213700509
0	8191	386274.907084276838	3518.0636797091
0	8211	387640.103108732639	3288.8520430624
0	8270	389578.913731702832	3588.3896669458
0	8278	389716.914352423838	6348.9281568452
0	8294	389948.354110677325	8581.4528757786
0	8300	390103.674892251665	2298.1001470226
0	8308	390813.036006793448	4680.305568741
0	8317	391300.669451940015	3403.5030197632
0	8322	391302.808301082872	5984.8843854181
0	8327	391524.293778352891	3121.7497322897
0	8344	391948.106490653601	2325.3728475877
0	8352	392087.602126275137	4103.5792331947
0	8388	393295.240672244359	4097.8414297535
0	8394	393490.877168462539	906.07368097901
0	8411	394360.362726114498	1615.0563676078
0	8435	396176.182771745803	4011.2724679919
0	8440	396337.116430276477	4759.6665302546
0	8448	396644.81759641883	2794.236461605
0	8472	398863.095919193276	2447.8952818107
0	8489	400082.196035174488	1926.4388094632
0	8515	401494.347776780462	7065.6632536628
0	8523	401696.04456686718	1989.7053870248
0	8532	402542.501371538102	1398.1656589212
0	8550	403847.470704648968	2458.0026321181
0	8599	407141.854743378031	4228.5991265539
0	8611	407412.277584469348	2742.3702835587
0	8621	407989.480440764539	4057.9974678484
0	8627	408154.60456014841	3427.9419389953
0	8638	408773.287413421459	2781.8189624844
0	8669	409908.681264608599	1147.4345951596
0	8677	410219.296613844677	1036.0756444143
0	8699	412712.167908241785	3338.8963220343
0	8711	413391.180508337151	6050.7517574736
0	8730	414128.540938821454	1371.0182034177
0	8762	416183.943293113963	5182.2396239919
0	8767	416310.836010514564	3231.6161207618
0	8773	416764.698454675651	1989.6587173907
0	8855	419515.680203886245	4612.7719862179
0	8869	420338.989422519714	2871.7974857905
0	8874	420339.436843778385	2595.3091811501
0	8879	420715.045946885335	3563.5048951468
0	8884	420828.702374304385	3696.96616979
0	8890	420937.155142948708	4025.9916196308
0	8898	421132.383361028635	3528.9401834761
0	8924	423264.392985725997	1900.4580255632
0	8952	425636.782316628382	6577.7453298359
0	8963	426394.740231321899	8632.0502479982
0	8974	426651.418826301589	4429.8228322801
0	9001	427550.195926036843	2051.8104355603
0	9018	427998.917235056985	4556.9200838241
0	9027	428714.732475328265	2174.5682506619
0	9035	428957.527398299333	2382.2071848122
0	9093	432187.764017215057	4752.9012537658
0	9104	432715.613019164475	3727.8392281896
0	9121	433397.776098922926	5547.8486644397
0	9126	433422.155282885904	3151.6622269839
0	9131	433435.283579241763	3328.4473781992
0	9137	433805.057669080166	3727.85335101
0	9156	437142.310438456053	4486.8236502026
0	9182	438131.211030651742	817.07974532906
0	9208	439957.715847308311	8603.4311622935
0	9216	440300.728234166272	2957.6440522271
0	9233	440648.420368535095	5573.656865979
0	9259	443046.464572770134	4180.8588848419
0	9268	443690.829883304748	2443.9956246501
0	9286	444907.588371827979	5986.2411286645
0	9311	446431.592698463271	5990.8333217026
0	9337	447602.523665148933	3247.751290311
0	9345	447690.707446284551	5690.7794833024
0	9371	449284.081819813325	3685.3187478989
0	9379	449832.463397909636	2978.7612618968
0	9388	450024.895293213447	4402.3420184111
0	9396	450321.452427544653	2254.5681288347
0	9414	451365.864224641459	3867.2692919431
0	9481	454210.862798044887	5594.1009979064
0	9490	454522.9120473651	3340.7723856248
0	9495	454977.933529007811	3702.2268727987
0	9501	455240.767628302754	2707.404545408
0	9509	455890.794195985511	2957.676334681
0	9519	456990.343109097978	5667.9949394493
0	9550	458705.301367963728	5310.0954725648
0	9558	458998.454879569431	6308.5731431323
0	9577	461474.548216599163	4664.8923500271
0	9585	461740.399302595437	4662.116493808
0	9595	462897.505974443753	5704.6101708692
0	9623	466903.758654947629	7184.5951979255
0	9654	469842.420175053154	6156.2139973997
0	9662	470456.565067486778	5296.7944771401
0	9679	470894.400166004532	1537.703616142
0	9696	471545.826937777657	2866.1759304518
0	9728	474082.69141736617	2713.507575894
0	9740	474897.37091626256	4253.5038742805
0	9745	475346.267925813806	5071.9250947479
0	9765	478779.315751147923	7216.1545918009
0	9830	480986.900547166112	3727.182984332
0	9846	481522.42902997118	2609.7529053384
0	9863	481898.059935238917	2528.6574545679
0	9875	482678.297808518706	2469.9199355121
0	9911	483678.000671907369	4364.8521976804
0	9922	484026.961647535055	3622.2762519527
0	9941	484393.58165615243	3144.7865342878
0	9946	484716.084648306248	12134.919409438
0	9951	484793.700154640021	3911.9616715777
0	9957	485252.317638899047	3063.8474787074
0	9981	485907.409399607259	535.70301657367
0	9990	486178.164964982903	7362.4789590962
0	10026	487700.282675910904	3736.7150202847
0	10047	488573.265091223757	5333.5614744868
0	10063	489353.401186386085	3959.666624402
0	10068	489367.750708862182	2796.3786004911
0	10074	489578.032513565151	3237.9965020968
0	10091	490339.232307609965	2594.6035887355
0	10107	490867.685328411096	8841.1754276462
0	10122	491275.637505470735	1694.0797552714
0	10197	495133.809875819006	10996.414517846
0	10217	495731.28974882026	8915.7964531786
0	10223	496461.028403618756	8405.1497506159
0	10231	496649.696736274457	6263.5939797752
0	10245	497191.396011275265	5871.5264628731
0	10266	497894.501796250171	6698.357508505
0	10271	497920.973588171179	6748.8634756523
0	10280	498850.919300447151	6154.957901689
0	10289	499083.363460942501	4354.1694530887
0	10305	499489.920946216632	6285.8172766238
0	10332	500051.449818779828	5038.4911548616
0	10337	500191.903018013101	3696.2142449983
0	10342	500203.647687726732	3287.5090514845
0	10357	500900.59414611569	1564.0280354566
0	10370	501054.576048115596	3745.7637388401
0	10393	502276.594848750022	2754.3497999144
0	10416	503596.178076963555	3799.6653890189
0	10424	503664.755864447234	2691.5862176522
0	10429	503859.884676587811	4901.4461926109
0	10434	503926.239266077759	2628.9922509788
0	10452	504981.999222979229	4444.1253302356
0	10460	505353.877620800634	3960.7875960456
0	10480	508381.153179157255	3779.6546260033
0	10612	514966.210019822733	7217.4140088604
0	10627	515763.223438673656	6692.0647360289
0	10639	516089.508662777851	5703.7866184693
0	10654	516762.363973605954	6388.0073356033
0	10660	516884.990868188042	5988.5585519645
0	10668	517281.359867170652	6196.1181435617
0	10676	517379.950836426293	5085.092750501
0	10681	517451.789697919144	3372.0878263511
0	10687	517901.065005452197	6183.9141704228
0	10692	518061.364632307986	4172.4759794467
0	10697	518436.809251531234	5141.9203541049
0	10703	518626.857393810129	4976.9886354399
0	10714	519322.537719034983	4745.9917901874
0	10786	522949.80561127987	2211.5000771052
0	10797	523222.31918679701	4270.0778658359
0	10805	523621.261403445894	2756.0957501223
0	10837	525147.035037812056	9242.7093141978
0	10859	525754.24468554174	9685.0479255663
0	10864	525809.248701744824	4723.3816484131
0	10872	526197.923940788342	7255.9122703509
0	10881	526687.509479587906	5316.551742028
0	10899	527014.180992608682	3426.2812530353
0	10908	527272.723695606633	7638.8487330081
0	10919	527798.568118837684	3553.4345446183
0	10964	530594.555238337507	5333.6763278793
0	11046	534074.983672011763	10215.019493865
0	11060	534492.851765951585	7824.0841711676
0	11077	535466.165991428459	7602.71735765
0	11095	535666.76020889309	8900.7977543754
0	11104	536298.881901430432	8728.2025878789
0	11109	536531.340458686467	5150.2201345178
0	11118	536624.618998529943	4959.7390632312
0	11123	536693.887088658804	7457.3185663307
0	11128	536761.411334636165	7594.6304296165
0	11140	537585.514557173567	9208.526432742
0	11162	538712.112099221545	6549.0350618624
0	11176	539199.784163618391	8732.9552276239
0	11185	540117.711192296954	8477.2921053197
0	11193	540234.750313557994	5618.0098569844
0	11198	540235.114015444462	6136.6878269511
0	11203	540451.492516646783	8255.7918273097
0	11212	541100.786060603983	6174.1273174606
0	11217	541656.554151519057	4503.0509255028
0	11223	541887.277582670523	4940.2540832745
0	11267	545336.371026094449	1777.3170836476
0	11288	546878.64156208775	2377.0056870557
0	11293	547082.522887391695	8995.1520074749
0	11311	551123.969692303294	6491.2747820081
0	11325	551423.641914292174	7964.1317254041
0	11347	552479.008225938563	1592.7806496551
0	11356	553235.472387968342	1858.9072734158
0	11373	554284.149670465602	8802.1442113758
0	11391	555809.674424216643	4039.9298145168
0	11409	557306.121024843652	2873.5201913488
0	11446	559610.879884228118	2007.2371440854
0	11452	559772.922094065702	6031.6689573678
0	11492	562057.142885547542	4022.6231191122
0	11503	562238.863524777012	4548.7789407595
0	11514	562552.722571059909	2686.8156790312
0	11519	562809.399287481708	1884.1082640085
0	11536	563868.149474101512	1726.8113214517
0	11557	565724.770228479383	8896.8503202498
0	11577	566181.780138511122	2413.6770207938
0	11591	566738.607089602977	2681.085258086
0	11596	566791.588667697651	1141.3976813173
0	11614	568714.696541838423	7597.6386945859
0	11630	569121.354342743944	3256.6962915861
0	11655	569815.26762655227	1004.8630888857
0	11714	572714.814023310537	3337.2507019428
0	11729	573064.571777005403	5267.0132129646
0	11737	573335.134541620283	2312.5806267537
0	11743	573531.072483075519	2643.7311492629
0	11761	574535.663781347417	5068.6685093796
0	11786	575812.897391026242	4327.9885261771
0	11829	578268.419759238252	5906.876229836
0	11834	578512.965190908312	8097.7703466425
0	11840	578791.001042894251	6304.6404719385
0	11848	579233.377446285575	4852.1410047301
0	11857	579444.623404358967	3818.1583715666
0	11862	579464.34337568448	3602.2975666331
0	11867	579578.245794048044	3240.2278639153
0	11894	580079.293105746006	6536.7535758986
0	11917	581182.681936879865	1232.6562554464
0	11940	582125.03152588853	2267.7154201621
0	11962	583300.47940026325	1914.2393919419
0	11970	583561.413977247942	1731.5836403712
0	11975	583694.284959086962	2881.9204340296
0	11999	585067.591038406983	4990.044880738
0	12009	585284.72786634271	8594.144527491
0	12021	585828.948364876413	1765.8942234244
0	12038	586845.95276534443	4870.1342062017
0	12060	587821.112807069037	3142.0808301614
0	12069	588197.375995018957	1357.7634965829
0	12077	588743.7334314752	3170.4819625409
0	12110	591150.237296530126	4075.0591701356
0	12121	591661.812612193286	2436.9985029471
0	12129	592218.326744243135	2519.2275265417
0	12159	594229.670556972402	1425.5664939419
0	12190	596204.095636554856	5442.648938156
0	12198	596564.6270899052	1561.9266951501
0	12233	599056.12053654934	5731.4983280158
0	12244	599138.569188548333	1697.4194930513
0	12258	599964.590426507881	4693.535712181
0	12273	600186.046092578703	5994.8467114299
0	12301	601930.670621944105	2827.1399314021
0	12326	602446.317794786056	5613.2138117177
0	12347	603570.793629187085	3514.89002502
0	12369	605031.488795002211	4519.5439636731
0	12374	605111.206858879969	7045.7128625579
0	12380	605182.364324244628	2851.8844925774
0	12385	605437.337552518902	5303.6579093088
0	12405	606600.016317320601	4070.4220607699
0	12419	607386.055281245942	3887.6094397242
0	12431	607935.147360995986	2345.5059379361
0	12444	608417.041238200978	1911.5100690591
0	12457	609500.57670095431	7306.1934490208
0	12505	613849.773954513633	6007.3659773723
0	12522	614825.418480996203	5343.2159823558
0	12535	615136.506528272959	3037.777993583
0	12540	615170.328946720969	1536.242754489
0	12549	615997.182666648494	4224.8986046713
0	12558	616514.863965640132	3452.6243231891
0	12576	618517.38285707999	4073.6468431639
0	12643	622470.664795951602	4690.8240146003
0	12648	622485.497081402474	3935.2497450406
0	12653	622526.654198701159	3971.963923839
0	12662	623695.611405023763	3640.5866090672
0	12670	623962.2359861383	3117.8775422118
0	12679	624399.781494406088	3375.9551315044
0	12730	628489.822761387671	3486.6026362037
0	12738	629070.700675030145	2378.5746246139
0	12815	631475.735328246552	9893.428681323
0	12847	632199.918140796781	5025.6461905906
0	12852	632252.540686797879	2871.7447158168
0	12860	632581.088399158585	5800.2783306364
0	12866	632618.114476807437	2663.5729826702
0	12878	633555.291222238662	4356.9236524245
0	12883	633652.67341113915	4712.943037522
0	12888	633812.077534285809	3509.8450560339
0	12893	633908.970796822846	2449.7432553905
0	12899	634367.99616737588	4310.7672825411
0	12910	634706.054832301122	2925.9543808872
0	12915	634903.22713429088	3642.8631834311
0	12951	635871.04182095915	3919.2336504964
0	13036	638999.18121272512	4067.9731177423
0	13041	639024.358100946742	4035.3149893319
0	13046	639264.226332045643	3785.2074965878
0	13051	639278.304859022905	2845.941792483
0	13060	639448.694260600892	2934.5172901222
0	13065	639612.706041941167	2244.5613818844
0	13076	639929.85270963477	3667.8259354494
0	13081	640003.15833830721	3792.3963723647
0	13138	642704.472720861536	6958.6479309928
0	13161	643208.827263542977	5177.1752898113
0	13205	644396.882403020248	3576.8973859582
0	13210	644567.178263670668	2906.9459417741
0	13216	644906.376320482904	3864.6568645647
0	13221	645132.850620045054	7793.0084722779
0	13233	645717.856581458391	5581.4097294398
0	13246	646099.805867429636	4033.9924868052
0	13251	646224.100286696652	3091.049281886
0	13257	646342.20906466419	3709.7935899485
0	13268	646905.093132425691	2761.059776156
0	13290	647561.444507177589	2344.7734660062
0	13304	648010.475601796306	1274.4163582712
0	13338	649399.380998429313	1409.1035406743
0	13347	650265.1277638054	6817.9513044174
0	13359	650928.589846493837	3830.0198225856
0	13410	653138.363023903532	9925.1613122192
0	13421	654003.487645320659	6085.7854151504
0	13427	654365.981213393127	6053.1491238722
0	13435	654424.64517238013	3840.1578507037
0	13455	655371.22302230731	4367.4333516249
0	13474	655869.25059591393	4821.9106267579
0	13482	656402.625340841247	4953.5477659335
0	13491	656595.040019618228	3632.3307700903
0	13505	657631.02403186735	3239.5819387185
0	13511	658380.040492352745	3488.4315752962
0	13551	660377.368013073088	1861.3286349985
0	13561	660810.215230178175	5793.1710385376
0	13578	661152.320660733952	2225.8997374596
0	13588	662884.781086582215	4165.0063797341
0	13613	665301.703856947376	4380.22696953
0	13640	666481.611793708564	6308.0907636171
0	13663	667078.755063084628	1487.8125643385
0	13674	668315.023127219462	4555.9832434622
0	13683	669054.448074123087	12461.81818221
0	13704	670453.624661347965	5235.4177549408
0	13709	671125.704365623471	7128.8020213606
0	13736	672961.43904255865	5958.6912992995
0	13769	674574.711879814077	2633.7501450497
0	13778	675108.756761333614	8614.9241141086
0	13801	676146.557885515002	2169.8937945887
0	13807	676705.168842667267	6868.8507122867
0	13815	676973.741480801539	3405.6968293993
0	13821	677217.639962100215	3229.9955661237
0	13885	680937.496221909778	3326.8192953391
0	13890	680939.700103897796	9110.3254011287
0	13895	680945.032957545159	2128.4235111789
0	13906	681396.319905368371	3221.9756618549
0	13917	681603.962243482982	6154.6657152274
0	13922	681662.505218844338	1424.3455322865
0	13939	682654.069365465958	2007.6663895103
0	13951	683168.191248604679	2169.3528068229
0	13982	685097.638434585915	2125.1319236168
0	13991	685918.092593685152	3803.0401978315
0	14016	686778.830262131278	3379.0223420651
0	14056	688509.766391123113	1964.5925503316
0	14078	689398.239392507239	4741.4179880397
0	14091	689885.634880353392	3654.8117022795
0	14111	690096.288708367498	3302.4343337057
0	14125	690476.121870050744	2518.6197984868
0	14135	690789.292768590433	2662.0485286978
0	14141	690940.017843144293	3861.5780090717
0	14160	691569.129264989387	2899.3540700356
0	14165	691626.240547241375	2567.481856909
0	14183	692215.737263626975	1849.9680427946
0	14230	693820.267722348773	2862.9523300818
0	14238	694267.959221644625	4380.3836819117
0	14244	694387.464278257211	2370.1952380397
0	14249	694627.987694742863	2479.3131374298
0	14264	696008.305791077297	3317.4288312919
0	14326	698376.897313676385	6296.8383426616
0	14338	698681.506628172034	3141.2214976918
0	14351	699279.310330951518	6569.0921129086
0	14357	699745.759700515106	3535.4104226463
0	14362	699746.461825636628	2894.8447025799
0	14367	699762.780949373502	2793.9958687624
0	14399	701563.107127779679	5134.158921637
0	14427	702744.499026910196	4212.6023902889
0	14437	702796.737733328517	5103.2731453718
0	14443	702937.285960722252	1671.2961289
0	14452	704042.821833248157	4028.6831056057
0	14469	704750.064293068395	3161.0423751952
0	14494	707034.979248679114	6989.1868852225
0	14546	708677.305225685085	6248.8701636805
0	14552	709337.020022527184	5147.8671786839
0	14564	709799.081298674638	3965.3281248115
0	14574	709891.722428741482	4820.8533031142
0	14579	709997.504982819996	3290.8896439086
0	14601	710378.715609935601	2105.3614368752
0	14606	710540.37426211284	4875.9073641103
0	14611	710548.445758030238	1134.7067084839
0	14630	712804.976009025242	5703.2253274796
0	14648	714391.413525869203	2436.3984781573
0	14656	714630.124057540896	4626.0811341861
0	14715	722913.23234961752	4009.6321680865
0	14733	723213.488804425383	4253.2850153758
0	14741	723442.466757384307	2283.2137801223
0	14747	723727.116607054877	10042.034912232
0	14764	725044.00933111467	3752.620755056
0	14773	725493.880087378769	2535.9911638145
0	14810	727335.254659436763	4921.8287519854
0	14825	727985.648541469345	3557.2546192702
0	14855	728920.79787052485	3373.4295621335
0	14860	729002.187497448468	2266.4309499595
0	14868	729126.631719123041	1623.7545812603
0	14882	729903.868591485675	1680.1458425211
0	14908	731255.676596352013	1119.5640268238
0	14919	731486.792765246754	2413.3565107625
0	14924	731531.160984890128	5338.1975013288
0	14988	735548.923660400578	5109.2823644368
0	14993	735839.301363095673	8214.7276276841
0	15001	735930.701448695534	3868.348446659
0	15009	736025.771683900508	3983.9695164446
0	15018	736447.340992520877	4847.8722813889
0	15053	738133.356024555734	3637.7228753785
0	15066	738570.7385196757	2106.0364959532
0	15088	739182.402559754139	6855.9802231188
0	15093	739188.074981353662	4044.5712097797
0	15111	740616.194770209705	4134.6715973743
0	15130	741183.596161091656	3089.6630053813
0	15139	741951.612378587161	2364.2101589343
0	15161	743121.290050874824	2461.3613786114
0	15184	743438.466740169953	2034.309000552
0	15194	743444.080784021258	4843.8037415664
0	15203	744179.18185080261	1054.8604244887
0	15228	745176.082643099309	1780.2681507262
0	15244	745591.080711619437	1393.4195829977
0	15253	746347.109135017528	1654.9003790103
0	15261	746431.068375905914	7866.0269158693
0	15271	747533.722727826368	5094.6177995472
0	15334	751037.053655426605	1295.7174383275
0	15427	754291.568096779447	3812.5621978986
0	15433	754329.752154953057	3082.2933835101
0	15438	754387.891618036266	5196.965170753
0	15446	754570.0142332371	4553.4692440135
0	15486	756956.161542521845	11684.988233056
0	15511	757563.722378842416	5215.2451674115
0	15517	757889.468179246056	5965.7365035155
0	15525	758048.980109064927	5991.8648317652
0	15530	758193.837257693933	7549.1871538655
0	15535	758343.002019556004	5314.598021207
0	15540	758406.885515829884	6125.8379001683
0	15555	759425.447444692776	7065.1249000201
0	15583	760240.499635611925	9241.1504532382
0	15594	760566.376689924338	6169.7162521389
0	15603	761197.288557443657	12507.668179565
0	15640	763134.499135904005	7036.3359588636
0	15650	763162.302470768416	4673.0744523982
0	15661	763632.07535723552	6745.6695607783
0	15685	765191.430344829861	8394.721332162
0	15690	765398.834651912595	5317.3621729982
0	15696	765659.598233653342	3900.1473834207
0	15701	765667.286603920137	4336.9596996194
0	15709	765807.587576074504	4959.3787350977
0	15720	766372.038054528574	7860.9031432007
0	15728	766871.752545845004	10983.984061534
0	15733	766888.844526105645	3302.2587842757
0	15760	769059.162572482896	5986.7967086456
0	15793	770448.855859807785	4724.0773121459
0	15808	771015.793961053685	1820.0674453952
0	15813	771357.13182364612	4212.1242932829
0	15819	771503.968964085176	4550.6973581997
0	15828	772498.119337639927	3236.7814832904
0	15863	774897.487211476185	5248.6772035734
0	15911	777306.933004833565	3094.8191609579
0	15935	778730.557894768171	5156.7429368184
0	15941	779193.354385800008	3099.3399965327
0	15949	779627.069452626631	3156.509214231
0	15954	779894.571421817207	6512.7991700376
0	15962	779946.915650117993	4857.5063134258
0	15973	780322.621506583515	4171.6471721612
0	15991	782210.970434593212	4928.7532418111
0	16020	784256.284669029706	2592.9919075993
0	16034	784450.153411887367	1695.1848729908
0	16050	785122.249811793358	1434.9395349867
0	16070	785753.192385779657	5850.8033826277
0	16076	786374.454326613639	3590.6462323272
0	16091	786907.035659913897	2106.4477213762
0	16127	789196.200897490153	1749.8495546453
0	16139	789790.98760494985	3108.0024263594
0	16153	790317.313846646768	5156.4213158858
0	16175	791093.6019696424	2276.012414388
0	16197	791742.773513193635	793.56938043724
0	16206	792532.021685614239	1919.0610081664
0	16234	793020.393099112403	3400.6694316822
0	16239	793206.839732257593	2162.5156404029
0	16244	793523.613959611271	1734.7975382813
0	16253	794336.303886414034	7507.952545722
0	16271	795488.815363310098	2830.4516996533
0	16298	797311.937532235708	2018.8889340513
0	16324	797755.741287975119	2234.853181136
0	16329	797804.375707463294	979.66553453172
0	16339	799384.39771022958	2253.9163720186
0	16360	803182.365308935544	5883.6037802381
0	16397	805363.910239565802	1370.9530873971
0	16402	805703.392870137586	2193.8553400773
0	16429	807263.377591859546	5625.0269039611
0	16448	807599.512745208784	3377.1045842603
0	16462	807929.723042372464	1602.1821876652
0	16486	808611.767153730238	880.98185483406
0	16495	809170.856594606788	2273.2303582512
0	16504	810650.58500918804	3668.173611672
0	16523	812797.642105905002	5008.6658071035
0	16547	813406.588030196905	5516.7725766948
0	16558	815563.540924613469	2746.8696029403
0	16578	816215.023445837792	3923.7520486051
0	16611	817048.282625857848	1458.6689549447
0	16616	817105.70267509464	4179.0058044288
0	16646	820269.48576512829	4188.8645789701
0	16660	820949.006339142784	4255.2305812382
0	16669	821522.548978293365	4920.8971526342
0	16681	822473.611972172539	2994.9062691607
0	16686	822632.472886202386	3971.9866136567
0	16713	825294.654884229908	5103.927505565
0	16751	827601.211754837816	4317.8968488353
0	16759	828002.564322255277	4403.5969714622
0	16774	829062.960788099345	2295.3720150459
0	16791	830187.393759437831	4063.5750529761
0	16799	830341.287952247308	2367.1074339728
0	16810	832523.942934096396	7203.5878967726
0	16926	836737.415147411519	6799.4024929287
0	16937	837427.571064975376	4040.2353108695
0	16946	837617.218471524375	3475.2614875147
0	16957	838243.567497342764	4354.8581717889
0	16971	838911.12551131101	5341.3955711579
0	16977	839589.096596105268	4724.5534543809
0	16983	840263.833771201811	4979.5706140296
0	16994	840572.149122004091	5309.5023232004
0	17015	842274.768200272398	8131.8796311814
0	17036	843092.454141312913	9300.7523117938
0	17057	843865.208015909597	11269.38720238
0	17099	845969.179977951727	10511.056185188
0	17105	846115.535692849047	8071.9407528384
0	17114	847117.196528138905	5257.0679175872
0	17125	848292.217718859626	6274.4337023938
0	17130	848376.539248976706	6141.7260793242
0	17142	848835.915739788176	8329.7976146113
0	17162	849746.146547227682	6059.0026248112
0	17184	852353.780591869101	7011.1783844224
0	17203	853281.918938541775	9784.3827300944
0	17216	854706.032216758307	10328.189806401
0	17243	855562.029928144044	6945.8397247045
0	17248	855840.297916422531	9359.788143031
0	17256	855980.542539668858	4767.6701512466
0	17262	856842.461750689549	2243.0256104494
0	17270	857051.742132189828	7522.6777333596
0	17279	857510.907704358152	4551.3244460076
0	17310	861066.439037997884	2148.8711068738
0	17346	863484.934140046383	8225.3551358726
0	17356	863695.450134344028	8851.9538663772
0	17362	864030.558171573331	4087.950996367
0	17367	864123.795119327403	3119.8874451225
0	17401	865752.630807976673	971.11480373926
0	17468	869466.575262068971	4375.2122868974
0	17473	869726.171304915599	6651.0176828466
0	17485	870422.922292178092	9177.9813806632
0	17501	870805.86945839883	3865.1892076058
0	17532	872399.744354405364	5466.0480298672
0	17537	872465.724288911143	5254.3323603834
0	17543	872621.569340320771	4462.4487003443
0	17548	873340.918144454407	5123.8320575669
0	17556	873421.847508544427	3068.8669728535
0	17562	873588.830277173159	8301.6843555394
0	17570	873792.166156417293	3097.5844857005
0	17600	876073.624145439908	4531.9222095908
0	17605	876102.603555966358	5461.6098089037
0	17615	877750.523631098485	3046.3113234992
0	17643	879400.838238796274	4654.0323612437
0	17661	880862.59232482873	2136.5615464893
0	17697	883277.137697711769	4467.8192611786
0	17713	883835.192973308899	4530.3928805332
0	17718	883876.176053605257	3276.7093462655
0	17735	885043.811242633886	1888.2760164716
0	17747	885743.205790057903	2823.3880744542
0	17752	886059.270602113078	3996.0057023497
0	17777	887106.795658685226	3190.6006730603
0	17788	889699.037011261924	3171.8208022115
0	17816	892384.750779447614	5474.2288523342
0	17841	893711.832984989472	3119.2952086693
0	17864	894519.744334568342	2574.3975705284
0	17875	895045.533263192718	2488.0004064114
0	17892	895849.720986061876	2749.7979842579
0	17904	896757.32307906384	2449.9033737524
0	17913	897577.364345157935	3830.555497616
0	17970	901067.681031886211	5875.1847966516
0	18119	907936.592260941132	9027.5801169705
0	18139	908975.431077419736	10254.978210317
0	18149	909136.418792513437	9996.2806250255
0	18157	909230.530682550512	10175.115912655
0	18171	910174.701853516819	7678.4146715792
0	18201	911126.009832343522	11424.332654651
0	18219	911677.769208764435	8338.2351759597
0	18263	912663.365401373597	9084.3147263766
0	18287	913263.013570042391	9698.8269039432
0	18292	913520.361793242958	11301.642655634
0	18297	913651.398867808724	16218.912570709
0	18306	913832.292572277774	10027.072806242
0	18314	913905.084454536273	9623.1296447757
0	18322	913939.455855487542	10831.95698209
0	18342	914844.912188142118	9396.7116765245
0	18356	915067.357325090407	9308.2299715243
0	18375	915521.466458918879	9036.7695732382
0	18380	915762.989305983217	8227.7043901386
0	18391	916089.774992373191	6816.2858622481
0	18411	917178.567072568245	7989.5012884155
0	18416	917233.156021265266	5887.7353866867
0	18421	917246.27979342989	7063.9770211388
0	18436	918529.256699917868	8169.3891338589
0	18447	918891.369646216963	7358.4858788607
0	18455	919346.122398497298	7909.4751352525
0	18505	920942.672322333079	8642.6936926803
0	18526	921985.14634970251	13303.610851102
0	18536	922258.204332996278	10392.55228414
0	18542	922914.718526713702	10296.413228525
0	18550	922991.8061705308	9078.1086701124
0	18561	923574.97530068959	8672.9295092919
0	18566	923785.120624317413	7757.5005477825
0	18588	925454.079443124177	10557.385196324
0	18616	926643.190161597819	10197.638975218
0	18621	926660.959928617183	8865.2715036687
0	18629	926679.005540050068	7239.3647900667
0	18634	926796.172808565074	7093.4810102188
0	18639	926834.309430561249	14145.305074213
0	18650	927051.668197099722	7169.4718721412
0	18668	927348.210980153813	8378.2361760117
0	18680	927962.666365155058	8516.6301740674
0	18700	928494.4198127738	7145.3733238908
0	18716	929545.276977561133	6594.4688771099
0	18721	929609.72221264502	5026.5637720172
0	18729	929776.958363010227	2885.6369741923
0	18747	930249.86117532014	4841.8653410944
0	18859	935793.142710182095	8121.3737182271
0	18873	936127.913091917644	9185.3960150949
0	18881	936455.238213894466	8192.3677704159
0	18886	936717.735481089107	12905.811450148
0	18891	936792.126585418413	8318.998545969
0	18900	937163.595243660128	7240.7003643973
0	18909	937862.325917117231	7614.4984377552
0	18917	938178.737108522092	7307.4712560188
0	18943	939872.830606935729	8554.8635249938
0	18952	940756.294664206999	9605.1833914076
0	18967	942236.97208182111	9955.5829904342
0	18977	942651.395674739912	9024.4866264359
0	18983	943332.209723352334	10091.835212024
0	18988	943472.879265710855	11487.658520645
0	18993	943478.89759407926	8898.5813740183
0	19001	943520.489710730989	5496.8891281947
0	19013	944325.073636019135	8854.3893213511
0	19028	944513.649606330207	4249.6302523678
0	19057	946067.790836126289	3907.9620150407
0	19100	947169.520795719416	3287.9980154955
0	19205	951413.808753468193	6559.5006948342
0	19210	951444.529062760902	5929.1482379822
0	19219	951565.952486759065	5525.0416769907
0	19227	951937.607466584659	5418.5232746171
0	19237	952226.35153616631	8394.7280229437
0	19252	953085.318986147775	6833.7001191456
0	19264	954035.581382760987	14943.57194011
0	19272	954451.265898755921	7545.160459096
0	19299	955597.767931400156	8572.9635637519
0	19311	956007.999269212028	8721.8483744761
0	19325	957344.182144737891	10254.92653377
0	19330	957371.201875871168	7493.4613687869
0	19336	957534.476898864874	8509.5952224062
0	19341	957626.811345070797	7375.0227870024
0	19346	957675.379430229289	9122.8291465099
0	19354	957931.074216152443	6258.1501742301
0	19367	958141.807078801057	8070.3142196645
0	19372	958269.622064440629	4183.6801103557
0	19390	959653.775007745344	3885.2127158347
0	19402	960096.551139111103	5283.5254453008
0	19561	965646.472260237257	10447.091504718
0	19569	965932.740494260709	13289.408829232
0	19593	966913.771544542443	6429.4922934195
0	19601	967273.671918302358	7404.1151890029
0	19606	967308.413204850023	6589.4256423852
0	19611	967494.827190071353	9151.6891175384
0	19616	967576.455391545408	6193.7972120434
0	19621	967668.576785539955	6935.1515195936
0	19627	968017.467544576832	5992.8601521319
0	19635	968560.965888436121	10752.956709744
0	19657	969150.813544828105	7146.015529209
0	19667	969341.136704895569	8367.7738014827
0	19683	970636.177039117717	8376.9358751026
0	19701	970929.507156219063	9539.6311910319
0	19706	971022.342470962376	7490.0179298007
0	19721	971446.395423202331	8348.1903886348
0	19799	975455.751009324905	11268.397623431
0	19804	975469.260317814419	13314.341156763
0	19812	975791.627506647473	7046.5236650448
0	19834	976460.387385365934	10685.143892627
0	19847	976776.882375220361	8528.2639022419
0	19859	977426.737074589107	7074.6511845449
0	19876	978439.340715921322	9346.117701426
0	19881	978749.141772423685	8262.3425148948
0	19887	978935.214402213614	7517.2300880671
0	19892	978951.968793403629	7126.6379044876
0	19897	979223.510036730305	6867.6639401128
0	19902	979239.262704493125	6637.1404077567
0	19907	979359.891175314535	8007.1807698861
0	19912	979524.231052627148	4953.8412742219
0	19921	980539.22870763417	4490.5337474363
0	19930	980894.742664224473	4520.1788037802
0	19942	981465.978531661899	8813.8949856285
0	19985	982596.04549152672	6847.8204523362
0	20011	983368.986520559137	1771.226012859
0	20070	984968.468318592813	3813.9933082823
0	20089	985423.463372835561	2713.8012518686
0	20095	985901.47067855048	8971.1150851388
0	20103	986302.383386811183	3233.7305832206
0	20114	987078.719747549852	4075.093178778
0	20121	988678.509046834388	6437.2673190699
0	20129	989147.872437459919	5738.4361655162
0	20157	989946.960234025524	7558.5588891617
0	20163	990054.430633586322	6473.0114701549
0	20168	990311.613495068661	5624.2604548752
0	20179	990438.681065918011	7069.583500862
0	20194	990637.415725796373	4336.4324463641
0	20207	992438.447672652012	3721.6552080202
0	20213	992603.608539677206	3355.0674758182
0	20240	995367.597103849969	5012.0464063045
0	20263	996028.740251842869	14525.853506491
0	20273	996102.215142988642	2471.6534760707
0	20291	997842.263194108296	7426.0103735408
0	20311	998762.216318020302	3282.4403519876
0	20328	999668.631832692997	2825.929913316
0	20359	1001011.329423403315	6281.052771935
0	20381	1001809.81140345942	3684.9372896033
0	20391	1002904.89617704501	7206.4799779347
0	20401	1003236.690252176908	3676.5873002738
0	20410	1003912.24251178626	3999.6027396345
0	20453	1006277.497102097765	2044.8830561939
0	20462	1007161.68041585505	4665.4561113516
0	20471	1007442.808871544591	8871.4946459503
0	20485	1008387.141332188571	8359.1597898624
0	20495	1008623.301763980321	4084.6719605235
0	20510	1009472.258213819953	2175.933592364
0	20528	1010925.592776333278	5972.6342719023
0	20555	1011637.134815682608	1510.534239902
0	20563	1011781.816363327345	3753.6740224249
0	20589	1013953.413703546347	13415.874148101
0	20598	1014066.758894728281	4781.4340362587
0	20606	1014480.23629097364	4495.9765694043
0	20615	1015083.036541305339	2238.3616814531
0	20627	1015943.838852307506	4584.7520070747
0	20640	1016277.307656831157	3049.5889834779
0	20657	1016730.526968201586	1042.216477439
0	20684	1019483.961339129683	3134.0216708025
0	20712	1020443.804646441135	1538.8777014549
0	20749	1022819.198397919769	2757.0538912233
0	20798	1024543.503400884489	5592.8284133185
0	20803	1024766.176653529542	4683.8991045858
0	20808	1024834.809851243978	3388.4320248336
0	20816	1024996.828889450746	4704.6729273489
0	20821	1025062.002887866994	2686.5138915864
0	20827	1025458.245463555304	3781.260175581
0	20857	1028158.0752124066	6292.8026535316
0	20877	1028930.086296761658	6764.467444908
0	20902	1029560.850518776764	7122.9529509878
0	20925	1030317.779267900016	3461.4691995184
0	20938	1030874.863319701765	4432.4182122582
0	20948	1031002.989915699029	2496.4313558009
0	20954	1031179.195228976227	3105.2110329362
0	20962	1031484.721728698785	2015.2512856979
0	21065	1036221.860401501657	7325.9970278361
0	21070	1036254.480158761962	5867.9134299426
0	21076	1036349.225378515761	6093.7998806761
1	2259	100244.576575122783	769.16055673586
1	2268	100484.955185149866	687.65754346624
1	2276	100931.256376971785	638.93635075959
1	2285	101411.119677079387	288.23769233939
1	2293	101816.965136177173	139.50594013503
1	2310	102236.853766580669	140.26776980048
1	2373	104489.513662819414	0
1	2382	105345.589769687898	0
1	2399	105918.845483685924	0
1	2408	106643.385368676319	0
1	2441	107881.591590962717	297.5720276405
1	2458	108126.384716230378	139.24163659745
1	2475	109182.809900087513	0
1	2483	109708.979355282342	0
1	2512	111067.198952058278	140.48355381389
1	2517	111117.442417933947	68.920057272363
1	2526	111471.566687836996	0
1	2534	111799.053561131973	287.47526414235
1	2559	114216.506058802213	1290.753496638
1	2578	114666.027326974948	158.41018247471
1	2587	115331.587863957439	764.38330846024
1	2592	115386.314944720818	296.20664133127
1	2634	116923.083511755524	402.90188022247
1	2642	117145.260914578424	521.89022279933
1	2675	119157.470334519608	1118.8726787712
1	2689	119500.382752038465	1442.023735129
1	2694	119872.224374055407	1610.5901742623
1	2706	120116.968300798439	1449.5469231602
1	2711	120173.463242910369	750.91409151071
1	2716	120433.421400380175	1007.9151601523
1	2727	120693.534054571157	192.30904127983
1	2733	121122.313523949369	525.86564654885
1	2756	121655.793835006094	468.96869413303
1	2768	121924.293404578505	661.0718932702
1	2773	122139.788081052081	266.01032222974
1	2809	123181.426386707698	148.74630571793
1	2833	123842.78589710454	333.17595328419
1	2847	124935.401608736622	3.087732032631
1	2855	124977.370834743294	31.293064485131
1	2875	125309.637759892683	308.3464284995
1	2880	125377.459691554477	182.219610495
1	2928	126651.574276229592	65.237361749034
1	2976	129106.091693117667	1300.0596566417
1	2985	129894.024159338141	2032.5826509522
1	3005	131639.219090765696	0
1	3028	132638.511372143445	309.33197442143
1	3033	132783.452833048072	451.36240170029
1	3042	132915.785331902101	100.22711115482
1	3050	133168.322002765311	123.99729990846
1	3068	133954.233212001224	740.25948804076
1	3087	134659.581474753772	321.3722505783
1	3120	135697.781512506602	465.74122418875
1	3125	135975.509234239865	412.80932877343
1	3147	136655.774045556938	0
1	3155	137128.701126472524	0
1	3193	139209.642553926045	29.399814267428
1	3201	139531.552243293434	226.08559260915
1	3231	140437.691139733374	0
1	3240	140983.651580084788	469.36258569452
1	3257	141476.35540496752	170.21065980091
1	3268	141827.642408899368	254.47998965983
1	3273	141861.499140400327	101.3929726716
1	3282	142739.280413360049	0
1	3290	142772.050429474388	10.306418414828
1	3307	143576.78983254126	0
1	3332	144269.281114979713	104.75005946285
1	3351	144849.484338491543	169.5509356121
1	3360	145022.857200010594	6.253216461587
1	3379	145476.706975185799	126.06923939179
1	3409	148178.962048662846	731.46545233659
1	3437	149206.767123079331	260.2950921971
1	3460	151170.251350818049	367.3872299508
1	3476	151551.880152704916	0
1	3485	152044.081517659664	0
1	3493	152425.344794497381	0
1	3505	153081.274437015404	410.18916378864
1	3510	153368.150800114294	578.15802579086
1	3540	154687.730620884916	798.3665919629
1	3545	154745.0667458069	263.52498362765
1	3567	155400.090143107418	32.502703933959
1	3583	155625.869100684549	4.437476213116
1	3591	155731.559665999556	26.947714926273
1	3600	156398.805708091593	597.36422564267
1	3608	156606.769498488266	200.59613076644
1	3648	158086.822676708389	191.84792246039
1	3653	158441.702847796985	485.63449914783
1	3665	158684.086076783102	674.65501406342
1	3686	158915.973872954966	26.330611705091
1	3697	159398.157623536541	50.935007303212
1	3752	160596.33076733419	292.8122623729
1	3757	160799.024351933949	209.51460664156
1	3793	162560.200559433445	37.942379224176
1	3802	163245.409528779861	0
1	3819	164559.928343613451	0
1	3845	164974.841904642369	216.83032545111
1	3850	165266.208895727021	337.1287488001
1	3886	167115.115829527691	0
1	3903	167610.935284884572	0
1	3920	168509.703368677668	0
1	3932	169009.613283671085	419.51409228087
1	3943	169420.35875119218	671.24096089602
1	3955	170466.526831311985	1060.6021993021
1	3974	171331.420510797488	38.56181683809
1	4009	172754.508602523006	703.05471908174
1	4014	172777.841506684086	699.5768732559
1	4019	172782.40542175082	160.99031961481
1	4038	173212.732207886084	0
1	4055	173794.354925134535	367.90199891698
1	4060	173839.346224677829	236.356407732
1	4114	176714.515479115119	0
1	4122	176891.466299379344	0
1	4142	178011.828079906724	300.00773987739
1	4156	178410.842367995122	0
1	4164	178778.10472707128	0
1	4173	179360.569456303346	83.748480776473
1	4198	180199.785986771157	182.6884303213
1	4223	181231.119354329716	0
1	4231	181552.381945794182	0
1	4240	182358.454331947356	0
1	4277	184751.83877203868	1652.7568899505
1	4282	185000.798640196084	1593.4648360434
1	4288	185307.307550867239	1543.1175856971
1	4293	185496.034007279225	852.4632624148
1	4310	185949.38450760018	422.32605043839
1	4316	186105.219512071936	523.70126204139
1	4335	186808.592401748276	0.811121244443
1	4368	188345.438254253628	174.46905703894
1	4373	188375.35547076109	129.53246438179
1	4409	190206.859136221339	47.629350317161
1	4418	190426.239953462951	217.57003792662
1	4432	190664.374405335156	44.419526566443
1	4460	191640.742486933865	204.63523875437
1	4469	192574.687769805779	947.22455061037
1	4501	193667.791322813539	0
1	4518	194264.997600443892	154.96016072706
1	4527	194960.710287114017	0
1	4535	195251.404093400156	73.695341650172
1	4586	197194.067075638088	47.177792115514
1	4594	197379.687165971473	118.86832041594
1	4602	197778.698243308808	0
1	4614	198179.5233842763	130.40094004552
1	4655	202215.437637833326	0
1	4673	203288.019631198975	0
1	4682	204074.437663576878	0
1	4690	204366.198249080937	0
1	4708	206541.821678380149	0
1	4728	207378.997811611951	95.721887638264
1	4734	207577.941155165563	256.24044069727
1	4781	213598.72539479014	0
1	4790	214834.610919515387	0
1	4807	215999.830435300712	228.07362219694
1	4819	216792.230763808778	396.63152213048
1	4825	216931.763708692604	535.4068237503
1	4833	217244.686402526858	225.44262123305
1	4845	218255.350122622142	846.56245066482
1	4860	218707.969586392709	550.1554985655
1	4871	219119.180246441942	388.12536385483
1	4884	219315.30287613353	75.125869513891
1	4908	220222.735317586561	0
1	4950	221657.019951663644	0
1	4958	221960.158092179225	49.658739523379
1	4967	222157.783352447559	0
1	4992	223466.412674381218	0
1	5027	226189.839228704806	0
1	5036	226441.734536570518	0
1	5044	227069.162509176908	0
1	5061	227943.783300779467	589.77520553215
1	5086	228848.173337736371	52.176213621347
1	5103	229542.018114637081	0
1	5128	230118.057186480208	0
1	5136	230181.658743201444	0
1	5162	231520.51145803245	0
1	5189	234182.622825861539	0
1	5206	235486.298619454123	0
1	5225	237613.670267123175	0
1	5233	237815.6979389984	162.2150127176
1	5242	238334.869754269142	98.269454226099
1	5250	238608.387769175091	0
1	5293	240933.9997184262	0
1	5302	241969.870371792032	0
1	5314	242721.00306245499	516.96011519577
1	5327	242880.854330977483	0
1	5348	244907.027613319091	206.31135382341
1	5357	245447.826545687653	12.978146107492
1	5365	245816.949337652625	246.45287266449
1	5377	246398.267582833788	288.24089549241
1	5385	246579.761443733453	18.847792766844
1	5446	249411.365314119495	0
1	5455	249876.879653681102	178.13413447067
1	5464	250399.351514847767	0
1	5472	250639.976652968392	117.24618198106
1	5480	250919.493516094156	0
1	5489	251661.668301150972	0
1	5504	252775.020437011017	615.69725922127
1	5513	253130.644856425388	0.441261798065
1	5575	257094.808469610231	0
1	5603	260251.1277786749	0
1	5611	260572.903834143037	307.15547204016
1	5620	261169.186676635364	0
1	5629	261601.95730094488	0
1	5645	262287.137436910427	0
1	5654	262788.386452307047	400.69251635561
1	5663	263354.187846666007	0
1	5697	264722.672520716366	390.67247884017
1	5702	264821.737458573232	197.65702630285
1	5708	264929.39520437779	244.85763957564
1	5713	265045.900887177015	353.63956985995
1	5730	265923.800450120554	0
1	5796	269326.758066926453	210.90299988129
1	5810	270319.960083527875	345.56686522994
1	5832	270879.294009158513	0
1	5851	271582.59380216357	440.8982814534
1	5864	272585.556281996647	907.96314031893
1	5869	272868.589606725864	975.71532448459
1	5886	273621.399195621078	120.19016124429
1	5905	274283.239302884299	39.329676456787
1	5924	274894.351493131041	0
1	5942	275704.440151645783	162.19630296322
1	5947	275873.695416065326	275.88078578798
1	5956	276105.649713388387	472.08715901292
1	5972	276759.869136657801	166.30518315734
1	5987	277520.004516627553	188.65897199803
1	5992	277522.582358099044	3.134418551602
1	6028	278260.305863379527	32.007870262962
1	6052	278991.219487430934	60.79056315972
1	6087	281189.611687042348	180.02786869455
1	6095	281816.071368744409	382.60419001334
1	6117	282219.954436051722	0
1	6135	284116.233236166559	0
1	6144	284714.217892207543	0
1	6152	284943.453612230676	0
1	6169	285598.075879422521	0
1	6197	286893.346774708077	84.079129947939
1	6205	287080.019183626018	238.13868877622
1	6228	288436.890515327632	0
1	6254	289809.898155197476	0
1	6262	290566.780700149273	0
1	6271	290599.373546941784	5.821646026178
1	6279	291339.400594303695	0
1	6304	292272.338277245276	0
1	6348	295162.799680469797	0
1	6364	295626.148198798547	121.27699419808
1	6374	296835.902730341241	0
1	6402	300050.665297568138	0
1	6410	300056.214887581401	0
1	6418	300681.852700684702	259.26155824746
1	6438	301321.278411109388	121.27185688302
1	6453	301868.018729163263	336.06506599604
1	6461	301978.514833642268	392.01418561755
1	6472	302453.294538429785	528.90951216212
1	6478	302795.255136739725	783.97458122915
1	6493	303605.98387453849	643.33023745678
1	6505	304430.17938584343	359.60466792311
1	6541	306329.163286624179	348.74069709091
1	6555	306708.440426489135	216.37627515393
1	6560	306731.376073648855	220.79794167734
1	6583	307643.553347390446	470.84292162402
1	6592	307767.385588357754	226.37816245734
1	6639	309322.79698105907	25.862308817955
1	6651	310080.950061532184	638.971201629
1	6673	310632.141658853177	117.36932356379
1	6686	311092.180938961994	37.460588640169
1	6722	314532.500577302358	0
1	6741	316537.674663251341	0
1	6749	316785.399864125249	0
1	6758	317367.527958131984	0
1	6766	317571.276970041896	113.83495307025
1	6785	319829.750501617738	0
1	6826	321396.810891842371	0
1	6835	322046.366071019846	0
1	6852	322718.69597486993	10.951362073398
1	6869	323734.285075763335	0
1	6892	324551.184749502595	91.596322651014
1	6897	324795.584250813445	257.01256978275
1	6929	327162.348990904501	0
1	6946	327811.394258012549	165.97275489687
1	6963	328901.949810613877	352.97895015285
1	6973	330425.85154716899	0
1	6982	331449.76323728761	0
1	7007	331962.411977662473	0
1	7015	332166.302512182545	0
1	7023	332568.724445079974	196.74948376396
1	7048	333367.046795069223	0
1	7057	333730.141027635895	0
1	7068	333867.878166136541	115.3996170094
1	7081	334024.184211738117	0
1	7096	335030.634764530929	205.99982343444
1	7110	335847.134146191278	635.36589978445
1	7144	337048.361288955567	160.99769729955
1	7165	337753.430764315274	439.50486398209
1	7170	337859.695597412533	500.24473350157
1	7175	337932.131345004068	504.37047657178
1	7180	338144.320338667571	545.73482623148
1	7221	340183.698320518919	1495.9947918424
1	7227	340294.811075583445	1604.1850549829
1	7232	340590.091175997572	857.22772300704
1	7240	341012.620855256156	189.62485590297
1	7271	342166.943566462156	466.61985436917
1	7323	344497.164702004483	352.18692454319
1	7351	346153.367982773644	0
1	7361	347423.302560500592	0
1	7370	348376.302947937242	0
1	7379	349034.807589168533	0
1	7410	350424.986402104616	223.99178469316
1	7419	350734.676993402208	528.67880671854
1	7432	352613.59781042433	2073.8561416817
1	7437	352750.931764915725	843.73056800143
1	7445	353099.822641724913	261.86574580173
1	7462	353520.067200521844	340.19404994123
1	7478	354976.872126733449	1346.3245236139
1	7522	355631.201128824554	0
1	7547	356388.953606360192	0
1	7556	356872.387724219459	0
1	7581	357871.025147620228	0
1	7596	358869.331948955615	404.8174329164
1	7601	358909.515316069423	238.859708152
1	7615	359744.030609516776	0
1	7639	360969.941849752644	65.755565754188
1	7657	361489.290091445727	208.56513028094
1	7665	361696.90372564711	0
1	7690	362397.937685533389	105.10172187235
1	7705	363134.371020885421	450.3101552057
1	7714	363641.48444914439	702.68141384671
1	7735	364088.647852207328	66.09770611148
1	7756	365350.234248322687	816.08804183251
1	7761	365462.81027060084	295.534984036
1	7775	366021.764389686152	0
1	7811	367441.270906422597	59.866693783868
1	7825	368143.05781403896	0
1	7837	368596.624164974775	331.44471017047
1	7856	369194.308145927343	168.40242654997
1	7868	369729.31323349021	658.98801246947
1	7879	369791.19492554064	652.95805580824
1	7891	370540.842064402495	979.57125375296
1	7902	370926.998279743264	651.48054262007
1	7910	371035.295663930201	352.83289464237
1	7922	371355.861229435108	527.88468793985
1	7937	372393.428422374947	1359.3636522617
1	7945	372660.77191428455	788.33467042664
1	7984	373886.040695204112	54.946883011062
1	8012	375510.129742033429	11.16702437766
1	8050	377464.153546749809	526.45678136738
1	8058	377956.624998434804	336.00662587258
1	8071	379210.854691975616	248.60562161274
1	8099	380926.766426742311	687.69818856126
1	8112	381366.901234898721	0
1	8138	382756.843404567757	0
1	8156	384052.281938690048	684.29574311137
1	8164	384351.251065670226	0
1	8173	385317.923915664775	0
1	8193	386274.907084276838	284.38301951983
1	8202	386652.727845807788	519.99740775533
1	8216	387805.574745229076	0
1	8231	388445.307989156437	548.14155697962
1	8245	388907.644424870845	923.62153179045
1	8250	389080.235803250823	677.69175718766
1	8262	389470.616249596779	273.21700710595
1	8280	389716.914352423838	94.180709357911
1	8332	391577.44990002183	0
1	8357	392164.91030375392	0
1	8366	392584.803487483528	0
1	8377	393041.053210185748	295.74685167907
1	8399	393850.581134813828	0
1	8416	394428.684523117707	0
1	8450	396644.81759641883	229.61695903623
1	8460	398155.757225711304	0
1	8478	399706.33917984236	0
1	8495	401144.335712616912	0
1	8504	401389.468072530916	0
1	8538	402913.255616824097	0
1	8555	403931.482972916146	0
1	8564	404669.907300910607	0
1	8576	405618.684232599998	892.02161144687
1	8584	406016.626294566545	25.157843629502
1	8613	407412.277584469348	71.848833605792
1	8640	408773.287413421459	12.040743972439
1	8649	409183.220969430384	0
1	8657	409468.522841693664	95.251255486153
1	8683	411001.703669122052	0
1	8713	413391.180508337151	633.6577729334
1	8718	413540.300228542943	461.08033879016
1	8735	414775.039737284951	0
1	8747	415645.130260985194	742.22204331682
1	8778	416911.163523317923	0
1	8786	417131.736204514406	0
1	8794	417369.547714975235	218.00666323666
1	8812	418072.770790732122	605.57885400293
1	8820	418246.827740359901	643.38456280732
1	8826	418334.317644834323	590.18998220608
1	8831	418363.524507804639	600.83452448096
1	8857	419515.680203886245	456.64321709374
1	8903	421363.934960162816	0
1	8912	422221.59599402147	0
1	8930	423441.997151232915	0
1	8954	425636.782316628382	138.39682615189
1	8976	426651.418826301589	111.25460163527
1	8981	426818.009052419409	242.68883893229
1	8990	427434.86276344924	0
1	9007	427849.927434483213	0
1	9040	428987.773790974834	0
1	9049	430077.204318070185	0
1	9068	431419.794345862587	1312.95814482
1	9076	431553.677087395324	1283.1840314933
1	9081	431655.298176615342	301.0134916005
1	9106	432715.613019164475	60.126230910987
1	9143	435074.763502556059	0
1	9162	437314.13128532268	0
1	9170	437433.075566713535	89.991384774405
1	9187	438865.605687928204	0
1	9199	439306.299945633931	384.95270247042
1	9221	440440.759376760698	0
1	9238	441246.834258654664	0
1	9247	441999.927962982164	0
1	9274	444354.772374837933	0
1	9291	445598.76307191441	0
1	9303	446132.792558867803	510.23928406542
1	9317	446853.702136012813	0
1	9326	447498.594932698399	0
1	9350	448066.884298709927	0
1	9359	448616.761800138529	0
1	9416	451365.864224641459	183.72456290118
1	9422	452453.771591598575	1178.0649353895
1	9431	452597.297887686982	1274.9497180383
1	9439	452841.815817788728	308.45273489394
1	9444	452912.768740514926	222.88700407776
1	9459	453500.642582474115	567.52472116957
1	9464	453683.937021585821	288.73112618685
1	9521	456990.343109097978	180.68724252589
1	9532	457560.555488192634	482.27267940519
1	9538	457865.170802981492	672.2749994069
1	9564	459719.163457022167	0
1	9600	463686.206177653428	0
1	9610	465159.770590346708	0
1	9630	468679.651007325891	0
1	9642	469548.555973786489	191.85942392391
1	9664	470456.565067486778	182.22223642091
1	9681	470894.400166004532	250.53312402248
1	9698	471545.826937777657	176.64309630551
1	9706	472107.488695721848	544.32753637478
1	9715	472581.16523886874	0
1	9752	477259.71756283408	0
1	9770	478815.686005886752	0
1	9778	478940.010589835639	27.334465202857
1	9790	479523.865081524193	210.71660729723
1	9795	479638.12692772352	268.72444705255
1	9813	480405.589284141303	197.21141113472
1	9818	480501.383106245373	96.697710662973
1	9832	480986.900547166112	105.16206410375
1	9848	481522.42902997118	273.6339081065
1	9877	482678.297808518706	651.7879077538
1	9888	483245.482322012044	1057.0121618204
1	9893	483259.867566199615	20.163949462674
1	9924	484026.961647535055	63.393991908826
1	9932	484147.723985176002	10.328627202735
1	9962	485371.706383033586	0
1	9970	485532.521757512228	138.7871955281
1	9995	486340.036011468333	0
1	10009	486667.503268525311	96.131160154272
1	10018	487520.01411305581	704.5208174141
1	10049	488573.265091223757	828.63637234932
1	10055	488794.609367439404	738.73071443654
1	10079	489581.557750199315	0
1	10096	490386.102756499249	0
1	10124	491275.637505470735	103.52739295183
1	10150	494405.868844634412	3209.7245568892
1	10155	494422.586234795657	3102.7166863935
1	10160	494450.747586917363	1754.7861881592
1	10169	494695.563876733281	1491.4602071405
1	10180	494800.669362721786	71.475354867993
1	10199	495133.809875819006	120.85121190079
1	10233	496649.696736274457	154.00796325968
1	10247	497191.396011275265	275.25737503306
1	10258	497559.626851909713	250.81454263424
1	10291	499083.363460942501	124.92497696562
1	10307	499489.920946216632	153.35483555759
1	10315	499610.433251127959	88.188202292345
1	10324	499964.308249843668	167.79556189897
1	10359	500900.59414611569	362.72025337204
1	10372	501054.576048115596	81.406401320512
1	10395	502276.594848750022	979.34783365107
1	10401	502465.091653503372	1072.0016287483
1	10440	504601.498553153953	0
1	10468	507748.796010962355	0
1	10485	509071.158702644706	0
1	10495	510374.356638002664	0
1	10503	510818.585497189451	432.86345288092
1	10518	511129.506766514604	233.07445029101
1	10527	511919.649968605675	834.40824499669
1	10542	512935.743942375517	1218.5931073461
1	10547	512979.592484472588	684.73439854733
1	10568	514060.577310731377	765.68841330506
1	10576	514157.422224365235	507.55346599498
1	10588	514509.340971691267	620.45231883
1	10593	514544.66945423581	464.96758266773
1	10601	514661.24651067602	84.700581828462
1	10641	516089.508662777851	185.18293916363
1	10646	516146.661444696192	77.464684720793
1	10716	519322.537719034983	380.52604859757
1	10721	519330.641242406844	378.39992144578
1	10730	519634.453155644635	0.578193046106
1	10739	520738.30553417464	0
1	10747	520885.759440750412	20.593787426769
1	10755	521085.867053331767	0
1	10770	521817.785361508549	446.82762394862
1	10807	523621.261403445894	33.361663872532
1	10816	523876.8635353511	16.899357204572
1	10839	525147.035037812056	901.90146359268
1	10851	525604.501432245735	343.62252178753
1	10883	526687.509479587906	18.741884803892
1	10891	526784.973345466254	19.010890948536
1	10921	527798.568118837684	227.88880528615
1	10929	527955.059378904621	91.610745126209
1	10938	528467.189779244102	90.201654812546
1	10966	530594.555238337507	1427.7743333178
1	10971	530683.201506664103	1446.632984336
1	10979	531163.964715734429	697.13577973995
1	10987	531424.393038629006	43.272714460299
1	10999	532084.171844169369	443.75275719216
1	11004	532111.72877770029	446.84884240155
1	11016	532474.899512582504	311.8224752234
1	11027	532883.61239402646	687.91170468935
1	11062	534492.851765951585	394.42557745818
1	11079	535466.165991428459	849.42553485485
1	11084	535498.838833598822	572.18009045541
1	11142	537585.514557173567	638.49105777758
1	11147	537861.36161451305	707.85838849675
1	11164	538712.112099221545	624.74121930472
1	11230	543459.51018888811	0
1	11238	543778.209385661324	219.15544321452
1	11247	544558.470331846523	56.834456814444
1	11255	544822.987793596103	190.29288330088
1	11272	545482.005459089778	0
1	11313	551123.969692303294	237.74211601985
1	11327	551423.641914292174	47.076799739627
1	11335	551769.744609699797	0
1	11362	553741.253136697882	0
1	11378	554432.600833494857	0
1	11397	556827.91990822961	0
1	11414	557603.642740142696	0
1	11422	557957.952208707234	267.86762468972
1	11431	558305.055806450846	270.53604001555
1	11457	559865.906892028704	0
1	11466	560925.291023473212	0
1	11481	561549.126917547947	432.0690702954
1	11505	562238.863524777012	97.52537212717
1	11525	563768.103117717316	0
1	11542	564057.521831517022	0
1	11559	565724.770228479383	74.579242099022
1	11579	566181.780138511122	317.12208735333
1	11602	567797.558564040835	0
1	11619	568810.404537666574	0
1	11636	569377.563321367714	0
1	11644	569515.7005304557	48.705258487878
1	11661	570415.19484426581	0
1	11679	571154.363932434795	267.02259862219
1	11684	571306.388059963795	283.83414509723
1	11693	571810.971648443692	326.06278359453
1	11716	572714.814023310537	353.2704939083
1	11721	572968.871544179921	482.5109732242
1	11763	574535.663781347417	993.12425150001
1	11769	575179.811641	798.57519944452
1	11788	575812.897391026242	186.43235823384
1	11800	576634.225109471343	772.17930041995
1	11805	576634.768580990792	296.75065085805
1	11814	577258.286968730778	567.70362987911
1	11872	579857.316105726449	0
1	11880	579950.025681433427	0
1	11896	580079.293105746006	1.746948077015
1	11905	581041.559951676754	229.19542661939
1	11922	581386.240008321389	0
1	11942	582125.03152588853	295.20118901182
1	11947	582221.321010010207	245.50245086746
1	11981	584063.054141451969	0
1	12001	585067.591038406983	388.55906149939
1	12023	585828.948364876413	255.69689594212
1	12040	586845.95276534443	6.340266908361
1	12049	587441.66030005198	366.48217365741
1	12083	589224.81410924617	0
1	12092	590026.756111746213	327.6568940448
1	12112	591150.237296530126	388.79059813126
1	12135	592804.104063030546	0
1	12144	593404.160260555904	79.538052022403
1	12161	594229.670556972402	38.471175823549
1	12173	595093.272560849662	90.572166094529
1	12181	595386.337061371982	115.28234704512
1	12204	596833.103983068334	0
1	12213	597474.485802223914	33.336106726891
1	12221	598297.140088097523	231.64609177543
1	12246	599138.569188548333	35.03849800633
1	12275	600186.046092578703	130.14248841158
1	12283	600540.045610226696	406.36596701655
1	12289	601090.796909751967	578.85207842288
1	12306	602194.383251933478	0
1	12328	602446.317794786056	115.83796311879
1	12349	603570.793629187085	1041.1993726364
1	12354	603899.583343503256	401.13750198148
1	12390	605589.641423059837	0
1	12407	606600.016317320601	94.485148178711
1	12433	607935.147360995986	92.739383854702
1	12459	609500.57670095431	18.374202313908
1	12469	611772.284061977193	0
1	12485	613172.822876019774	1074.0943413298
1	12490	613203.064961445411	140.82531899434
1	12507	613849.773954513633	215.68776228168
1	12524	614825.418480996203	381.68246708015
1	12564	617779.840781351351	0
1	12581	618550.247336361848	0
1	12589	618579.969523111172	25.279248249028
1	12599	620055.024795956549	0
1	12617	621038.88133928759	194.52289536104
1	12623	621535.066974711506	511.2406118098
1	12631	621797.187255093586	214.88060817007
1	12685	625003.220125184015	0
1	12695	626692.126050416251	0
1	12706	627311.639465293071	530.82939677088
1	12712	627443.971808992584	269.6998587864
1	12740	629070.700675030145	130.97030141295
1	12752	629410.400577675004	212.03300786088
1	12767	630084.654831532544	703.85886055148
1	12772	630256.618657784062	302.07716364688
1	12780	630400.967679119868	343.7387942851
1	12788	630827.241005183102	525.00852693122
1	12817	631475.735328246552	215.37137738678
1	12822	631696.60092192496	237.37338049265
1	12831	631922.76574008025	142.66528866631
1	12839	631993.818949730062	42.010779267338
1	12920	634931.208094982855	0
1	12928	635108.63704074907	119.59392913419
1	12937	635479.018835457809	0
1	12953	635871.04182095915	125.21703109043
1	12965	636249.940485671765	39.17851972926
1	12973	636318.186372550009	56.159598364612
1	12997	637454.937733123475	1022.5746665836
1	13003	637828.122773154161	1313.9458026754
1	13008	637987.10587622894	647.26372846177
1	13013	638017.395034162981	649.25037410618
1	13027	638356.871492563177	325.21951883153
1	13086	640136.446852018589	0
1	13098	641108.128132733232	288.14311567117
1	13104	641246.394125016526	204.67466909831
1	13112	641660.232321896594	0
1	13121	642065.813380624431	0
1	13140	642704.472720861536	72.057246145893
1	13163	643208.827263542977	75.776258732316
1	13184	643834.340728161856	621.13901647751
1	13189	643976.297687211061	529.12122782309
1	13197	644180.614073924598	36.580717654859
1	13235	645717.856581458391	501.18554028696
1	13270	646905.093132425691	169.0338889006
1	13278	647110.640747264873	12.070723356672
1	13306	648010.475601796306	92.773371626016
1	13315	648583.292626881564	593.01516912651
1	13320	648584.816461846307	271.98437232537
1	13361	650928.589846493837	344.1025248174
1	13369	651012.367399566883	8.577728884426
1	13377	651218.745187457996	171.40521830197
1	13389	651546.764398625459	97.686823717738
1	13412	653138.363023903532	175.65377437561
1	13437	654424.64517238013	33.203079231252
1	13457	655371.22302230731	479.61410525072
1	13462	655605.936901975205	588.89271033459
1	13493	656595.040019618228	2.41012770519
1	13516	658516.039378074599	0
1	13524	658742.114864485446	22.340157637347
1	13533	659198.07851664752	271.65759337318
1	13553	660377.368013073088	203.84698298164
1	13567	660921.476887417341	0
1	13594	663759.039883757282	0
1	13615	665301.703856947376	1304.8015126845
1	13626	665757.076031831109	538.86912542392
1	13632	666017.552761591012	426.61026284484
1	13645	666493.832647224965	0
1	13665	667078.755063084628	76.007319825487
1	13689	669836.31813038053	0
1	13715	671829.37470276907	0
1	13724	672224.737236637336	283.77550187293
1	13741	673568.04465140221	0
1	13750	673976.664090926298	0
1	13758	674138.056995047843	150.41259907132
1	13784	675449.29652825554	0
1	13826	677610.676926570688	0
1	13835	678245.570121267393	71.225877753953
1	13843	678816.609446366213	0
1	13853	680238.159686557886	0
1	13865	680745.386611351553	98.983635395859
1	13908	681396.319905368371	397.48146358663
1	13927	682115.052395853672	0
1	13953	683168.191248604679	195.68473763556
1	13961	683399.807920066214	0
1	13970	684656.82140446753	0
1	13996	686230.823178073939	0
1	14004	686545.173840791528	0
1	14021	686793.85437466177	0
1	14029	687096.141832975334	17.701998902724
1	14044	688041.675644462732	84.173572898741
1	14058	688509.766391123113	382.52215123048
1	14066	688736.675425677042	66.900230723289
1	14080	689398.239392507239	339.48070217482
1	14096	689887.575539732921	0
1	14127	690476.121870050744	110.35264921835
1	14146	690957.315392266964	0
1	14185	692215.737263626975	198.46822340944
1	14190	692508.863613833589	428.80464281885
1	14195	692571.83356125578	423.15900394275
1	14207	692748.782312888275	57.905353102851
1	14212	693015.563142030379	305.34492398742
1	14266	696008.305791077297	468.02066059705
1	14275	696276.009622649998	65.660344781147
1	14283	696462.266433611113	33.318227468394
1	14301	697202.354789034565	350.73766597782
1	14306	697442.7784894762	473.99340886514
1	14318	697760.9517206155	67.487132658797
1	14340	698681.506628172034	149.60999155074
1	14372	700014.138727642469	0
1	14383	700056.2413815721	10.449018115457
1	14401	701563.107127779679	297.11729595743
1	14409	701718.297695366372	129.27577749314
1	14429	702744.499026910196	316.06396490559
1	14457	704189.152843843249	0
1	14496	707034.979248679114	1964.1101230518
1	14505	707470.285459639978	1805.8185616375
1	14510	707508.246094178325	1674.4929203152
1	14515	707680.252639033546	973.63730012211
1	14523	707743.874086395367	642.12340484976
1	14538	708277.048324626482	3.694151566066
1	14566	709799.081298674638	385.34224912827
1	14584	710004.042923354819	0
1	14618	711955.015047711909	0
1	14636	713685.081694822978	0
1	14666	718903.60018153105	0
1	14675	719449.739930942812	489.53614189319
1	14685	721159.252977262053	0
1	14697	721911.186400972982	619.79782491436
1	14717	722913.23234961752	499.80644216616
1	14725	722984.336448471933	26.447524907616
1	14753	724428.393922199133	0
1	14778	725547.368308391367	0
1	14790	726237.089563881435	44.126080320134
1	14802	726958.098352274998	222.341804786
1	14827	727985.648541469345	482.77140360663
1	14832	728126.561227266798	501.98749185527
1	14843	728270.667268606585	46.944519642007
1	14870	729126.631719123041	53.195464638833
1	14887	730136.112569528193	0
1	14896	730439.641295963777	0
1	14929	731599.468711131947	0
1	14941	732230.462277748144	188.66011029226
1	14953	733052.756493606214	990.40349156971
1	14962	734458.805093530484	2132.3827568952
1	14970	734569.427036242355	73.793887065079
1	14979	735193.373910628087	49.870139054163
1	15023	736464.702023722495	0
1	15034	736728.071499336643	246.54832650126
1	15055	738133.356024555734	39.42286884542
1	15068	738570.7385196757	5.697059639111
1	15076	738742.386353404661	142.10931094975
1	15098	739587.402219652865	0
1	15116	740659.928672263409	0
1	15141	741951.612378587161	547.45463896923
1	15150	742439.104928279196	0
1	15166	743124.321426313883	0
1	15186	743438.466740169953	42.652247796881
1	15208	744197.661128621732	0
1	15216	744692.20875600725	0
1	15233	745271.173309465505	0
1	15277	748689.620377878489	0
1	15286	749190.926447283304	0
1	15294	749741.336217099113	0
1	15303	750016.54498922362	0
1	15311	750479.005898880819	0
1	15322	750816.522818562794	171.87271473438
1	15336	751037.053655426605	37.70447305291
1	15344	751247.458771442975	0
1	15359	752076.526037488398	152.7943617578
1	15364	752146.116368123045	89.001090823336
1	15382	752816.237825950914	535.19021028929
1	15387	752860.90662039879	512.42940896791
1	15401	753299.458861605616	939.13631693294
1	15407	753492.3387855491	463.9347872001
1	15448	754570.0142332371	173.3537954517
1	15488	756956.161542521845	1068.3930582105
1	15493	757316.809706794269	1218.6465297539
1	15498	757391.967509761988	595.2584970941
1	15503	757445.063803784419	558.65800732721
1	15557	759425.447444692776	936.2194263226
1	15565	759435.939914966897	924.80500363902
1	15585	760240.499635611925	159.02715669758
1	15605	761197.288557443657	349.07971646684
[...]
7	15450	754586.58771922957	4
7	15455	755265.337874167089	5
7	15459	755414.271495784093	4
7	15462	755613.244824893404	3
7	15472	756161.309883738443	2
7	15475	756378.716137070775	1
7	15491	757316.809706794269	2
7	15496	757391.967509761988	3
7	15501	757445.063803784419	4
7	15506	757470.719693767128	5
7	15521	757970.376439087657	4
7	15551	759329.830389789419	3
7	15559	759434.109349483961	2
7	15563	759435.939914966897	3
7	15569	759684.889457462108	4
7	15573	760033.515574946423	3
7	15579	760124.895351035695	2
7	15588	760246.125787403887	3
7	15613	761871.217286900944	2
7	15618	762181.177575897716	3
7	15622	762427.21204447247	2
7	15626	762458.028493129922	3
7	15632	762993.277597537132	4
7	15645	763142.346043103544	5
7	15654	763464.991387992615	4
7	15666	763659.304051754651	5
7	15671	763927.329531708984	4
7	15674	764089.382681172498	3
7	15677	764170.867526134391	2
7	15681	765049.686905484548	1
7	15714	765981.50589789213	2
7	15724	766534.87661007821	1
7	15741	767035.61380671963	2
7	15751	768184.375822454531	3
7	15754	769037.430208913017	2
7	15768	769259.373189882658	3
7	15776	769322.112225289262	4
7	15785	770134.418431895792	5
7	15787	770442.497343306568	4
7	15795	770524.919110175804	3
7	15801	770600.692521924702	2
7	15804	770731.401431711149	1
7	15821	771871.040750255806	0
7	15837	773413.296646822834	1
7	15845	774153.108771721883	0
7	15852	774629.410091199385	1
7	15857	774686.133093945991	2
7	15878	776211.165323862724	3
7	15883	776259.052826247924	4
7	15887	776291.879274172117	3
7	15894	776609.103466097713	2
7	15898	776930.800521485724	3
7	15903	777166.366599972505	4
7	15916	777460.490339419593	3
7	15920	777929.584808712989	4
7	15924	778035.729608382653	3
7	15927	778070.478815646933	2
7	15931	778686.519973945698	1
7	15945	779283.69256684966	0
7	15967	779990.694107622097	1
7	15982	781666.6406188531	2
7	15985	781854.287257340515	1
7	16003	782908.185839976506	2
7	16008	783352.276584299568	3
7	16011	783525.775790187923	2
7	16025	784262.410759409629	3
7	16028	784301.698393561578	2
7	16042	785008.829963640421	3
7	16044	785120.153350674097	2
7	16058	785211.964059006494	1
7	16061	785359.983885859333	0
7	16065	785670.818162165553	1
7	16078	786602.007938751034	0
7	16096	787382.812220622089	1
7	16105	787789.839418027406	2
7	16110	788168.678229532778	3
7	16119	789120.450229018725	4
7	16121	789169.543836215912	3
7	16130	789587.870994773947	2
7	16143	789960.487979462022	1
7	16147	790255.334650110621	2
7	16161	790655.032001292019	3
7	16163	790870.846408727533	2
7	16180	791094.977671726632	3
7	16186	791227.486923050571	4
7	16188	791480.120310039931	3
7	16193	791670.696064929896	2
7	16214	792668.618945192609	3
7	16219	792679.356029601798	4
7	16221	792851.331352953508	3
7	16227	793005.940138171645	2
7	16230	793011.280835775192	1
7	16247	794294.8763351588	0
7	16262	795350.559836070222	1
7	16265	795445.149811680505	0
7	16279	795569.721397654602	1
7	16281	795606.674978145958	0
7	16303	797421.48868860066	1
7	16307	797455.662531245265	0
7	16311	797633.514380729092	1
7	16315	797674.18045332116	0
7	16319	797740.948784646094	1
7	16333	799333.796047336146	0
7	16351	802474.781058505898	1
7	16353	803127.97495619062	0
7	16368	803759.564155600671	1
7	16380	804632.689657816843	2
7	16385	804718.541872809533	3
7	16387	804798.144268110946	2
7	16393	805022.124035992667	1
7	16410	806496.38927670712	0
7	16414	806554.361375276238	1
7	16419	806875.819874628303	0
7	16434	807301.850759021746	1
7	16439	807336.330792812694	2
7	16443	807344.35662107188	1
7	16467	808103.410580193461	2
7	16472	808116.417761470055	3
7	16478	808391.70907891421	4
7	16480	808541.278031596275	3
7	16488	809048.571081798064	2
7	16498	810578.986529812402	1
7	16514	812321.530877096537	2
7	16517	812779.896210815262	1
7	16531	812830.853047788579	2
7	16538	812943.128844750607	1
7	16542	813259.624500584432	2
7	16552	815400.44236531039	1
7	16565	815670.609952021882	0
7	16570	816043.464351891243	1
7	16586	816609.464568481302	2
7	16594	816745.000722504785	3
7	16598	816836.867262346729	2
7	16602	816930.217995045191	1
7	16606	817029.716563814711	2
7	16630	819507.794037182715	3
7	16635	819844.121650731531	4
7	16637	819861.558818936689	3
7	16652	820331.288579082553	4
7	16654	820846.960564903795	3
7	16662	821111.907417637165	2
7	16672	822046.855265999784	1
7	16677	822189.144018418141	0
7	16699	823773.224111447563	1
7	16705	824733.7528902457	2
7	16707	824861.517854421614	1
7	16722	825544.138285728727	2
7	16729	826260.010711539211	1
7	16733	826754.074030679869	0
7	16740	826845.934398592778	1
7	16746	827257.374400789688	2
7	16765	828097.743294669733	3
7	16768	828934.52142067519	2
7	16782	830070.613110823271	1
7	16786	830094.751489091105	2
7	16793	830340.914731643114	1
7	16803	831708.539450473042	0
7	16818	832726.910767194506	1
7	16827	833546.39679952651	2
7	16838	833875.68293911346	3
7	16845	833951.927289287384	2
7	16855	834478.442777397806	1
7	16859	834709.372403427051	2
7	16864	834790.683878729501	3
7	16869	834816.029736154731	4
7	16884	835455.005682353143	5
7	16892	835484.069637373116	6
7	16896	835591.749304697476	5
7	16899	835695.597684861295	4
7	16903	835857.241029466946	3
7	16907	835921.370124714053	4
7	16912	836124.467408008667	5
7	16917	836196.602082959696	6
7	16921	836343.990696428492	5
7	16930	836811.053495754419	4
7	16933	837250.282060482943	3
7	16942	837478.167123745677	2
7	16950	837712.943588302789	1
7	16963	838376.587755125019	2
7	16967	838627.555028450222	1
7	16987	840384.920952348899	0
7	17000	841649.808296618084	1
7	17020	842357.13501898983	2
7	17026	842629.161861862736	3
7	17031	842991.44384521526	4
7	17040	843363.65864570596	3
7	17047	843509.206516742083	2
7	17053	843730.324552500611	1
7	17066	844471.492689053292	2
7	17070	844506.730584223091	1
7	17073	844590.215241067387	0
7	17081	845427.639321176948	1
7	17086	845522.717734921942	2
7	17091	845564.607602840174	3
7	17095	845916.552542806835	2
7	17120	848150.801115274787	3
7	17134	848434.197054066549	2
7	17146	849100.891964850751	1
7	17149	849424.285020848286	0
7	17154	849497.468317969157	1
7	17167	849757.380125465284	2
7	17176	851563.347106904182	1
7	17179	851771.94586102507	0
7	17193	853118.439564264674	1
7	17198	853183.6425840012	2
7	17208	854435.239804046658	1
7	17224	855197.852604507282	2
7	17232	855259.809492303784	3
7	17238	855481.495422974801	4
7	17252	855881.972857252027	3
7	17264	857049.486444087308	2
7	17273	857364.639387614483	1
7	17289	859274.806648386154	2
7	17298	860034.104472794166	3
7	17301	860591.980050447752	2
7	17318	861906.134356649469	1
7	17321	861991.117684769289	0
7	17325	862120.957148586271	1
7	17331	862662.201218409899	2
7	17335	862946.209713762418	1
7	17338	862997.338654921546	0
7	17351	863568.859185363332	1
7	17376	865043.567866015946	2
7	17384	865208.799086451894	3
7	17392	865376.396924085898	4
7	17394	865697.889110176425	3
7	17415	867305.451866357106	2
7	17420	867722.438146153601	3
7	17432	868492.211873273837	4
7	17437	868592.909096782124	5
7	17441	868623.451483517214	4
7	17444	868711.687756246996	3
7	17448	868762.321797607614	4
7	17452	868777.957033954246	3
7	17455	869080.797129974904	2
7	17459	869122.241032761558	3
7	17463	869135.207045820368	2
7	17478	870351.513694211422	1
7	17490	870602.753181583554	2
7	17506	871011.729712287199	1
7	17510	871167.621645525838	2
7	17517	871719.575556867939	1
7	17522	871852.531123725111	2
7	17527	872210.17587818271	3
7	17552	873361.753361816737	2
7	17564	873596.866678168793	1
7	17579	874719.137386350105	2
7	17586	874975.149611423195	1
7	17589	875057.567994337059	0
7	17594	875710.350179789564	1
7	17608	877655.539734560392	0
7	17627	878852.320335884913	1
7	17631	879064.772583032973	0
7	17635	879156.457497010484	1
7	17649	879977.108104681886	2
7	17652	880397.417045353622	1
7	17666	880962.286227839115	2
7	17676	882076.438267496984	3
7	17678	882666.744438028498	2
7	17683	882827.290793847984	1
7	17687	882913.527725461978	0
7	17702	883485.888377269001	1
7	17708	883761.891438109013	2
7	17726	883972.893483595436	3
7	17729	884891.594379095463	2
7	17737	885255.667604766705	1
7	17742	885264.543882210474	0
7	17761	886562.60240774925	1
7	17768	887046.230492964044	0
7	17772	887071.057293138578	1
7	17782	889192.696167446726	0
7	17798	891391.275250562021	1
7	17806	892019.641715834268	0
7	17810	892290.205260294352	1
7	17824	892863.534776242819	2
7	17833	893292.886353328289	3
7	17835	893460.694992810579	2
7	17849	893850.479655021457	3
7	17852	894245.662092280302	2
7	17857	894259.364760185463	1
7	17869	894771.827647392921	2
7	17883	895368.490952080599	3
7	17886	895737.249283970276	2
7	17894	895879.329668397467	1
7	17899	896542.015011680562	0
7	17918	897900.118835601942	1
7	17936	899376.97220558094	0
7	17940	899447.769422830503	1
7	17949	900220.443510976034	2
7	17954	900237.462905519983	3
7	17959	900449.920069977573	4
7	17964	900611.863204798508	5
7	17981	902562.2008632034	4
7	17986	903044.523845229096	5
7	17996	903400.396769853188	4
7	17999	903442.434449993176	3
7	18007	903572.122468623953	4
7	18018	903830.466693150532	5
7	18022	903979.210132180261	4
7	18025	904070.97836277432	3
7	18033	904385.491497675493	4
7	18038	904647.907649123983	5
7	18042	904711.171023596058	4
7	18045	905131.708813359853	3
7	18053	905606.306981758298	4
7	18058	905650.507100817066	5
7	18063	905703.628893263128	6
7	18067	905709.852944590171	5
7	18074	906134.62616447778	4
7	18078	906374.961342183094	5
7	18086	906728.653826401674	6
7	18091	907082.34480685148	5
7	18094	907113.460588381015	4
7	18097	907234.896238684318	3
7	18101	907304.869633767691	4
7	18108	907562.838309850728	3
7	18112	907750.74129800927	2
7	18115	907878.754442036969	1
7	18123	908020.229877796029	0
7	18127	908320.209415693468	1
7	18131	908442.513167177	0
7	18144	909121.020783449868	1
7	18162	909266.862968561212	2
7	18179	910230.019836152023	3
7	18187	910449.252312314629	2
7	18191	910835.086955625375	3
7	18196	910930.252216351869	4
7	18215	911629.079243264355	3
7	18224	911768.741349326022	4
7	18229	911790.918808268158	5
7	18236	911940.679004016118	4
7	18241	912024.096636953732	5
7	18245	912232.249567007347	4
7	18249	912246.642969749521	5
7	18256	912333.307425245713	4
7	18271	912702.156428917369	5
7	18277	912980.283504961714	6
7	18282	913234.215277807775	7
7	18301	913693.562666111052	6
7	18310	913894.624261665438	5
7	18326	913962.88379681247	4
7	18330	914005.814353249448	5
7	18334	914433.932320668509	4
7	18338	914638.189289408144	3
7	18352	914924.085497916968	2
7	18361	915192.492340133873	3
7	18366	915238.748757205856	4
7	18370	915446.668262356276	3
7	18387	916054.060554149115	2
7	18400	916611.158865304353	3
7	18405	916699.238078313435	4
7	18425	917747.813353546564	3
7	18432	918409.366423542733	2
7	18441	918634.289148466978	3
7	18466	919563.4856505005	4
7	18474	919817.433701674928	3
7	18481	920176.594287066779	4
7	18486	920548.542511736042	5
7	18491	920576.634447748084	6
7	18496	920687.814744379235	5
7	18500	920917.438601924454	6
7	18509	920996.023104816896	5
7	18512	921022.434759230255	4
7	18519	921708.075555259851	3
7	18522	921877.719489986798	2
7	18531	922200.964571655023	3
7	18556	923406.020105653122	4
7	18573	924013.597048741514	3
7	18580	924589.339528907799	2
7	18593	925678.725373625578	3
7	18598	925823.194960477824	2
7	18602	925843.55709735638	3
7	18607	926584.931861998516	4
7	18612	926610.069132286613	3
7	18625	926663.523770545094	2
7	18655	927162.718510089609	3
7	18660	927203.601371856402	4
7	18664	927227.91505837964	3
7	18676	927766.323767404777	2
7	18685	928027.403160394123	3
7	18689	928090.067211908446	2
7	18705	929125.173728597859	3
7	18711	929519.260069640077	4
7	18725	929677.194363050461	3
7	18733	929797.137026857246	2
7	18739	929923.499997984683	1
7	18751	930332.431177391558	0
7	18755	930340.652718672934	1
7	18759	930353.776241695667	0
7	18767	930893.528851279027	1
7	18774	931263.914458132863	0
7	18781	931406.296843841604	1
7	18797	933432.566227424993	2
7	18806	933825.266520932534	3
7	18811	934093.251085662084	4
7	18815	934176.754130352594	3
7	18819	934476.086238179457	2
7	18823	934498.461015315952	3
7	18830	934723.74964504273	2
7	18834	934855.003341113619	3
7	18838	934983.04037159232	2
7	18843	935210.800583284066	3
7	18848	935450.833520606849	4
7	18855	935597.721575991477	3
7	18864	935886.550709468379	4
7	18868	935904.457108871408	3
7	18877	936263.071321971832	2
7	18896	937133.737820907918	1
7	18904	937310.619235645928	0
7	18926	939313.320441065652	1
7	18931	939320.964200495405	2
7	18936	939467.637285109952	1
7	18939	939722.769435087938	0
7	18958	941391.401669913584	1
7	18972	942366.175928276024	2
7	18997	943517.507472526114	1
7	19018	944341.453466938119	2
7	19023	944510.919646471191	3
7	19037	945200.398314968457	4
7	19045	945581.011765222849	3
7	19049	946012.357806990719	4
7	19066	946516.732115057557	5
7	19073	946683.363227280588	4
7	19077	946720.17327027549	5
7	19082	946886.097677994164	6
7	19092	947058.070283476066	5
7	19107	947441.936306228258	4
7	19110	947651.913282450917	3
7	19114	947775.423207965047	4
7	19119	948194.556245906445	3
7	19122	948267.172191092123	2
7	19128	948554.894048478202	1
7	19131	948620.547200670808	0
7	19135	948673.356679944171	1
7	19139	948675.673218925029	0
7	19147	949418.330247177927	1
7	19151	949447.020291356856	0
7	19155	949517.199712269432	1
7	19160	949633.69862099077	2
7	19164	949637.123819534933	1
7	19174	950093.360993720316	0
7	19182	950606.852414660039	1
7	19187	950689.403217465479	2
7	19192	950871.928321792773	3
7	19197	951255.105295027496	4
7	19201	951297.477322377528	3
7	19215	951550.577099608137	2
7	19232	951983.780214750125	3
7	19242	952519.847635940518	2
7	19248	952893.293290128615	1
7	19258	953947.091491014272	2
7	19281	954985.440372825353	3
7	19289	955358.339276663572	4
7	19294	955570.107581910255	5
7	19303	955711.903787428737	4
7	19315	956480.931972337604	3
7	19320	956646.050134235429	4
7	19359	958082.93105697149	5
7	19363	958126.739959311798	4
7	19381	958696.303348162444	5
7	19384	959608.452581727977	4
7	19392	959824.121336816631	3
7	19407	960349.634360400796	4
7	19414	960521.66100289471	3
7	19428	961237.783501135818	4
7	19438	961644.954117301667	3
7	19442	961660.621501078245	4
7	19453	962052.210567120553	3
7	19456	962086.679528476494	2
7	19466	962336.131796287107	3
7	19471	962393.168283835927	4
7	19476	962548.858405339555	5
7	19481	962783.428987787888	4
7	19485	963002.445874921753	5
7	19492	963112.324835325843	4
7	19495	963126.597095890384	3
7	19499	963209.92468242864	4
7	19503	963253.136296368601	3
7	19507	963287.559333835358	4
7	19512	963400.686444566353	5
7	19521	963767.420797948497	6
7	19526	963885.589107584321	7
7	19530	963946.291857291633	6
7	19536	964254.647562299622	5
7	19540	964312.188375503179	4
7	19543	964418.732382493097	3
7	19546	964626.257646850623	2
7	19550	964876.544790309724	3
7	19556	965414.512847778197	4
7	19575	966060.144845160473	5
7	19579	966176.949395997913	4
7	19582	966300.50977664724	3
7	19585	966568.889914729361	2
7	19588	966863.538162511718	1
7	19597	967069.225688053891	0
7	19644	968944.126289547202	1
7	19649	969050.287482393088	2
7	19662	969298.541610689352	3
7	19676	970406.591081574501	2
7	19687	970695.729836304096	1
7	19691	970789.177794774005	2
7	19696	970865.602843539281	3
7	19710	971094.707335805309	2
7	19725	971591.116583420807	1
7	19728	971614.609628175543	0
7	19732	971807.714126231722	1
7	19739	972002.840887475934	0
7	19744	972249.351224762716	1
7	19752	972566.389001890522	2
7	19762	972728.86224280991	1
7	19767	973078.947066590609	2
7	19771	973153.612818354632	1
7	19776	974043.278232899899	2
7	19785	974672.799722838796	3
7	19790	975177.385591045662	4
7	19794	975216.624677377495	3
7	19820	976110.863416798967	4
7	19826	976316.494616698948	5
7	19839	976696.384143964607	6
7	19843	976699.324922378666	5
7	19854	977047.931622193694	4
7	19863	977607.360147720706	3
7	19867	977757.648285242374	4
7	19872	978145.257059177679	3
7	19917	980189.209946957262	2
7	19926	980644.053300163688	1
7	19934	981008.382602238878	0
7	19953	981782.049656490073	1
7	19958	982084.225381902736	2
7	19967	982375.618189474472	3
7	19975	982519.460864801847	4
7	19980	982572.369412835818	5
7	19992	982725.340444004472	4
7	19996	982975.367810446664	5
7	20003	983036.158633705348	4
7	20025	983589.349522624071	5
7	20030	983605.520790487729	6
7	20034	983776.559655036222	5
7	20037	983834.010704005521	4
7	20042	984022.537879961224	5
7	20047	984065.023753120856	6
7	20052	984068.495029168058	7
7	20056	984092.745455577261	6
7	20059	984373.361879329684	5
7	20065	984791.569602296878	4
7	20074	984981.319643351075	3
7	20077	985120.39446616145	2
7	20081	985235.103851769742	3
7	20085	985324.66594970605	2
7	20108	986305.868530193321	3
7	20137	989337.082039406818	2
7	20141	989445.276504076251	3
7	20145	989647.58895279627	2
7	20148	989734.699427157288	1
7	20152	989929.396445816341	2
7	20184	990537.138744984803	3
7	20189	990554.719675690179	4
7	20198	991988.755900558902	3
7	20203	992221.155529604771	2
7	20222	994406.751727490452	1
7	20229	994892.055788142593	2
7	20234	994910.544506563914	3
7	20247	995533.93426359789	2
7	20251	995558.663556491188	3
7	20258	995813.266346243589	2
7	20268	996091.713273741316	3
7	20282	997227.386175122106	4
7	20285	997738.193568685805	3
7	20299	998426.11091594507	4
7	20301	998476.988774241915	3
7	20315	998951.265837408521	2
7	20319	999257.556996893564	3
7	20333	999729.659400526961	4
7	20341	999929.080990653743	5
7	20343	999968.969952092289	4
7	20355	1000880.742882121281	3
7	20364	1001133.359554256798	4
7	20369	1001306.680807724105	3
7	20373	1001475.563574259479	4
7	20377	1001710.091929298902	3
7	20396	1002929.653259920085	4
7	20403	1003390.657223290755	3
7	20422	1004692.96378848613	4
7	20427	1004898.956115273354	5
7	20434	1005293.954231677191	4
7	20438	1005545.092066799629	3
7	20441	1005935.656029692329	2
7	20444	1006135.847157868323	1
7	20448	1006217.54001805147	2
7	20457	1006302.33211802776	1
7	20476	1007686.592553540909	2
7	20490	1008468.323476473916	3
7	20498	1008912.211565120695	2
7	20503	1008936.445810215441	1
7	20515	1009477.216412017223	2
7	20533	1010959.12722195598	3
7	20538	1011091.838383060709	4
7	20547	1011471.219332152218	5
7	20549	1011558.118370357387	4
7	20557	1011730.139251301688	3
7	20572	1013057.407901886118	4
7	20581	1013538.850150728192	5
7	20583	1013944.523067097563	4
7	20592	1014035.637228281985	3
7	20600	1014427.180696539807	2
7	20609	1014992.601043334435	1
7	20617	1015592.449178657507	0
7	20632	1016003.028609519144	1
7	20634	1016051.847311242016	0
7	20648	1016470.665626189987	1
7	20650	1016510.335711150559	0
7	20671	1019163.482582022751	1
7	20675	1019219.461906658217	0
7	20679	1019404.162520780521	1
7	20693	1020070.785132250193	2
7	20700	1020245.426451682647	1
7	20704	1020277.368175208392	2
7	20717	1020452.769609945222	3
7	20719	1020666.120594355697	2
7	20725	1021207.839277658902	1
7	20754	1023190.436315331264	2
7	20759	1023379.841111520159	3
7	20764	1023756.589568033484	2
7	20768	1023782.778465057831	3
7	20772	1023883.219959374682	2
7	20776	1023943.55373492594	3
7	20781	1024223.926816764661	4
7	20786	1024283.012709546938	5
7	20790	1024290.420285536253	4
7	20794	1024340.487276144887	3
7	20812	1024836.474731850149	2
7	20840	1027257.125584933738	3
7	20845	1027500.418513385176	4
7	20848	1028068.033014312488	3
7	20861	1028233.713401240447	2
7	20865	1028437.39165450347	3
7	20882	1029041.788637410247	4
7	20887	1029152.72172588739	5
7	20889	1029420.933272920236	4
7	20898	1029494.406554858371	3
7	20906	1029946.816949104137	2
7	20909	1030052.543764358576	1
7	20912	1030062.676020770504	0
7	20916	1030147.074044397026	1
7	20930	1030342.680105479246	2
7	20943	1030967.973549790678	3
7	20956	1031477.976389648584	2
7	20972	1031815.023661495396	1
7	20976	1031930.389351513544	2
7	20984	1032238.449412697883	1
7	20992	1033270.533698862027	2
7	21002	1033579.823989512578	1
7	21008	1033598.034161640207	0
7	21012	1033646.079719166836	1
7	21017	1033733.621795627553	2
7	21026	1033939.879063406828	3
7	21030	1033998.263639296692	2
7	21033	1034544.218878034147	1
7	21037	1034603.53257448564	0
7	21044	1035041.494617712898	1
7	21050	1035529.181568824803	2
7	21055	1035798.390098911055	3
7	21060	1035842.708769235772	4
7	21080	1036434.380960228462	3
7	21083	1036552.652928961528	2
