version 2
run ParkingMeasurement-129-20170108-17:27:54-4085
attr configname ParkingMeasurement
attr datetime 20170108-17:27:54
attr experiment ParkingMeasurement
attr inifile parkingStudy.ini
attr iterationvars ""
attr iterationvars2 $repetition=129
attr measurement ""
attr network controltower.SimNetwork
attr processid 4085
attr repetition 129
attr replication #129
attr resultdir results
attr runnumber 129
attr seedset 129
param SimNetwork.a.parkingLot.parkingDelay exponential(30min)
param SimNetwork.a.runway.landingTime exponential(5min)
param SimNetwork.a.runway.takeoffTime exponential(5min)
param SimNetwork.a.runway.throughputCheckInterval 14.286min
param SimNetwork.wg.interArrivalTime exponential(14.286min)

vector 2  SimNetwork.a.landingQueue  queueLength:vector  ETV
attr source  queueLengthSignal
vector 1  SimNetwork.a.landingQueue  queueTime:vector  ETV
attr source  queueTimeSignal
vector 7  SimNetwork.a.parkingLot  parkingOccupancy:vector  ETV
attr source  parkingOccupancy
vector 4  SimNetwork.a.takeoffQueue  queueLength:vector  ETV
attr source  queueLengthSignal
vector 3  SimNetwork.a.takeoffQueue  queueTime:vector  ETV
attr source  queueTimeSignal
vector 5  SimNetwork.a.runway  landedThroughput:vector  ETV
attr source  landedThroughputSignal
vector 6  SimNetwork.a.runway  tookoffThroughput:vector  ETV
attr source  tookoffThroughputSignal
vector 0  SimNetwork.wg  responseTime:vector  ETV
attr source  responseTimeSignal
0	2271	100409.559014273507	4588.471521776
0	2276	100575.862509232404	7594.0795941874
0	2288	101288.017409006947	7347.1383065238
0	2301	101623.484984927961	1378.8559788847
0	2309	101745.369330691355	2636.6794049619
0	2320	103843.534932277616	7179.43678545
0	2362	107991.732213387996	8681.9669593876
0	2368	108100.216828174459	7100.277108509
0	2376	108223.151531158839	2750.2967440775
0	2398	108865.715802329541	2349.1746140068
0	2415	109826.378143400337	1485.8526078771
0	2427	113384.902112562867	7387.0582839515
0	2461	114851.515084001674	886.22007305284
0	2484	115725.323553488627	7505.9014047524
0	2494	116488.885638826557	2508.2525369181
0	2515	117813.042183201831	8536.0435339464
0	2520	117953.348760869038	3215.376096613
0	2537	118482.773634638406	2958.1364792835
0	2575	120664.617703709392	3753.53150625
0	2603	122519.217880579829	8035.4851228071
0	2609	122584.666487180407	4478.6960388866
0	2614	123020.20181715267	3494.4723057668
0	2669	125542.051478157202	5212.1333461516
0	2680	126324.894286304054	6534.3657051918
0	2686	127002.446346674554	3260.9797030788
0	2691	127025.765063614292	3246.3442329844
0	2702	127545.339516508828	5357.8732614456
0	2711	127736.629642310001	3109.719921513
0	2716	127857.276453200492	7864.1446638684
0	2735	130696.752990579261	5185.4024049626
0	2755	131941.470172658846	2372.730185033
0	2812	133940.311735424323	10874.150902736
0	2826	134799.929983055635	2718.8412734442
0	2831	134847.404458360207	1991.6372874909
0	2836	134927.710678286757	1827.8222986548
0	2854	136433.072573340812	4742.7796787118
0	2874	137712.400733297157	6851.6754045137
0	2882	137910.196646242376	4324.9237975799
0	2895	138889.216506451159	3564.4511698637
0	2905	139201.248011415274	6540.2774178386
0	2914	139985.674407080142	3085.1311069599
0	2982	143849.005496477028	2384.4077281916
0	2991	144307.664793508705	1262.781221091
0	3006	145225.736854488185	4906.8892618419
0	3034	146133.285299913332	3979.7953699203
0	3042	146311.733115750172	4657.6530144815
0	3059	146686.546140989012	5729.3430159999
0	3093	148791.53957047139	5617.5345486017
0	3115	149298.923051243159	4068.6141847384
0	3134	149745.909256042775	2745.2638290397
0	3145	149915.386912374148	2624.1780563923
0	3151	150095.731160789466	3844.5243414197
0	3166	151651.63354968218	13737.799328125
0	3186	153080.73144368987	4523.4956276879
0	3191	153153.341775301841	7991.1382869908
0	3200	153614.323521583248	4692.9661328882
0	3205	153905.003656357488	7266.9974289694
0	3210	153935.489936498141	4699.5386100194
0	3251	155599.188867944913	5282.4082662435
0	3349	159267.961556906202	4798.6967078163
0	3359	159312.89511027236	7086.6381644427
0	3391	161207.06460412466	6690.5121722526
0	3423	162331.753596801838	7435.9173316065
0	3428	162359.488163131598	7191.8337775713
0	3443	163596.485116957768	7823.8453028669
0	3457	164081.650262323523	7423.0115264632
0	3467	164205.654215442033	5075.9944568143
0	3479	164645.620803511746	7124.0646820358
0	3487	164781.678468366502	7584.4173971019
0	3506	165354.160726159106	8537.5679964411
0	3525	166171.148597359729	9953.5403717057
0	3539	166419.811401978259	6027.3941929258
0	3544	166454.351336778579	5714.8350155256
0	3550	167245.060654671394	8031.0810770395
0	3558	167374.794568861897	6622.973541292
0	3563	167508.552936608662	12251.789008092
0	3568	167544.127212414987	4162.0087774395
0	3573	167800.758095899098	2652.351826303
0	3581	167887.636798383253	2672.9933479254
0	3621	169071.292665153566	8434.4986061163
0	3626	169274.167499372863	5385.038586921
0	3634	169616.967038843438	4876.5536370188
0	3651	169991.95777637339	2071.6649617026
0	3663	170620.708412298929	4505.1383861258
0	3698	171681.729808990524	3297.7562688846
0	3703	171776.210087227052	2335.5447077784
0	3712	172434.26185850555	2440.3232162353
0	3723	172737.393941061555	2730.5096596318
0	3765	174383.34170678102	1496.7454413534
0	3770	174384.383644559772	3406.7563543143
0	3782	175593.404337610315	7751.5429951176
0	3791	175742.090699761149	4685.308198724
0	3796	176222.501249739155	3495.9724400178
0	3856	181046.438880728518	7120.1576046904
0	3861	181194.561937075549	4801.0531023542
0	3866	181209.966925196578	7868.1142057374
0	3894	182393.155285094534	5974.7198217438
0	3911	182911.168729903202	3845.2738643824
0	3916	183109.276762878938	1177.2296710285
0	3945	184734.006102101769	4213.7440297948
0	3954	185520.713201208285	3180.9116231051
0	3968	186197.138909218415	7533.4163566063
0	3980	187576.658726156192	3481.8752493132
0	4003	188853.014380265124	3398.5417792762
0	4103	192912.628613010403	11341.580677692
0	4109	193754.483450010734	9704.7135887159
0	4117	193875.584950931452	4826.9012696103
0	4128	194069.055493508658	6571.5918673642
0	4134	195098.567530485449	6724.0235872523
0	4139	195152.543390130525	5272.1368874486
0	4144	195239.947201377814	4370.9298125592
0	4149	195260.782164901771	3057.3275885709
0	4154	195356.004608968	5591.2819849384
0	4163	195459.877954600961	4057.9421715328
0	4174	195793.007057365444	6327.7652210601
0	4203	197253.415423907458	7158.2702461684
0	4216	197796.761390264455	5336.3021413534
0	4222	198027.259400331154	2298.7528459275
0	4255	199469.062617854302	3308.9333030148
0	4272	200090.558729937673	1995.8454875943
0	4296	200436.777951602321	269.41623288818
0	4311	201142.392212769002	1387.1858302928
0	4321	201371.890297038897	3022.6015774676
0	4337	202798.272471243163	2585.3938718111
0	4348	203423.307641436783	5367.9970596631
0	4381	204422.551664357748	637.40822501683
0	4389	204549.020750338257	1001.3341670591
0	4404	205623.144460151831	4984.7867580531
0	4410	205772.005369597841	8646.6682639192
0	4415	206144.112892013638	3723.1576235839
0	4444	207443.252290365738	1157.9134393411
0	4460	208095.419722882487	1494.6857660566
0	4465	208231.601367327725	4074.786506252
0	4512	211388.474042723809	4095.2966357397
0	4517	211474.455551872171	1717.7233983788
0	4525	211642.6707108043	2504.0209220052
0	4546	212610.411228043246	1672.5097883387
0	4551	212681.790320509624	2884.1415783679
0	4589	217681.441167961014	5601.0351000587
0	4630	218730.194732793863	4290.6043338705
0	4648	219831.85173956941	1941.2441697124
0	4676	220912.378093617321	4095.1082574676
0	4687	221421.474011312502	8297.104953575
0	4692	221860.358323697298	4322.5387882614
0	4711	223189.844848710447	6122.0141530486
0	4726	223630.463411960524	3992.8028396467
0	4732	223841.504852473964	5684.3242053444
0	4743	224141.368442921167	4089.778656563
0	4756	224356.325264996944	3471.7793129356
0	4768	225203.033222504378	2733.3337496571
0	4791	226119.937988423795	2031.3674421683
0	4807	226480.835702460102	4600.4433821526
0	4822	227316.038393271254	1663.6649423294
0	4839	228707.028212578866	3753.9196184388
0	4853	228990.888550558471	3289.9026619616
0	4895	231005.731339860034	4216.9710877423
0	4903	231026.342762356804	2038.3834437108
0	4908	231113.009735324635	2996.6448753553
0	4920	231660.696085994164	1907.1214893165
0	4945	232754.352486240802	2663.0515620149
0	4951	233221.326362988443	1587.3402816797
0	4975	233984.211717669322	4930.1650219594
0	5009	235263.248119190031	1949.273225397
0	5017	235498.272331606382	1077.8628687409
0	5026	236512.848335544871	2310.2097713775
0	5035	236748.020061250148	3189.1165546715
0	5056	238658.215635219919	6671.5913829132
0	5061	238701.016932313402	4104.1060454239
0	5110	241000.688307653762	4118.3563222107
0	5123	241412.927706441861	1046.989285264
0	5131	241713.776050394513	1020.9825338694
0	5140	241868.263714442557	1134.4087822041
0	5153	242068.889189104593	2783.6440189173
0	5185	243650.845514665697	1837.2995092866
0	5207	244488.79414514193	1707.1295048487
0	5220	245003.904779412896	1520.003717232
0	5229	245279.232860539237	4296.9812232183
0	5394	253574.670075680647	11229.852118523
0	5403	253790.891983764895	10208.101376
0	5408	253856.286333156299	9405.7038568275
0	5413	253966.041435992382	7281.08372024
0	5418	254008.825979207478	7902.3938526455
0	5426	254088.641852920347	6266.87540708
0	5437	255215.487430369549	7962.8311703776
0	5442	255266.732196120667	7230.898918368
0	5448	255453.961691941592	6621.5233795936
0	5456	255582.366143868619	6119.7722795429
0	5484	256390.484959651926	6641.8994593619
0	5494	256685.06940780677	9501.1488783477
0	5505	257116.393859210426	6008.2497028037
0	5511	257282.855297301466	9569.0731050625
0	5516	257360.501994364039	7191.4509284941
0	5521	257525.981867554351	5665.4526488514
0	5527	258367.719857093485	4346.7484959334
0	5532	258466.697447116958	2917.589597382
0	5550	259219.689696369845	9864.567516778
0	5574	259923.092981518305	3999.9185640252
0	5598	262281.47296498792	3283.1826312981
0	5604	262416.594476605452	6110.8129094598
0	5609	262497.313574046844	2893.7073898344
0	5634	263784.523540662896	4871.9999262822
0	5643	264163.235967542932	3638.0785783194
0	5652	265120.028521355666	2446.9242317606
0	5698	267605.422551751461	2139.1480736251
0	5709	267816.941575447764	1444.411874261
0	5764	270788.841704979831	4936.7359799622
0	5789	271222.147638343507	4679.7745636255
0	5809	272561.105855127172	9513.6550917341
0	5825	273412.16457656968	5802.2231443147
0	5831	273497.182277275851	5110.8717062753
0	5836	273983.624028682334	6116.1316438568
0	5844	274125.611549470495	5439.1056815669
0	5849	274134.449005560894	3202.2070288293
0	5855	274484.337840715	3775.1911985923
0	5875	275481.893359176042	4357.9362570582
0	5880	275553.482906254227	4266.0775568577
0	5897	276579.505711567451	4879.8986496202
0	5927	279348.6385454293	1889.4573574172
0	5933	279644.618735922794	3625.3337401443
0	5941	280244.865361590749	5540.7459275326
0	5986	283342.316020583977	4891.7110041066
0	6000	284076.888152463638	3254.6171794195
0	6102	287733.026046384563	5773.6646863086
0	6107	287824.9721353172	4075.5950597876
0	6122	288368.975386555205	3544.2673793695
0	6150	289830.083934580165	5374.7711439723
0	6158	289920.447719944329	5131.3174239631
0	6163	290021.46757792796	7881.4172967681
0	6168	290040.583735202551	4976.4632037901
0	6174	290738.376482292269	5847.8811975305
0	6179	290836.614354493988	7590.7626160914
0	6184	291397.155624203609	6284.6070152829
0	6189	291407.207265403003	5220.4382980973
0	6198	291594.750021415454	6087.4559510004
0	6206	291899.866341301715	3932.7026240863
0	6219	292132.307372800253	4298.4551525029
0	6228	292656.468218881445	4422.3386461885
0	6254	294224.815099719005	2575.8666471044
0	6282	295349.052472911912	2648.8772494438
0	6294	296400.626966978786	2654.822730664
0	6305	296757.449476566407	2115.0252861871
0	6323	298500.205075728234	3837.0653512412
0	6376	300350.429865467829	4994.5860414324
0	6384	300489.02355912952	1815.9966161117
0	6389	300530.048034274358	2724.0642944542
0	6406	301279.213399726981	1349.3314483761
0	6418	302423.848482584911	3045.2122849278
0	6424	302724.847176812834	3918.1330974355
0	6441	303519.346283366651	4934.789118127
0	6472	304568.267873135905	1360.4731484549
0	6485	304747.174266605418	3768.5412421502
0	6530	308532.515250420962	4481.3300755612
0	6552	309145.302268755917	5406.4727129268
0	6557	309350.63187146587	4825.8507235389
0	6562	309408.907093327486	4455.5190950234
0	6568	309451.621633495729	4156.9340440765
0	6583	310405.60413065802	2375.650724324
0	6613	311458.843104752207	6822.3161327991
0	6618	311664.434316363353	1072.4943602526
0	6630	312293.969568976984	3539.7215688483
0	6635	312683.994411683761	2834.1610803295
0	6656	316748.934463720374	6008.5392726823
0	6672	317083.383187846558	1230.156194017
0	6706	318858.312559772218	1560.766606858
0	6766	320879.109881684637	2524.342467624
0	6787	321254.713620811482	4503.1439269321
0	6792	321318.199080485763	1132.0798962754
0	6816	322039.257692669001	3346.0191849934
0	6844	323166.060726045945	3233.1065663891
0	6856	324088.610963875759	4903.9454310554
0	6878	324969.307830721401	4551.5748051371
0	6895	326057.198388771959	7050.5487088431
0	6903	326100.457745914617	5405.6443334625
0	6908	326536.205330121507	4821.6837552178
0	6914	327105.525927851999	3522.3221617942
0	6919	327307.608969053185	5795.2570894189
0	6928	327520.84117439826	7039.5192574032
0	6933	327910.485603180291	4196.4856335753
0	6950	328487.687084690216	3837.1632304367
0	6959	329503.470063301929	8171.2746623194
0	6999	331542.121231710056	3522.6147950118
0	7017	332724.755285723277	2635.5999204698
0	7022	332852.737107893975	1927.3512119026
0	7027	332873.722874715234	2306.4618176595
0	7055	336345.02027904665	5303.6515548841
0	7121	339398.039965825075	4100.8133204364
0	7137	340239.652355502265	4921.4239354712
0	7152	340407.049627195551	3217.2484784991
0	7162	340967.057318321176	4041.0540045324
0	7170	341038.353606818669	3745.4554164006
0	7183	342118.967251798954	4625.3611505
0	7193	342837.88876082628	3759.0975108952
0	7199	343066.860636301943	6593.5088138237
0	7241	345922.218549008467	5563.341529016
0	7269	347419.974312490617	2879.8768073754
0	7277	347907.112934422252	6784.8539291965
0	7291	348820.214956630691	9755.9717409321
0	7297	348955.364462385193	3037.9895143537
0	7302	349290.575060676592	3648.7779242488
0	7310	349606.399280458851	4880.8648016572
0	7319	349769.954572708187	3831.5508711367
0	7363	351414.262005921891	1618.2852596206
0	7369	351521.834558280981	3639.7393626359
0	7398	353178.920662527903	3269.744851046
0	7409	353277.342811726503	3330.3107795869
0	7414	353500.398181868156	1662.2204067
0	7419	353544.634444916999	3086.8489400911
0	7453	356765.395624348617	4582.122151362
0	7470	357727.815495187381	2305.053848234
0	7566	360317.589583558388	4857.1641513085
0	7571	360335.492607201451	1738.5344984774
0	7591	360792.823027031723	1366.7365384582
0	7611	361629.391675944476	5184.7069253216
0	7648	362781.571351239228	4875.2836838296
0	7659	363011.253811080919	4729.366694214
0	7673	363206.320495769525	6037.5842455817
0	7719	365560.627311941745	7318.3652802297
0	7741	366382.905675986989	8896.6678033128
0	7746	366455.973762196249	6607.9080092267
0	7765	367869.908474933837	9794.115031766
0	7770	368047.788967490587	6538.0784630069
0	7775	368104.656271699351	8500.5930743203
0	7780	368123.234049970252	7345.2083467048
0	7785	368266.185153556815	6404.6483805046
0	7791	368840.061081718612	8753.1401853445
0	7796	368999.261598071403	5912.7806971128
0	7801	369380.583210691167	6279.7048512701
0	7807	369486.513588017602	6220.2184335513
0	7812	369512.648590716298	4146.9048075284
0	7820	369640.315887240332	8328.8894875937
0	7834	370773.958542725727	7716.8059083478
0	7849	372152.857209198983	6462.4786142706
0	7858	373002.080819664061	3396.2317933105
0	7874	373580.797868124695	3014.6252622443
0	7901	376016.71861428579	2855.2559927045
0	7927	377190.884135274496	3368.0669120944
0	7938	377861.241516157849	1202.6513235972
0	7944	378022.086347936033	2467.7509111492
0	7961	379030.192304063607	2246.5669399994
0	7978	380071.906217933235	1987.4861480013
0	8009	383206.367940355747	4157.8294995756
0	8030	383667.593626258535	1558.589895428
0	8070	386761.850745944392	3613.0806070498
0	8103	388172.947547458137	5904.7068053126
0	8114	388519.286303258533	5108.0922178393
0	8122	389043.812656213101	4874.9498254725
0	8149	391073.599619715487	5473.5507079219
0	8154	391083.550071117113	6210.5988830185
0	8162	391544.405092113692	5930.6360038286
0	8167	391715.795479774621	3722.7909208776
0	8176	391880.631567366822	4760.9270457243
0	8193	393416.189226296871	4880.9545832577
0	8278	396710.510733979477	4198.1507006169
0	8283	396722.77361601846	7038.4228295083
0	8298	397118.635078714079	2410.5935319975
0	8303	397262.655757636068	2891.4401486185
0	8315	397728.285020857017	4193.1937965529
0	8336	398347.298438400795	4495.5651667623
0	8353	399069.004225496652	4078.8351475589
0	8364	399449.014340491033	4409.6643512842
0	8372	400197.74887454669	5640.7091653938
0	8377	400255.444838877238	2631.0305281363
0	8394	400932.482452564109	2745.8292575601
0	8402	401106.649507131386	3781.4335754785
0	8420	402750.64860271544	3836.3024870734
0	8446	403853.921211443303	1791.6335867065
0	8454	404088.770242164466	3559.5912184124
0	8480	407325.56715403288	11663.278841928
0	8498	407954.919213410844	4782.2363866769
0	8507	408367.353771448089	2302.5430592076
0	8534	409848.859793670017	3253.406004269
0	8584	411805.279741335994	4893.7227825584
0	8724	416699.252665278249	13652.82821246
0	8746	417132.175172215151	7935.5881568477
0	8754	417232.463055877148	8509.9790255402
0	8771	417832.232559722626	7129.2503460549
0	8776	418010.799383553818	8738.2917668585
0	8784	418037.718375825569	7527.6735341283
0	8795	418296.327996842148	7523.3209144019
0	8800	418329.584098944601	7498.3473587349
0	8808	418559.085632164428	7684.6820131345
0	8813	418612.231500699449	7264.8543032004
0	8818	418668.365823692701	6598.287556292
0	8826	418938.810959195711	5674.0386925315
0	8843	419197.834024096823	3213.1716075156
0	8858	419226.074974107398	8246.2966075379
0	8875	419876.284031666345	6994.1440591678
0	8928	423295.976421391713	7968.3733142366
0	8957	424364.075968000577	8273.607178159
0	8983	425033.483118336362	10871.256142189
0	8989	425386.398249108379	8722.9159634032
0	9004	426075.091993377815	8918.5463796426
0	9014	426335.886405469675	15155.304140894
0	9022	426537.883304025596	8507.623916446
0	9030	426751.391835076792	7603.8105678189
0	9035	426795.798614162484	8026.1100598739
0	9042	427741.546615555008	8580.2074155268
0	9050	428143.806411828991	8773.5875966668
0	9061	428782.307136134514	8200.0418248051
0	9069	429218.240801966167	7458.0634940277
0	9080	429549.079085844427	8233.9760836343
0	9091	429942.652904665224	6651.248048548
0	9105	430595.599356832936	6605.6743942558
0	9111	431549.337580165182	7476.4386166794
0	9116	431622.672461133939	8499.5607803514
0	9121	431770.962702514239	5886.9115432706
0	9127	432052.766264945114	7237.4194285411
0	9169	434248.986873985339	1303.6481707983
0	9178	434631.009266548448	1102.7520515994
0	9186	434896.363473216153	2114.681944953
0	9225	437263.462277574	8120.9214992422
0	9290	439961.72129057047	10172.32701002
0	9300	440234.532659419175	12155.488034758
0	9308	440394.357231261925	4801.548387178
0	9314	440657.5183736561	4332.5841343842
0	9325	440876.254538903466	5388.2686664081
0	9336	441254.043045987024	3910.7277296336
0	9355	441554.144327459009	3296.1142369622
0	9360	441746.81814910493	5309.9718559152
0	9368	442284.659175745463	4028.7032078964
0	9374	442448.962801531374	1459.4279856439
0	9379	442558.874714303029	3248.4033885468
0	9395	444023.429903795393	6938.6972893109
0	9413	444583.172281034499	11051.497721481
0	9422	445568.410873706273	2018.8488212296
0	9431	446017.032468982268	4915.5015485499
0	9509	451147.165121260231	2286.1180587018
0	9517	451392.227364541962	1300.3992770873
0	9525	451613.602340452091	994.28923528517
0	9537	452043.785651580025	2919.8817523067
0	9612	455256.356153437362	4756.6408666633
0	9630	455591.444808604201	7446.1822064747
0	9635	455601.365103448531	3640.2066374299
0	9640	455858.725568719798	3289.6419002304
0	9652	456836.957494983943	4266.0020566351
0	9658	456965.75896836468	6184.5554006983
0	9663	457052.143227632049	3375.2732089869
0	9671	457183.436335424766	4147.2040208622
0	9682	457717.823208017643	13946.294840794
0	9701	458365.383906454065	8963.5320123818
0	9713	458944.069118661981	5331.7645169601
0	9721	459349.012311215232	4820.5622657662
0	9759	460235.975184056043	1110.3196267187
0	9780	461697.283908445805	4279.0491052897
0	9785	461737.852674253345	2057.0458031069
0	9794	462157.215833498588	7312.7737336343
0	9802	462625.447557577852	2775.0768180078
0	9819	462898.784309766886	3257.4463573485
0	9839	464282.169081536029	3778.046018054
0	9844	464577.877849581139	7022.3402679845
0	9874	469221.962410578533	3204.0374750924
0	9882	469322.499160123156	6674.3522132205
0	9927	470711.158152358356	7741.3260908374
0	9932	471022.379664467522	1655.6304074682
0	9943	471425.29745600647	3305.1052612088
0	9957	472057.844358138559	2477.0809027024
0	9969	472376.87971237121	2978.663010758
0	9974	472388.016944727622	1920.7153706218
0	9990	473069.540126811777	1740.0062295513
0	10018	475751.577830225776	3302.245237116
0	10026	476201.330337119546	1269.591875996
0	10048	478711.305104967264	3442.0888542571
0	10062	479848.946163266946	2029.3589388758
0	10106	483119.432218742163	909.03280798634
0	10158	486134.015954451046	3542.512800583
0	10166	486232.366894250012	632.06099131266
0	10174	486681.326706742417	3539.9913110196
0	10186	486899.684550876844	5571.3149458007
0	10194	486986.03601853563	4423.2269391618
0	10211	488037.943261340982	4772.0777779
0	10223	489166.665481352247	3471.2221249158
0	10236	489386.382721930798	11232.196568546
0	10256	490241.137976623057	1830.4992868636
0	10270	490746.567986813743	3841.9097307294
0	10380	496722.396267218454	7417.6632266138
0	10385	496810.690983363592	4720.7254896354
0	10393	497148.687054981903	6673.5600836549
0	10418	497533.742208964253	12647.863461615
0	10423	497560.994167442491	7585.8523730389
0	10428	497715.072793084891	6942.6178774669
0	10433	497736.045565501839	2936.6523014861
0	10442	498060.893531585011	4801.5156876531
0	10603	507032.207429979487	11449.962442189
0	10615	507803.756636921262	10969.463606422
0	10628	508274.197017832877	15961.347211637
0	10634	508321.087046183533	13814.25064283
0	10642	508371.591860323234	9558.6721744379
0	10653	508690.979248201499	9640.7802113289
0	10664	509158.441556783176	11217.697447834
0	10669	509397.78590716406	13709.23665336
0	10678	510234.374102672851	16693.180742434
0	10683	510292.021453691419	13089.179889672
0	10688	510424.391825025422	11295.990706469
0	10693	510645.561650493916	10535.195216779
0	10698	510666.197606292918	10968.078334846
0	10703	510791.725842966069	9088.990700895
0	10721	511350.471312379501	9245.9124876424
0	10809	514029.980544628337	11415.572128286
0	10820	514203.483489259927	9237.3396277442
0	10837	514828.212234279892	9528.0966942811
0	10850	514942.031187481565	11902.390161519
0	10856	515187.660524056533	11765.763623045
0	10864	515287.350848458185	8092.8233033136
0	10898	516860.237778680013	8349.9000887442
0	10904	516940.868828070385	5929.6789840143
0	10909	517169.693975820545	6260.5511648625
0	10914	517220.779474832247	4541.5275834296
0	10923	517725.731011443844	4904.6420788806
0	10928	517813.697026143791	4359.4418227002
0	10933	518253.548795285068	4126.8996673616
0	10938	518530.964504997329	7600.048676713
0	10947	518843.373445586498	7654.710064905
0	10976	520365.357890667526	7310.9965596498
0	10994	520870.546460852877	8168.0864486562
0	11009	521996.294605403655	6778.1933812738
0	11032	523354.289366273386	11818.169670737
0	11038	523911.211468893244	5270.1349277945
0	11043	524344.461615644707	9703.8830986997
0	11048	524404.334859317884	4507.9326465211
0	11053	524531.581844846983	4475.0014882006
0	11059	524711.213548560852	9183.2547646336
0	11076	525546.280086209658	6459.1506677052
0	11112	527145.994381799079	5181.1394663569
0	11121	527866.337958700361	6544.5958848962
0	11138	528851.497086821185	3088.2137710311
0	11152	528982.092315892581	3033.4511153933
0	11164	530125.653607178854	4923.5105416578
0	11194	532267.292192251623	4908.1926981985
0	11269	534842.459286510613	8695.6537216957
0	11278	535177.949002943631	6581.4216501188
0	11283	535431.98102999459	5544.9461364568
0	11291	535458.047832156463	3747.7963690768
0	11300	536136.1821222051	2577.7236944264
0	11305	536206.366388541797	3554.5884985109
0	11310	536392.91810188185	5143.4159947393
0	11319	536756.42939583178	4024.1544869235
0	11333	537478.4474421739	6312.5480515595
0	11341	537522.23096144878	2949.573138212
0	11346	537813.467158581814	4033.4603626375
0	11373	540140.821406996824	3632.6825721465
0	11410	541603.299181355743	2575.6189686977
0	11426	542104.621586819073	1898.4995806474
0	11434	542260.120062324603	2465.8924093716
0	11439	542575.338669310021	2101.2607189683
0	11448	543225.277044702843	1810.2383378365
0	11506	546851.548211640579	5293.0259228374
0	11525	547457.240177777283	4146.1779221594
0	11534	547998.417264452837	2358.7143086509
0	11551	548549.086370084714	3456.6974415737
0	11577	549699.473904120266	4411.8903821599
0	11585	549979.733600439536	6151.0585204984
0	11607	551421.644940958138	4654.1555342109
0	11675	553217.443110769652	6505.3519314665
0	11680	553256.209318798219	4765.6450290283
0	11685	553313.830229367428	3323.9889831236
0	11700	554295.405454519028	4225.6547907245
0	11705	554525.80560897412	4386.1432723569
0	11714	555418.187098424939	4270.4339354638
0	11720	555487.917999707561	4584.9851263955
0	11734	556125.344483649438	4347.7842018059
0	11769	556834.295181121368	7956.9135035279
0	11774	557146.05845554461	5618.3491413778
0	11780	557236.272339824036	4845.6955550613
0	11785	557443.6559922763	1789.6176802918
0	11822	559295.853539882791	3563.1800353024
0	11839	560174.750855133747	3974.325816767
0	11844	560315.654038468834	1978.3562379224
0	11853	560779.222285522274	4671.8281024623
0	11886	563573.780167085683	5267.9997800897
0	11896	563669.36271533219	5495.8809122275
0	11947	566086.441195218005	7113.2488058311
0	11955	566108.945064975175	4388.1838228443
0	11963	566496.077752469303	955.24330131066
0	11972	566709.981307025121	3478.6571687686
0	11989	567109.852844878843	5670.3555690277
0	11999	567308.117090443747	2814.6069790833
0	12008	568036.741101077457	2807.244408745
0	12032	570325.074280811382	4709.8794617905
0	12040	570650.998555637131	2954.6411548468
0	12081	573407.811240048378	8274.9305575739
0	12090	573453.560809692675	5379.8764631058
0	12095	573544.161672668101	2689.7949062701
0	12100	573565.279813125407	6478.9469591528
0	12116	573969.679284746414	1334.3290148804
0	12157	576471.439994032607	2661.2327028717
0	12195	579003.381070293283	7616.2961030812
0	12200	579096.880502444925	3740.224237374
0	12206	579544.246846834379	3436.7891869151
0	12211	579687.695677570273	5157.3901047143
0	12225	579855.645653015901	3284.9268247682
0	12267	581660.655610832854	6368.0295000316
0	12272	581975.305588843657	4725.1477004017
0	12284	582529.378810907202	2686.0998801288
0	12306	583713.981762571296	3417.3788880619
0	12311	583721.542897404172	3922.3208920521
0	12320	584031.677917485405	2839.2685729429
0	12344	585514.127832723885	3495.5158210928
0	12395	588227.217026599011	5899.9189914455
0	12406	588764.007841456163	4721.9731609304
0	12416	588837.199260347349	2086.5471421296
0	12422	588980.149635353181	2690.6124914896
0	12468	590623.262227727715	1237.710576987
0	12486	590940.31341952584	2182.4219772421
0	12497	591423.681939235783	3645.4742115951
0	12506	591580.702774722035	1946.0526829853
0	12516	592104.988239812802	2678.5709269985
0	12524	592279.917865556594	7455.5900467166
0	12533	592882.942435088721	5740.2383623203
0	12538	593060.553217653455	2638.427394075
0	12570	595757.987567963445	5464.886254349
0	12646	599457.600218547773	7984.2065056393
0	12654	599601.472776239785	5927.2318655542
0	12676	600448.168942801235	5533.1070389929
0	12681	600497.048390743357	4887.5284024902
0	12687	600936.546331414753	4627.4561667393
0	12695	601578.618380023783	5201.8178841599
0	12710	602805.8439516116	3207.8955890419
0	12727	603474.7068565329	10385.285760909
0	12747	604862.192455769685	8319.776540459
0	12753	605229.385402465603	5556.7971209671
0	12771	606424.589204430814	9273.2477904139
0	12782	607159.65777113314	11294.205973736
0	12787	607236.334147359164	4226.905561057
0	12815	608485.943670119905	7289.9914590637
0	12820	608511.999466406845	1064.0067517569
0	12837	608728.020117168906	2355.1952900078
0	12845	608973.861343691268	937.68427634808
0	12856	611337.747831954117	7094.5905937937
0	12872	611960.050695755607	3335.3683884603
0	12892	612779.599050565566	1244.7415408471
0	12907	614188.237031527698	1960.756735758
0	12926	616998.59617426346	4257.1245473754
0	12982	625026.585620977727	3260.4321160289
0	12987	625212.962427900997	3030.5456811571
0	12992	625482.740030281539	9239.5707405414
0	13033	627639.234880140562	1638.2021375997
0	13046	627860.912236688698	6422.8680867745
0	13059	628288.234268192976	2125.3014962496
0	13068	628514.376931236676	2499.1289126641
0	13097	630083.243073983534	6809.707587438
0	13105	630216.93734962893	2375.8200138543
0	13110	630281.619056342849	1236.3200502445
0	13162	633158.711713440743	4044.8703208667
0	13167	633183.616703604269	1272.7858913511
0	13172	633308.689667316836	5834.5321352854
0	13178	633572.377480852347	1572.708533197
0	13221	636339.058905716183	4265.1120065521
0	13235	636635.42812778619	4439.1376177468
0	13249	637067.736448958738	3077.6524070383
0	13254	637316.152303517747	3459.7850450905
0	13262	637490.179710400438	3581.3534038823
0	13271	638204.38738225325	3294.4568149206
0	13347	642995.541758644004	2844.2450382453
0	13352	642997.802771539994	1649.9706238486
0	13360	643499.303598809254	6990.1560120332
0	13386	644535.633123847513	2940.4001815675
0	13407	645503.220478131696	4538.2036972301
0	13426	646730.993504695585	5572.4886644615
0	13453	647651.393466642737	7145.5525153292
0	13536	650094.272053189895	7023.8332817923
0	13549	650478.727599607547	8481.522739388
0	13555	650696.38549351838	3876.0853842434
0	13563	650850.262930421023	6337.5918223464
0	13576	651142.293064641625	5800.6707557897
0	13585	651542.671327326447	4728.2178335112
0	13599	651925.514522826752	4661.8195389172
0	13618	652781.504024427725	6310.0722605048
0	13623	652785.902455672514	5889.4995347169
0	13635	653194.630563194792	5715.074450083
0	13651	653644.51296699791	6230.3178330864
0	13656	653655.63519967074	5041.1790897326
0	13662	654270.599283331438	6485.3308041502
0	13677	655096.70304048155	3369.7948274428
0	13699	656444.080707674459	6828.9022117927
0	13718	656968.254217988355	9581.5682782299
0	13724	657460.994731526063	5572.0589865495
0	13732	657654.405386569033	6891.4257035973
0	13745	658257.628131577969	3774.3588459548
0	13762	658883.010331442591	5691.4842543203
0	13767	658883.938719324346	1387.4621497125
0	13776	659727.655222765822	4734.6703264652
0	13791	660564.719776312674	4295.5234765645
0	13852	662286.786145115327	6178.6578351179
0	13861	662747.903060931807	4515.9800759055
0	13871	662790.374331710332	2367.168036223
0	13879	663202.664609070447	2587.4203268182
0	13885	663445.631316418575	2664.0136228053
0	13903	664887.907856382081	4231.9086464521
0	13919	665609.286041023244	4050.1107690624
0	13962	667172.460712889335	2607.1282210121
0	13970	667623.861927036714	1747.5930622025
0	13975	667675.463164667491	3496.7321122782
0	13981	668006.771107604954	1667.4247749058
0	13990	668782.202225372875	6180.8277156979
0	14012	670137.309373220769	1701.5800395232
0	14035	671024.105054480226	1878.3670398644
0	14040	671086.831809278063	9873.2498366177
0	14046	671300.808583556578	4913.0487389013
0	14096	673333.819848130923	1539.6800983074
0	14107	673722.824970790582	3094.1054642425
0	14113	673798.392341334921	743.2223329356
0	14124	674339.800160468191	2465.8118779781
0	14129	674525.909054885659	2180.7629415931
0	14157	677267.152029066059	1986.8743675963
0	14165	677958.756128152105	4885.7258078429
0	14193	680787.722309906859	4151.5775982462
0	14226	683831.410975947521	4253.1290088926
0	14303	685569.696671409224	4405.9977294953
0	14309	686081.521514293404	7130.1599672344
0	14314	686346.15116329323	3034.9865899063
0	14319	686582.189126483192	4018.8652400548
0	14331	687238.176750013718	3223.3690997036
0	14342	687369.465461344269	2479.9632041114
0	14356	687759.346345236397	3842.214331394
0	14361	687774.818163722284	3668.790526288
0	14372	687895.304941447091	2980.145276996
0	14389	688778.598939203047	5618.2051179464
0	14409	689861.54533160955	5101.2100042428
0	14420	690297.718945578772	2495.5982984358
0	14428	690645.539084208486	2111.3556491651
0	14446	692344.644353315107	2831.0517832544
0	14459	693998.896495712159	6655.6131658863
0	14496	695508.660641321719	4238.9229156966
0	14518	696621.247624994919	2844.7386861731
0	14549	697485.784548431751	2406.2431605012
0	14573	700085.666045635949	4513.0214411561
0	14578	700161.884469363262	5914.2263601976
0	14584	700302.020544101882	5706.0863629169
0	14606	700809.035966867113	4069.8792408448
0	14636	702931.813966151214	6529.8650758422
0	14649	703188.815690085268	6143.2954411004
0	14664	703889.74377055473	3572.1762205783
0	14679	704217.114281898075	6787.0415340616
0	14691	704639.024547274997	3913.3098479513
0	14696	704684.451337003347	1955.3959809331
0	14710	705250.915796451899	2024.1929120587
0	14757	706867.135029493668	6102.054144289
0	14762	706871.616406173624	2036.7673938761
0	14770	706952.924973440223	2012.5032701419
0	14862	710557.380477557005	5155.6698412301
0	14871	710851.630966167627	7418.5679604958
0	14884	711055.316613120526	5685.5421142909
0	14889	711377.970950187581	5368.7734033247
0	14898	711640.229381505148	3389.6221404051
0	14908	712094.674235352368	4959.2204568013
0	14913	712200.140685458104	5158.8398554066
0	14920	713581.79227080577	5229.9478515716
0	14925	713843.675538959665	6750.372491643
0	14930	713910.174224065922	7008.7133353009
0	14945	714123.962873930853	5200.053752227
0	14961	715011.890896366395	4435.1058061806
0	14981	715822.819326351698	4225.133941559
0	14995	717208.531290678416	2024.0491115234
0	15034	718173.352824759068	882.44550001854
0	15051	718991.069531561021	3441.5559093737
0	15073	719887.158929118985	2557.1658334767
0	15085	720144.573584049925	1684.8745933159
0	15095	720595.012487847165	6476.5651217724
0	15104	721114.095744959153	7035.3267500483
0	15130	722699.038634010395	4679.3862939158
0	15138	723121.032167063829	1936.027975689
0	15146	723209.237435559973	5730.8899022421
0	15163	723659.411833206037	5150.0244670168
0	15173	725201.668975961348	3470.8379997053
0	15203	728383.924002387546	2977.3396020815
0	15250	731436.564490641354	11361.591267589
0	15255	731982.051991304364	8697.225663876
0	15267	732414.882729610221	5849.3201358721
0	15281	733034.384042104669	4990.1501649695
0	15298	733988.611103124208	1641.9197967016
0	15318	735366.545765397347	4976.6166789319
0	15352	736373.784226770308	3561.3713032383
0	15357	736433.843429238372	6943.6375410154
0	15369	737419.427321222528	7737.0347071783
0	15382	737837.584504734037	4085.5147381434
0	15387	737905.002578131474	2513.7331150631
0	15397	738991.814855441219	4676.632385234
0	15429	739581.079031143123	2632.2898186907
0	15441	740558.067795914925	1347.5421079378
0	15450	741146.676732721987	5500.0525010099
0	15482	743836.678168334918	2739.2639967046
0	15494	744103.392060716323	5078.0082297947
0	15499	744315.710298844289	1312.205917601
0	15536	746422.281765931739	6983.3669454953
0	15541	746480.96049070462	1472.0032138311
0	15561	748561.729705193806	5279.6114546682
0	15576	748701.38848335421	3542.9446337377
0	15591	749871.542549450104	4392.5520552995
0	15602	750305.91308774441	2690.7054266488
0	15618	750871.606227117225	2323.3180023972
0	15659	752701.363060027981	2384.4207165524
0	15667	752785.429840067279	1417.7550910941
0	15680	752856.506930392483	1410.3829487627
0	15688	753317.73063376428	3774.2728731866
0	15703	754336.898781409313	1573.1325798151
0	15728	755691.817060684684	3627.5061585331
0	15748	756298.539495836517	3183.4141031725
0	15753	756426.649540253545	1834.1101283214
0	15771	758450.513475720131	4107.2971242779
0	15798	760910.155270708288	4933.1017951745
0	15823	761627.728967530966	1125.8880512834
0	15847	763467.380203603702	4227.2053430428
0	15852	763679.45440105113	6598.5409845339
0	15861	764020.084178285794	3086.9691449146
0	15867	764611.093863510332	3569.5917881746
0	15915	766981.65935656472	1890.5269326434
0	15937	768013.981675042942	2573.380127406
0	15946	768326.064365608679	2716.1444598511
0	15951	768493.093898701579	5450.3208774483
0	15960	768882.397921557128	2284.8803142802
0	15968	769198.001359618181	2229.6517229041
0	15989	773463.325302333619	5779.4846755823
0	16010	777836.440553020398	4693.0801094659
0	16061	780607.52334946443	4527.3767635103
0	16080	782160.740679298189	2541.7940324007
0	16116	783228.871552132478	4866.5595820338
0	16121	783325.425437931931	5138.1178929209
0	16127	784081.335962648645	6109.2531919297
0	16132	784192.428976873439	2744.5681077747
0	16140	784291.344934287234	4095.776331022
0	16146	784534.049179242033	3081.8955597939
0	16188	786316.914795639966	1522.6559113904
0	16203	787123.467008891546	1877.1891446941
0	16216	787304.578909776794	2040.6523889771
0	16221	787437.193597199179	5053.4082756019
0	16240	789785.730231568693	2956.5783618384
0	16267	792475.213557956972	2418.436499577
0	16276	793108.322430416425	4338.999829609
0	16297	795097.766644492175	3035.6140521722
0	16310	795378.657867702699	9830.2671142157
0	16328	796500.688403233125	2489.4113739424
0	16361	797264.85342003645	2771.2434442191
0	16377	797991.460414077557	908.63110867326
0	16395	799103.627397972333	2199.8366261491
0	16447	800401.335391549893	846.9024835835
0	16453	800651.816764740582	1546.4938748556
0	16530	804915.883787377616	6746.2804791836
0	16535	805231.542899978483	8642.0013744322
0	16540	805486.930386876213	5649.497832376
0	16549	805995.465321735889	10292.421720411
0	16557	806272.081639604526	6434.3320257345
0	16562	806279.045813803196	8516.908086879
0	16571	806809.406841664692	5077.972317702
0	16581	806997.776809496141	4591.8354562496
0	16587	807659.729353471356	6040.8467228056
0	16592	807735.234714351527	5664.1882614299
0	16600	808011.876655967648	8335.005802409
0	16614	808346.211324767653	1614.9519682224
0	16631	809664.468117348758	6628.9491666067
0	16640	810231.021426064804	2342.0312283073
0	16673	813414.587722938882	5026.9679691791
0	16684	813765.646801624374	2566.5079824881
0	16701	816059.307697558876	3800.6614994546
0	16723	816915.608482511252	1269.7504393793
0	16760	819347.494842086223	2546.9443840648
0	16765	819418.925761356598	6256.0776970248
0	16771	819525.670486071201	1594.621015842
0	16779	820191.1757225817	4186.3136882522
0	16800	824327.714218146067	6290.6254837575
0	16856	830021.422337337168	2269.904217573
0	16869	830546.088440377117	9785.0355882945
0	16875	830592.531474199422	4340.0286284279
0	16880	831150.378152559797	2249.3529291299
0	16925	832638.571663067911	6061.3189188386
0	16936	833044.578907932146	1834.7535562349
0	16953	833984.472123490386	2554.5855681699
0	16964	834683.162991198239	2785.5042099659
0	16986	836577.930492597754	7040.1225360974
0	17011	837518.111046736094	4861.1952883812
0	17028	838275.411185812186	6316.3253996318
0	17053	839378.379734749817	5908.0167858143
0	17065	840038.676432250263	4495.2787688908
0	17070	840182.204023190738	3695.5819594709
0	17075	840403.361116135371	2872.4349117811
0	17084	840908.28948326188	3279.4113615557
0	17146	843235.500023309939	6373.143516707
0	17160	843449.83123606179	4780.3304836413
0	17165	843906.815522537717	1917.4169306372
0	17170	843910.963212414224	2434.6216776759
0	17175	844251.538319381618	2232.9040125013
0	17204	845454.679833302886	3653.1813134546
0	17209	845507.693762720239	2293.0409758266
0	17234	846415.256965324868	1495.2907803904
0	17246	847042.032910173946	4667.2717152423
0	17251	847261.368634389445	2687.004749154
0	17268	848348.184145454559	2704.888802904
0	17298	850417.306855129754	4908.434401503
0	17355	853134.604398168963	5207.5790133318
0	17367	853874.984832621164	5115.0600734226
0	17385	854818.754662631909	5853.4643272069
0	17414	856056.83334418898	6198.347671012
0	17425	856126.139589375317	4206.8052984897
0	17431	856393.401116123528	5340.3999275965
0	17439	856561.592614225119	5617.9450835288
0	17456	857502.943454673514	3235.5081495808
0	17461	857624.380214081764	3372.4510685303
0	17466	857657.645733064778	3311.5470601849
0	17475	858063.268461647791	5868.0923648183
0	17489	859039.532260513325	2517.7119282453
0	17509	859759.43832841168	2068.8404583249
0	17536	860509.360880369767	4963.4736780233
0	17541	860514.946887435115	992.3598798507
0	17546	860550.545063899649	868.27882119866
0	17586	864408.259009394979	2172.4611858622
0	17600	865357.104516520265	2377.7369372419
0	17619	866995.729890819297	5510.8167897358
0	17649	868155.712393829078	1506.0782477029
0	17663	868343.641990378885	1764.0562182862
0	17668	868436.639212443579	8640.6613457571
0	17688	869937.932269850864	2960.5325006281
0	17693	869946.875050395189	2037.5296227146
0	17728	872093.782932917554	2481.3138566665
0	17756	873136.550988515791	2107.6921698247
0	17762	873534.606092000493	9267.4974952478
0	17778	874195.594900568052	1485.8604303578
0	17828	875167.466510664008	831.53314330397
0	17845	875798.718989272048	4712.067082887
0	17859	876681.497461121761	6145.2103382293
0	17871	877208.824248051614	2351.926548161
0	17885	877828.218344597101	3490.9454824916
0	17897	878901.446347077272	5352.2687294626
0	17910	879124.553931815606	4669.3393729201
0	17921	879296.67749983323	3752.4652040775
0	17926	879358.925391566753	7175.7128625259
0	17932	879626.262833080513	4641.7608805387
0	17937	879774.1330982847	3050.1882102313
0	17971	881540.215293132638	3242.7622741126
0	17982	881984.613206194674	1447.0131225455
0	17996	882821.95781634889	1545.8084396744
0	18023	886501.526824314011	5911.4522285196
0	18042	887675.887729701717	5726.1071807554
0	18085	889332.45886006219	5499.2078157541
0	18095	889544.09745649076	2945.2457509128
0	18104	889738.734158264454	3814.4673767435
0	18128	890529.96105953943	2061.6247821384
0	18140	891043.222658714018	2008.186419037
0	18148	891170.749018984083	2860.3822994055
0	18154	891467.341318913156	3010.7762758914
0	18162	891662.991709954414	2089.4151785987
0	18190	892910.430329301892	2831.4946400336
0	18209	893458.071919282656	1867.8751073236
0	18231	896265.312891879122	4114.066014334
0	18261	897196.604291647893	4516.8568377769
0	18294	899373.555580672348	2483.9660956998
0	18307	899870.768198314069	7033.7951030062
0	18315	899965.604166835174	3303.189840616
0	18347	901721.678151608189	3905.2410459391
0	18353	901800.086126711577	5755.133851516
0	18361	902071.552927351641	3919.6557238652
0	18378	902971.380682939513	7745.597367655
0	18387	903506.829166794986	3545.6817856406
0	18405	904157.017378893968	3757.3900083802
0	18414	904771.926180155596	5434.2859685369
0	18443	906059.180606704702	1153.9180865123
0	18464	906706.416215428401	3573.4433340358
0	18482	907765.336988330533	5699.8643535052
0	18513	908822.684041813134	2791.7713450697
0	18518	908904.604553104933	2566.9471659534
0	18536	909722.747448019067	4493.6276974654
0	18574	910836.205099108268	2885.3266942342
0	18579	911158.277974442464	7351.8491057745
0	18585	911228.455148472411	3684.1455674183
0	18590	911944.54750571555	2266.1473113069
0	18602	912471.59777177614	3400.2761025011
0	18624	913199.274825471386	5174.0624387752
0	18645	914738.984321129695	2404.798547366
0	18656	915245.825624627692	2599.5287746255
0	18670	915635.767860903028	5283.230374839
0	18684	916620.88814268222	1409.7827274406
0	18713	918218.877123045498	8543.170073681
0	18766	919845.762337434758	6257.0614921309
0	18776	920148.912186447617	2907.1798848956
0	18784	920464.152120388046	1104.4843545591
0	18801	921429.473509408568	3928.7886375696
0	18810	922006.986037558742	3095.1433434689
0	18825	922791.222938669044	4077.3687802875
0	18838	922941.667082402691	3171.060629686
0	18843	922992.567732853044	4834.5833797465
0	18852	923220.121285773961	7591.3132202556
0	18865	925146.813618872301	5798.3290676699
0	18870	925306.577297886313	4596.6072493738
0	18888	926749.050697881748	4126.4655010177
0	18914	928644.170159405275	1099.3083195155
0	18929	929381.322460847688	3905.6305245246
0	18957	931176.969893131757	1943.457668743
0	18978	932640.843146301544	4349.6341470033
0	18989	933312.927153251385	4371.7810769485
0	19017	934581.017641419019	1821.0975551235
0	19034	935547.136399442606	4066.0625431197
0	19042	935566.986783723131	1969.8877392095
0	19068	936816.054687790946	6224.738838507
0	19084	937091.525749930038	2326.330760574
0	19105	938696.503870362	5747.0199116725
0	19140	941090.129684877198	3724.1541947333
0	19174	942417.185978893456	6329.4606659594
0	19182	942575.647449794412	6127.5505055484
0	19187	942687.153610066854	4037.4132539156
0	19195	942852.878293586662	7235.8913194389
0	19210	943805.374254293065	4678.1282809586
0	19225	944706.295524764135	3896.3448300736
0	19344	951471.750012209104	10163.33936996
0	19357	952260.976095633375	10315.601427775
0	19363	952546.840861179019	9756.5373872088
0	19377	952772.503466227124	7424.6880852497
0	19390	953010.433454731498	8666.8183073464
0	19401	953629.811658563158	9185.2709878512
0	19413	954108.717947198434	8411.6414836505
0	19423	954181.142123144772	9180.2334548701
0	19428	954253.129819097754	9805.5440984192
0	19433	954383.405766573518	7476.1917862382
0	19438	954445.13344174859	7350.8155080839
0	19446	954587.971682649657	9003.053949779
0	19457	954805.529980127522	4516.0322022649
0	19504	956562.651932612727	7467.1470741142
0	19509	956589.221898840524	2745.860067285
0	19518	956743.325489171812	3827.9747741077
0	19523	956873.10390912283	4191.6177451265
0	19546	959412.771967659082	3980.779972107
0	19556	959683.971430392278	4985.4785476731
0	19561	959862.768887487474	8391.6221051473
0	19566	959863.21333196205	4162.6725791495
0	19575	960716.26162795983	4870.8749283075
0	19617	963708.598370244145	9032.6621980563
0	19622	963788.762419500931	4854.1527176286
0	19630	964018.354696239074	3047.1372679646
0	19652	965105.201982928411	3602.1277086335
0	19679	966261.908004459938	5123.7660490749
0	19706	966932.040913595272	2739.2562463512
0	19711	967312.459811967192	1649.5114572992
0	19723	968326.051860743428	3171.2664296312
0	19799	970827.425399297289	6923.8423253117
0	19811	971281.328058084643	5118.4069102433
0	19816	971345.495801959068	3169.2268544323
0	19821	971357.856872322177	2417.4246665313
0	19829	971928.396531230117	5622.1075794576
0	19834	971937.042970892037	2446.1853053226
0	19840	972316.146611377581	3399.1495608746
0	19845	972327.090615929712	2754.5032819782
0	19889	975274.993470526954	6128.4690623556
0	19903	975837.276841581332	2557.5696371161
0	19913	976039.620924114545	3392.3135036229
0	19949	978173.900224216352	2377.1176862142
0	19969	979800.428477519045	3754.9656118424
0	19974	979832.933316646078	9816.2597028663
0	19982	980227.638237501275	5138.9534151858
0	19993	980567.107821202359	2905.2840660504
0	20013	981235.760321170868	6936.8181292291
0	20044	982562.87873173657	1468.760666583
0	20049	982621.348439650311	6395.67057231
0	20089	984301.173583356618	6466.582682707
0	20094	984306.163426565447	3806.2295418923
0	20099	984307.15653066051	1610.0131243031
0	20110	984421.539192522149	2495.5782593216
0	20163	986353.383726362203	5374.650504142
0	20197	988142.486631145377	3808.5849538122
0	20214	988412.88832503706	2211.7783782338
0	20219	988467.090778017095	5322.9786983563
0	20224	988607.616115800255	2773.1783148329
0	20245	989505.598920258489	3066.1821902473
0	20260	989781.40516230367	3453.0701557932
0	20271	989897.521936952303	4634.8713961591
0	20293	990755.45158068525	6148.3826592788
0	20298	990875.721511100108	1463.1513568749
0	20313	991570.952984752916	7907.4250277985
0	20319	991774.976719531307	1952.90631124
0	20324	991807.173671842365	5479.7506654099
0	20332	992380.012054228353	3149.0679288885
0	20366	993865.755461061663	3985.3827950561
0	20374	993960.239978812748	6659.3314470159
0	20392	995805.37541525105	2574.1873847097
0	20404	996866.031595909102	3214.18114449
0	20410	996889.824258954138	4428.3010414368
0	20469	1001489.974721160067	6370.4439637289
0	20474	1001795.742608380747	3017.9727493196
0	20480	1002068.651078915648	3143.7136787603
0	20507	1004698.224558118909	6487.4215688003
0	20516	1005825.462434571577	6145.6423608637
0	20535	1007227.622061670755	8216.8715830507
0	20554	1008230.336781197012	4650.1827205418
0	20559	1008244.462063756285	1841.8428762376
0	20593	1010327.581686180298	3857.3423471787
0	20608	1011074.754251619501	1459.5779942666
0	20621	1011392.759001644317	7450.0548025865
0	20643	1012030.599271596747	2410.5358470667
0	20653	1013338.322301987796	4664.1069261859
0	20662	1014669.326917354214	3793.0104299391
0	20679	1015409.942809617663	4099.7871911559
0	20696	1016534.847356508627	4639.5322769121
0	20714	1018231.882110834579	3538.3453542804
0	20723	1018990.537277783383	3519.597187136
0	20750	1021569.119767383754	4082.1658716168
0	20760	1023159.934837437142	3949.3215703581
0	20789	1027207.895258569207	6248.9400851179
0	20800	1027704.318355123164	2226.389727015
0	20815	1029328.514271066237	3262.273877214
0	20850	1031932.35568292511	4466.5731865815
0	20881	1035287.223112117164	5281.1411580064
0	20895	1035806.752769086316	3005.7853654963
0	20913	1036757.348629115563	5501.1036996106
1	2256	100244.629006043278	0
1	2290	101288.017409006947	288.07768934145
1	2327	105472.854787081321	0
1	2335	105997.843828611413	0
1	2350	106668.681171539008	152.13998321624
1	2378	108223.151531158839	3.729382422594
1	2386	108462.793931255881	122.26839573264
1	2403	109276.99864925546	0
1	2432	113965.295010948836	0
1	2441	114040.454544287885	59.821442379449
1	2463	114851.515084001674	367.78232622897
1	2469	115002.691684187706	264.71901993167
1	2486	115725.323553488627	200.6863981337
1	2500	116911.086197459351	0
1	2525	118105.970448293776	0
1	2543	119525.729511385904	0
1	2554	119936.790454851139	146.26187373892
1	2577	120664.617703709392	671.48591437735
1	2587	122108.926450909483	1779.0083189039
1	2595	122205.856241990857	18.389986927584
1	2619	123066.160832688268	0
1	2634	124012.245457566933	270.77881397121
1	2639	124175.216229248487	395.79539861859
1	2651	124758.291970026425	131.38224922945
1	2671	125542.051478157202	30.700892540507
1	2723	129568.739987625873	0
1	2740	130860.725328783424	0
1	2757	131941.470172658846	251.17727802986
1	2772	132780.612867098037	699.52415748665
1	2784	133119.215175593435	458.24458201672
1	2789	133257.395663983944	401.6284931146
1	2794	133266.173320707941	166.28494107601
1	2814	133940.311735424323	355.03888676185
1	2841	135324.76533658744	0
1	2859	136900.543300120271	0
1	2897	138889.216506451159	975.38228489397
1	2919	140318.847592646299	0
1	2928	140957.203124989139	0
1	2937	141464.597768285433	0
1	2945	142026.874771556127	372.7946702875
1	2954	142489.676481084408	336.18655109134
1	2962	143044.883572417754	0
1	2971	143324.223816139117	150.21879426941
1	3008	145225.736854488185	63.533366177138
1	3019	145387.951892790323	157.64302628552
1	3044	146311.733115750172	60.52629638038
1	3061	146686.546140989012	48.539913600884
1	3073	148115.75362511678	1115.1081981137
1	3078	148287.159708510524	995.95085252865
1	3095	148791.53957047139	234.30375446944
1	3103	149130.842308748115	209.48492005304
1	3117	149298.923051243159	62.971724764408
1	3168	151651.63354968218	1334.8529479807
1	3178	152800.235730910971	573.97878508128
1	3216	154469.264849089871	0
1	3227	154629.958320082093	113.40588821005
1	3253	155599.188867944913	703.35260274955
1	3258	155708.120991523116	540.46660596278
1	3269	155876.463216576325	619.69928805961
1	3281	156388.47560019053	615.8357860997
1	3289	156456.277881527094	238.66965587308
1	3304	157437.559975788201	778.92123992792
1	3316	157976.553863859348	1159.9611341414
1	3321	158095.677754984555	898.41668371997
1	3330	158765.581361744547	1244.0252402686
1	3338	159168.406062586445	38.746303958719
1	3351	159267.961556906202	53.981979274278
1	3393	161207.06460412466	814.64739507216
1	3401	161567.245538842228	930.45147980499
1	3406	161732.714945889108	993.19862463615
1	3411	161931.039893506752	1179.2188659369
1	3445	163596.485116957768	214.3666819823
1	3459	164081.650262323523	192.52134987167
1	3489	164781.678468366502	41.26506654185
1	3508	165354.160726159106	205.75445656303
1	3514	165890.040339899341	675.39688944146
1	3527	166171.148597359729	55.578571186581
1	3583	167887.636798383253	45.775455890496
1	3594	167969.636289487062	49.343474816308
1	3609	168421.392146609727	37.418606503794
1	3636	169616.967038843438	176.30165939479
1	3665	170620.708412298929	626.76977002869
1	3670	170977.322839684151	970.43855825441
1	3681	171018.249477019803	40.622186774331
1	3689	171122.470122402569	65.687621365455
1	3725	172737.393941061555	10.865131340242
1	3733	173132.800898013336	246.20463258568
1	3742	173341.852719459209	0
1	3750	173926.281276038094	0
1	3801	176393.508834721358	0
1	3809	176418.43546335069	0
1	3820	178663.722552612146	0
1	3832	179505.953031222285	440.05816570144
1	3848	180952.67354193392	432.41146962691
1	3871	181571.047935318117	0
1	3883	181941.217085646869	9.169993796437
1	3896	182393.155285094534	53.353706991344
1	3922	184049.769861294792	0
1	3930	184177.601736020243	82.818259177216
1	3956	185520.713201208285	66.240600219322
1	3982	187576.658726156192	79.195100011738
1	3991	188542.235988359381	167.69204512621
1	4008	189048.683681321126	0
1	4026	189872.639141888887	407.39730558357
1	4034	189943.357518227962	178.63489419833
1	4046	190588.082583374448	707.67608069252
1	4054	190601.022017281097	505.87683954207
1	4076	192589.989547400453	1720.9721585819
1	4084	192660.926611934086	1258.9908288659
1	4089	192715.263418839542	511.80884250864
1	4094	192738.784505563917	278.32525665286
1	4176	195793.007057365444	64.500502961824
1	4184	196160.129314839529	0
1	4205	197253.415423907458	128.07831822886
1	4227	198055.310581773691	0
1	4241	198736.167766832755	641.45452448937
1	4247	199010.865544731654	661.57682516035
1	4261	199755.206382476232	0
1	4277	200167.361718714143	0
1	4285	200212.878599432038	0
1	4313	201142.392212769002	504.03451067029
1	4339	202798.272471243163	377.31720281338
1	4353	203547.68658327917	0
1	4361	203870.806220269047	85.662780928134
1	4370	204156.814861075705	0
1	4420	206285.338851024602	0
1	4429	206653.576914715151	52.84295788925
1	4446	207443.252290365738	150.07488338165
1	4471	209138.649788799071	0
1	4480	209756.732153493363	0
1	4488	209941.659413346488	144.01067120476
1	4498	210937.901439704512	0
1	4531	212080.406067902351	0
1	4556	213124.369057737465	0
1	4566	214439.590398923341	0
1	4591	217681.441167961014	864.17133181126
1	4597	217752.656101121322	684.82540545943
1	4602	217810.637939548182	272.81840411224
1	4610	218069.137216375178	178.52964651815
1	4618	218179.323810905109	22.143163775564
1	4650	219831.85173956941	194.19116725561
1	4662	220529.987035042027	478.39724868384
1	4678	220912.378093617321	27.832141555929
1	4713	223189.844848710447	1309.452528403
1	4718	223251.416472339885	781.71699949262
1	4745	224141.368442921167	52.797896665623
1	4770	225203.033222504378	249.92462836427
1	4793	226119.937988423795	467.56453748194
1	4798	226277.184925506676	576.19903690984
1	4824	227316.038393271254	527.27814115349
1	4841	228707.028212578866	590.66335260954
1	4855	228990.888550558471	2.929231912439
1	4863	229379.636109138855	325.58941342895
1	4872	229913.977242140249	160.40264546255
1	4887	230919.129816110251	827.82889188434
1	4922	231660.696085994164	26.71000468541
1	4930	231986.624252306688	0
1	4956	233313.974893793074	0
1	4964	233558.903506578627	0
1	4981	234202.638564167334	0
1	4992	234843.243755551434	422.83429268599
1	4998	235087.867306492658	490.95641960313
1	5040	236882.331985443072	0
1	5067	239285.245170187276	0
1	5076	240365.938421177906	0
1	5084	240692.793516525149	0
1	5095	240789.105571650761	55.250639412325
1	5112	241000.688307653762	18.4366703328
1	5142	241868.263714442557	54.717709063485
1	5158	242344.817957157264	0
1	5167	242848.482179416835	66.817539123587
1	5187	243650.845514665697	166.94445248483
1	5192	243687.085031598845	104.29442383413
1	5209	244488.79414514193	38.211668813174
1	5235	246106.432126561992	0
1	5243	246684.957715752397	0
1	5264	247559.817653438569	375.89712397946
1	5276	247886.466093179178	633.80983318727
1	5284	248108.797847279975	395.01565504096
1	5289	248251.535875541013	429.76942970062
1	5304	249114.932617003532	1079.0993392509
1	5309	249153.748905339663	321.31059299169
1	5324	250009.762485582611	654.64030599073
1	5346	251428.908641554979	1966.3147772292
1	5354	251527.665813220177	1779.0803129301
1	5359	251724.819559522763	1555.7684936528
1	5371	252196.010051768762	1087.8658953621
1	5379	252584.678946378966	724.14972767605
1	5428	254088.641852920347	67.670491760257
1	5458	255582.366143868619	33.258294133616
1	5466	256020.03354104623	96.85912355308
1	5486	256390.484959651926	84.703392506276
1	5552	259219.689696369845	307.16608198915
1	5557	259254.147515437308	255.85718174747
1	5565	259705.434311725471	101.82812751306
1	5579	260525.15738922357	0
1	5614	262673.104289595069	0
1	5622	263047.45076339304	0
1	5657	265466.274478126329	0
1	5666	265998.968201649324	146.86247663165
1	5674	266372.529701186714	0
1	5683	266587.286841203028	44.91376648504
1	5711	267816.941575447764	207.00014319278
1	5719	268072.006573722301	204.51418889674
1	5728	268553.517919526341	167.20734852581
1	5742	269014.372919425434	327.86705152182
1	5766	270788.841704979831	79.695062857085
1	5775	271041.942937855228	109.70096112363
1	5791	271222.147638343507	98.190536225697
1	5811	272561.105855127172	1273.7005057307
1	5817	272634.564512631869	934.95745068467
1	5860	274704.119434058144	0
1	5886	276019.284995778522	0
1	5903	277459.181188012127	0
1	5912	278450.605016477415	0
1	5947	280822.270973044101	0
1	5956	281959.361360075953	0
1	5968	282444.076597633973	304.02631647416
1	5988	283342.316020583977	96.464282181427
1	6002	284076.888152463638	327.51107693404
1	6011	284625.488727406313	170.17593679846
1	6019	284818.438674373507	29.308378392235
1	6030	284970.848426615327	146.14041942964
1	6044	285419.339735326753	528.84445056497
1	6053	285950.039632894574	885.91910148212
1	6065	286563.933910118251	1451.3853011975
1	6073	286857.985288427736	1350.6912180127
1	6094	287434.251706583161	1247.4827392774
1	6124	288368.975386555205	535.12316625785
1	6132	288739.597995956552	772.4342787411
1	6141	289540.278529209748	1306.1489565168
1	6208	291899.866341301715	250.91788868714
1	6233	292700.175223468128	0
1	6242	293745.804236314828	0
1	6259	294642.424190379351	0
1	6271	294950.365102833828	287.22537834678
1	6296	296400.626966978786	1044.7831429433
1	6311	297805.983739820174	0
1	6328	298584.557165239629	0
1	6340	299284.982549575763	611.95560655791
1	6348	299400.685376663958	593.97129728657
1	6360	300057.332405195807	678.69620753872
1	6365	300122.018201745857	192.13625039497
1	6395	300978.633024455215	0
1	6429	303207.794724681022	0
1	6446	303738.829555829081	0
1	6454	304051.185174859803	0
1	6474	304568.267873135905	43.486725208933
1	6487	304747.174266605418	110.64729465235
1	6507	307058.367447430953	2104.9794491269
1	6512	307090.383360867112	1795.6957714479
1	6532	308532.515250420962	502.56184408694
1	6541	308974.291880851189	220.04388072251
1	6585	310405.60413065802	555.77079930377
1	6593	310735.910392573382	143.97043646262
1	6601	310888.06467815789	147.66948711979
1	6644	315853.226993829598	0
1	6661	316751.569693879355	0
1	6678	317297.545952914174	0
1	6687	318354.767414060682	0
1	6695	318711.146125455212	17.907617779661
1	6712	319006.649679928877	0
1	6730	320046.600686037853	861.93515321754
1	6738	320189.450024698435	256.49586504156
1	6743	320278.639791710866	92.520607500506
1	6751	320445.128252373641	27.395226789306
1	6768	320879.109881684637	397.78796468959
1	6776	321172.630255543621	477.81684309145
1	6818	322039.257692669001	707.0622916865
1	6824	322467.011291457409	954.65941182311
1	6832	322616.137492653695	901.61591775002
1	6858	324088.610963875759	505.40719781791
1	6863	324148.680643275995	434.68067367101
1	6880	324969.307830721401	318.78397646786
1	6938	328019.506436698237	0
1	6965	330089.155365253518	0
1	6973	330567.261057055783	0
1	6982	330925.38589599136	0
1	7001	331542.121231710056	500.75250754752
1	7035	335297.22664538864	0
1	7043	335350.783264420128	32.554844389017
1	7060	336473.351822478258	0
1	7069	336926.003313788797	0
1	7077	337189.801148696463	0
1	7092	338000.689854373508	707.7916639554
1	7100	338255.261881942135	761.65578064318
1	7123	339398.039965825075	333.79675012647
1	7129	339998.926806784122	920.135556853
1	7154	340407.049627195551	48.172607203053
1	7185	342118.967251798954	996.70824657317
1	7205	344540.097505115258	0
1	7217	344771.654989653364	46.120510851729
1	7243	345922.218549008467	280.42141258072
1	7251	345964.937906231367	47.562958199879
1	7257	346745.957014810395	807.5533132389
1	7279	347907.112934422252	25.017738777132
1	7324	349795.976746301323	0
1	7332	349909.175811481872	0
1	7340	350012.099666342504	65.067634202874
1	7348	350457.785504825917	0
1	7374	351838.177775168171	0
1	7383	352355.595132655486	172.32165966883
1	7426	355422.761646953334	0
1	7434	355461.254254372741	0.828822122873
1	7455	356765.395624348617	320.71087372569
1	7472	357727.815495187381	559.07924499953
1	7480	357954.348552324412	468.11067965026
1	7498	358755.942135104174	849.65446769455
1	7506	358989.129036523038	913.33559335522
1	7511	359072.583364176787	830.32133246478
1	7517	359217.776528100478	935.88941123356
1	7525	359506.858604463508	909.90049573944
1	7530	359582.49998078537	156.41349221186
1	7538	359824.982885314137	220.91968793504
1	7549	359931.625347890866	83.559594921297
1	7558	360182.995660345719	96.074763971579
1	7593	360792.823027031723	14.79732376623
1	7613	361629.391675944476	317.9652762978
1	7622	361776.566599233301	266.85609474961
1	7639	362325.235375077112	463.69860202485
1	7675	363206.320495769525	149.16786139157
1	7688	364418.730359140878	1332.2494581823
1	7696	364914.644841750329	1813.7664823293
1	7704	365023.910242352785	1757.6150878865
1	7721	365560.627311941745	194.88352875384
1	7729	365712.100437069328	21.721842140928
1	7822	369640.315887240332	34.466860886753
1	7836	370773.958542725727	207.78593684537
1	7863	373161.462621581276	0
1	7880	373822.817223180107	0
1	7890	375554.33543678683	0
1	7907	376658.590192560628	0
1	7918	377078.043807399235	294.41844333506
1	7949	378084.420069931971	0
1	7966	379048.538440780178	0
1	7985	382109.003730830579	0
1	7994	382682.966771275609	414.72602913009
1	8011	383206.367940355747	57.597801461144
1	8022	383438.702315305477	27.50822988623
1	8036	384168.862830740598	0
1	8045	384919.941068758183	46.989880659559
1	8072	386761.850745944392	1161.8018341508
1	8080	387315.826205311605	1702.0571170265
1	8086	387649.121927876605	529.41740623405
1	8105	388172.947547458137	179.94298856109
1	8124	389043.812656213101	508.5780131739
1	8140	390453.050626873947	768.6998403638
1	8181	392512.360033362604	0
1	8199	393535.091224304103	0
1	8207	393851.733271638508	0
1	8219	394453.712167875465	82.496558857912
1	8230	394845.645965409782	288.60625625693
1	8235	394989.247735604915	281.20618888837
1	8247	395436.784540221894	446.61546228418
1	8258	395739.041832232631	699.69184302581
1	8263	395950.707535896985	288.41922379175
1	8317	397728.285020857017	403.06908920409
1	8325	398148.135354300243	523.72104355934
1	8338	398347.298438400795	160.64524339674
1	8355	399069.004225496652	154.65810985463
1	8383	400529.179023752025	0
1	8409	402062.287624736753	0
1	8426	403046.424452817962	0
1	8434	403298.548806386975	125.86597965302
1	8461	406064.810712240483	0
1	8482	407325.56715403288	730.11336463187
1	8487	407487.319044753225	575.7620859756
1	8512	408722.484030336928	0
1	8536	409848.859793670017	652.27277830252
1	8544	410104.955626883244	832.4480101879
1	8586	411805.279741335994	1295.2348996388
1	8594	412291.217594813427	1588.2353811457
1	8600	412625.585168908907	1852.5780864686
1	8605	412791.342379409027	1960.1056391993
1	8617	413404.833944352698	2530.4303253227
1	8622	413430.100071966875	2450.3217053973
1	8637	414160.53173404594	2979.94946947
1	8645	414304.199025113729	2956.8218276147
1	8653	414343.118765781561	2273.0404983809
1	8661	414767.244846288086	1885.1048737896
1	8676	415633.301670260159	2368.529403596
1	8681	415675.294934919548	1513.0679587722
1	8687	415899.137972229585	571.53486507443
1	8698	416118.729863724519	134.06744714332
1	8706	416278.614173652116	188.14538381058
1	8726	416699.252665278249	35.770379573115
1	8756	417232.463055877148	75.917442141937
1	8786	418037.718375825569	7.458988245963
1	8828	418938.810959195711	169.12240490715
1	8845	419197.834024096823	50.252756838936
1	8850	419217.832479134077	56.493279105833
1	8877	419876.284031666345	506.06521650413
1	8890	421117.268879341106	535.00356801172
1	8906	422783.658522093062	1468.5555198829
1	8911	422907.678197126605	1147.5008891882
1	8930	423295.976421391713	172.86474060913
1	8939	423756.589448302011	465.18459218475
1	8959	424364.075968000577	374.15100542342
1	8964	424774.344631117981	701.44566763221
1	8975	424820.001042929534	4.6542065255
1	9006	426075.091993377815	191.04083413415
1	9052	428143.806411828991	64.761787167459
1	9071	429218.240801966167	75.700023634386
1	9093	429942.652904665224	153.25862411463
1	9132	432781.681528263172	0
1	9141	433076.779504500746	131.44080131367
1	9149	433528.257214949005	0
1	9157	433567.263517668597	35.588958114892
1	9192	435487.985872495332	0
1	9203	436038.899851275641	446.09100719172
1	9227	437263.462277574	938.5280383021
1	9238	437767.161144032754	1330.314850843
1	9244	438018.876320204363	934.14370571985
1	9249	438197.057103766068	853.74178741266
1	9263	438324.214634752779	68.258666903672
1	9272	439100.349251520243	842.31916102345
1	9292	439961.72129057047	651.24996481422
1	9338	441254.043045987024	264.50823009953
1	9343	441371.726904472555	270.19598404023
1	9397	444023.429903795393	473.86785131873
1	9402	444109.231355819472	337.70298859549
1	9438	448145.262602129536	0
1	9447	448861.047062558425	0
1	9455	449123.903899273353	0
1	9464	449401.851894072302	0
1	9473	450091.828087454645	0
1	9481	450521.761336767721	22.046049993623
1	9489	450619.313105166917	0
1	9498	450933.261525981816	152.0579583154
1	9539	452043.785651580025	82.627185561419
1	9557	453249.716768360737	680.63309987138
1	9562	453292.251838718515	721.29640036971
1	9571	453606.899989092917	570.66767453035
1	9585	453931.334325449398	319.02972374747
1	9590	454130.523111461436	453.65309281631
1	9614	455256.356153437362	727.90610798829
1	9622	455413.901880981812	569.45978111755
1	9684	457717.823208017643	299.58840486157
1	9693	458118.300191170141	562.76260957354
1	9723	459349.012311215232	223.35675387789
1	9732	459641.337952418341	0
1	9740	459722.329678247237	41.522807100774
1	9748	459871.349065799772	20.978326229698
1	9765	460504.123063482058	0
1	9807	462648.146946902682	0
1	9824	462969.832061520945	0
1	9851	466017.924935486123	0
1	9862	468120.192194797696	0
1	9887	469366.749256999287	0
1	9895	469398.216701613251	0
1	9907	470004.75365535096	423.9901999148
1	9918	470476.349210938402	9.047636832585
1	9945	471425.29745600647	95.763558745972
1	9979	472449.332593109795	0
1	9998	474931.738461123542	0
1	10006	475269.216250710126	0
1	10033	477819.587224391155	0
1	10050	478711.305104967264	557.11895158209
1	10069	481328.369605076185	0
1	10078	482210.399410755819	0
1	10086	482562.809079373858	0
1	10095	482651.140310253399	59.637156385315
1	10111	483141.335395722784	0
1	10124	485038.424782475951	1772.559299035
1	10136	485687.886869864037	802.0081225151
1	10144	485805.937451678268	205.63154874092
1	10149	485939.087284894118	243.6439284577
1	10196	486986.03601853563	81.377762451316
1	10225	489166.665481352247	756.02679159283
1	10238	489386.382721930798	81.649681326157
1	10258	490241.137976623057	265.99618221945
1	10272	490746.567986813743	271.44101548671
1	10280	491064.567114219126	292.11219860113
1	10290	492089.96549372815	0
1	10302	492999.839491870082	686.98968567392
1	10310	493487.508737448346	228.13089351641
1	10322	493940.50238297925	399.30902274069
1	10340	494743.888123960133	237.05172060684
1	10355	495606.375540276365	806.98227626065
1	10363	495732.069448630795	149.82446084055
1	10368	495831.364495935369	142.81524213175
1	10395	497148.687054981903	314.39402448283
1	10410	497404.887506724745	202.04594270549
1	10444	498060.893531585011	120.1494226363
1	10456	498900.337682396428	87.417996511081
1	10477	499731.768663162132	681.56962628949
1	10485	500297.724558328808	1169.3234397727
1	10494	500927.465715402917	1229.3464439558
1	10522	502641.457869453895	2531.0914357395
1	10533	503049.593250749278	1346.8581086782
1	10545	503764.760247436439	1660.2014226994
1	10554	504038.715986484884	1424.3075701429
1	10569	504966.366217365416	1926.7251914027
1	10574	505232.671830566099	1810.7749295543
1	10582	505467.951089494584	501.80722797889
1	10587	505504.942667870023	204.8271278712
1	10617	507803.756636921262	609.22909177668
1	10655	508690.979248201499	180.64155826566
1	10723	511350.471312379501	441.3285014215
1	10731	511716.422031578937	785.50620329462
1	10737	511882.770928122451	871.58108406636
1	10742	512482.282862785831	1293.6194821043
1	10754	512759.554399993166	1223.4347044571
1	10771	513333.26118456653	654.00929316387
1	10783	513724.123729564671	1021.663717368
1	10788	513777.488084487607	956.39915192434
1	10793	513861.983812756797	807.62248173911
1	10801	513982.853689056856	528.59848561325
1	10822	514203.483489259927	76.834361336447
1	10839	514828.212234279892	187.63371733486
1	10866	515287.350848458185	69.249624328377
1	10886	515701.722478254022	173.76369432675
1	10949	518843.373445586498	202.29690448779
1	10957	519130.607006298856	43.477587794371
1	10978	520365.357890667526	468.95567787077
1	10986	520836.213259426241	779.63290277989
1	11011	521996.294605403655	674.55253159946
1	11016	522008.263019988047	43.408104545844
1	11064	525202.143065521025	0
1	11081	525763.283315790086	0
1	11089	526118.321426953225	169.68022645396
1	11101	526919.473123327544	772.6675585126
1	11123	527866.337958700361	507.2384646472
1	11140	528851.497086821185	254.96973399633
1	11166	530125.653607178854	238.61871364106
1	11196	532267.292192251623	1101.3928016372
1	11202	532326.845505956037	1077.3433988135
1	11217	533644.423537400113	1934.1720743205
1	11228	533926.582793679034	1274.8049036482
1	11233	533954.322717635938	1222.0478087277
1	11239	534340.70783205668	782.24940427796
1	11244	534431.128560380907	651.12176443655
1	11252	534578.342183167831	5.684359931031
1	11321	536756.42939583178	248.29056098145
1	11352	539027.680212658047	0
1	11361	539804.959284409632	10.731631456678
1	11378	540206.122006171683	0
1	11386	540474.07795034172	0
1	11412	541603.299181355743	188.26047448942
1	11418	541843.964202314893	285.44191351168
1	11453	543311.062255617915	0
1	11462	543828.675079941101	0
1	11471	545092.388928511048	0
1	11486	545926.939107821008	639.35558586059
1	11492	546703.166153738018	1063.463197936
1	11508	546851.548211640579	139.45703233741
1	11514	547027.415684768742	259.92627802149
1	11553	548549.086370084714	58.52208031481
1	11563	549453.362466404759	575.98078881127
1	11609	551421.644940958138	1431.8036947143
1	11620	551780.364663573672	1710.6139997792
1	11625	552004.387202062043	1864.7248654448
1	11631	552014.839519914806	1111.9066466028
1	11639	552193.010495143811	1045.2573321827
1	11647	552444.980482362547	917.27116819569
1	11652	552490.835984770441	713.27570292695
1	11667	553065.061104079022	674.4843193163
1	11736	556125.344483649438	471.30617166496
1	11741	556191.485227384565	458.8117228042
1	11752	556260.998530746315	153.60434768631
1	11758	556631.537049174093	431.11201080732
1	11791	558173.481803104679	0
1	11802	558370.86902549602	65.088638500051
1	11810	558536.832258378407	199.53445783193
1	11824	559295.853539882791	322.66115049584
1	11858	561439.497275851095	0
1	11871	562549.827616494073	829.0663743632
1	11888	563573.780167085683	342.45602882916
1	11902	564493.510111360458	0
1	11911	565132.880682474525	0
1	11919	565340.908397552936	111.41170522047
1	11927	565540.834451158645	0
1	11935	565670.380686013833	55.185866992967
1	11991	567109.852844878843	23.519990906204
1	12010	568036.741101077457	340.38370028715
1	12018	568078.501959757255	4.817613170368
1	12045	570854.366766398003	0
1	12054	571387.084967212076	0
1	12067	572722.314228939819	86.963959073795
1	12105	573810.207291160912	0
1	12122	574530.305572855982	0
1	12131	575292.626110801244	0
1	12139	575356.656265070932	0
1	12159	576471.439994032607	363.98233411335
1	12167	576815.316984378743	244.59815613108
1	12177	578168.621983354237	918.46409491226
1	12227	579855.645653015901	56.42364766383
1	12232	579947.67986030139	104.40092952297
1	12244	580399.721617224354	103.11874271496
1	12256	581250.935234169411	58.525889626925
1	12286	582529.378810907202	510.76679927614
1	12295	583216.214860498342	888.9168253448
1	12325	584042.0346805258	0
1	12346	585514.127832723885	689.80001388392
1	12355	586334.318326584126	44.781182720567
1	12366	586782.375368712695	31.723250494939
1	12375	587727.117601984912	584.41352921654
1	12383	587928.7431019386	150.53537429787
1	12408	588764.007841456163	6.116399172443
1	12427	589385.551650740685	0
1	12435	589579.311794756996	152.89448194273
1	12444	589899.025370405625	264.37527866888
1	12470	590623.262227727715	330.16091411329
1	12475	590743.153585145637	321.02776156716
1	12508	591580.702774722035	107.30906181356
1	12543	593089.421095623774	0
1	12572	595757.987567963445	2083.7466572779
1	12577	595858.283098265504	943.22119445713
1	12588	596349.413595348199	739.89360709504
1	12600	596844.65907793521	979.20728053788
1	12614	597378.393609579982	1069.3034449046
1	12624	598492.052273473929	2115.2517776101
1	12629	598540.976155122255	1998.5602398115
1	12637	598969.428285449741	1818.0868714329
1	12656	599601.472776239785	3.524413670088
1	12667	599826.3268320836	153.73855058511
1	12697	601578.618380023783	382.66616896763
1	12715	603009.428586302167	0
1	12732	604243.157238160464	0
1	12773	606424.589204430814	51.764377269748
1	12792	607447.992714649991	0
1	12801	608036.177067343185	0
1	12826	608624.682307295355	0
1	12861	611534.857509718423	0
1	12878	612227.480295769661	0
1	12894	612779.599050565566	38.127423677528
1	12914	616243.169289740178	0
1	12936	621438.04414991423	0
1	12945	621766.15350494878	0
1	12954	622763.220359043037	580.80361229911
1	12963	623340.281127962711	66.745641417158
1	12998	626001.032742540903	0
1	13006	626135.740559430499	120.49254085793
1	13014	626360.321679515018	197.38890757162
1	13035	627639.234880140562	165.07734810911
1	13048	627860.912236688698	19.794900914118
1	13073	629045.299006098357	0
1	13082	629352.247870465741	238.40647789168
1	13117	631910.830812253175	0
1	13131	632240.009567032138	240.34061937683
1	13139	632368.360211544496	294.41331238037
1	13148	632672.010313149601	475.71980311022
1	13183	633856.367258427224	0
1	13202	635745.888513715182	1837.062207197
1	13207	635797.368183442466	1807.2841415221
1	13213	636187.547145783318	1277.6165784506
1	13237	636635.42812778619	126.28054101015
1	13278	640151.2967203987	0
1	13287	640601.052972150989	95.212020837429
1	13295	640965.016780901615	0
1	13307	641321.489788143798	162.98494790969
1	13315	641385.838001035737	38.005853344298
1	13323	641903.021068084898	307.78812580485
1	13332	642555.485093464774	558.28023324523
1	13362	643499.303598809254	428.86482741166
1	13388	644535.633123847513	22.962015772874
1	13409	645503.220478131696	161.59816927979
1	13418	646525.079735258489	53.647971335537
1	13455	647651.393466642737	836.93997282747
1	13460	647706.033702862818	885.73359358781
1	13465	647710.933423407897	814.53050245231
1	13470	647726.629290360639	462.93430645109
1	13478	647956.985068832054	570.29912907363
1	13490	648150.428811708639	736.23367779716
1	13498	648385.033737673415	905.47762456162
1	13510	648920.168264878038	1134.8997856968
1	13515	648929.992574712099	315.53646477393
1	13538	650094.272053189895	479.09355730813
1	13565	650850.262930421023	87.283247449299
1	13601	651925.514522826752	198.60630978797
1	13606	652153.477197349225	264.54145237266
1	13637	653194.630563194792	3.104486072546
1	13679	655096.70304048155	613.43375485843
1	13684	655138.017758812365	145.03286251171
1	13701	656444.080707674459	335.952397677
1	13707	656634.71983534404	365.52353559589
1	13734	657654.405386569033	157.9288169572
1	13747	658257.628131577969	25.705146551616
1	13793	660564.719776312674	141.51348082531
1	13807	660826.474259240055	211.22997698784
1	13813	661172.074644540333	516.07543461035
1	13827	661341.445653425421	559.82795981214
1	13832	661453.600836728074	240.01886406775
1	13844	661971.292019108362	412.11674714753
1	13863	662747.903060931807	146.52855125687
1	13905	664887.907856382081	709.17680399283
1	13911	665280.042271581175	714.70977970397
1	13924	665876.268864834167	0
1	13933	666339.346332699179	0
1	13941	666615.742047007197	227.98220235188
1	13992	668782.202225372875	346.4728916753
1	14000	669145.738014615806	0
1	14018	670628.719506548038	0
1	14051	671794.139749823566	0
1	14059	671964.356075246843	90.367792756714
1	14068	672345.146113292519	0
1	14077	673055.170008399322	0
1	14085	673150.19509957009	77.164779260876
1	14135	675280.277661469738	0
1	14145	676636.144711660624	0
1	14172	678951.36154705902	0
1	14180	679578.281967054876	0
1	14198	681163.69894191389	0
1	14208	682563.323886428395	0
1	14228	683831.410975947521	671.0171546909
1	14243	684420.145810304767	1108.9812369178
1	14254	684509.454236656974	592.32222281454
1	14262	684855.416599104327	840.60894879419
1	14274	684931.054198958194	825.02656152388
1	14279	684934.32921049159	173.9938831248
1	14284	685138.561012302617	249.05875506979
1	14292	685439.387447058318	524.22778260727
1	14344	687369.465461344269	26.182131518364
1	14374	687895.304941447091	93.184294304131
1	14391	688778.598939203047	244.41550415968
1	14411	689861.54533160955	347.9527615488
1	14434	691269.737725625157	0
1	14461	693998.896495712159	222.3875568903
1	14473	694610.286466110945	362.62835694529
1	14478	694708.016942601997	112.08276141704
1	14498	695508.660641321719	429.11925339113
1	14507	696108.238988064527	535.59438358463
1	14520	696621.247624994919	219.2987346859
1	14528	696847.99962747102	108.84290144875
1	14551	697485.784548431751	440.26429944693
1	14557	698448.595840226654	1018.5230923902
1	14589	700317.567549976457	0
1	14608	700809.035966867113	83.321267543428
1	14613	700990.482520563486	225.40163535885
1	14638	702931.813966151214	202.758610081
1	14666	703889.74377055473	663.02088616151
1	14671	704002.327618393301	569.26461272149
1	14712	705250.915796451899	416.06678415437
1	14724	705468.833170507113	528.41146720881
1	14729	705993.894168866351	624.11967003672
1	14741	706387.489962482118	985.77932615525
1	14749	706529.026229828644	519.82868296581
1	14772	706952.924973440223	51.464084675248
1	14783	707095.217591572521	53.916761520988
1	14798	707561.788100057666	468.48505274098
1	14807	708044.988635255796	909.53485670475
1	14821	708837.682000394164	587.07475929409
1	14827	708905.601347879264	553.75692864511
1	14835	709125.648101141845	201.73897943802
1	14873	710851.630966167627	274.84587598181
1	14900	711640.229381505148	42.543996712434
1	14947	714123.962873930853	45.193879019983
1	14952	714316.27729997884	197.82993390409
1	14966	715184.482179154996	0
1	14983	715822.819326351698	273.30570416435
1	15000	717290.907324740523	0
1	15008	717329.99309564233	0
1	15017	717478.347533317848	0
1	15036	718173.352824759068	153.70048466447
1	15053	718991.069531561021	531.37054082698
1	15058	719056.167138939505	546.77977275028
1	15087	720144.573584049925	69.600360997616
1	15109	721185.004191374829	0
1	15118	721730.830976256093	0
1	15151	723284.826327428369	0
1	15178	725406.584400306079	0
1	15187	726565.562593738112	0
1	15205	728383.924002387546	339.6901252524
1	15224	729840.014924829407	349.80903660647
1	15229	730059.552510402798	377.15989635853
1	15241	730752.521722154679	362.59263568925
1	15269	732414.882729610221	68.191423187658
1	15283	733034.384042104669	221.97111857266
1	15300	733988.611103124208	236.54133653359
1	15320	735366.545765397347	1051.3632951902
1	15332	735447.054935022126	55.785471953792
1	15343	735987.56943650552	340.94520479342
1	15371	737419.427321222528	470.63810877013
1	15402	739025.383830921589	0
1	15410	739210.661915777761	0.136227800638
1	15418	739438.914820436393	0
1	15452	741146.676732721987	49.262561091655
1	15462	743003.504381243259	0
[...]
7	15218	729791.727556763375	0
7	15222	729840.014924829407	1
7	15227	730059.552510402798	2
7	15235	730439.307423817314	1
7	15239	730752.521722154679	2
7	15245	731337.402817229197	3
7	15260	732292.898914200202	2
7	15272	732789.60171618352	3
7	15286	733117.012703245317	4
7	15288	733440.520744516568	3
7	15303	734060.19036034449	4
7	15305	734190.68789007171	3
7	15314	734748.516600565921	2
7	15325	735393.415355610125	1
7	15330	735447.054935022126	2
7	15337	735754.983652562305	1
7	15341	735987.56943650552	2
7	15346	736212.891981029835	3
7	15365	737348.040906585908	2
7	15374	737685.6882104673	3
7	15378	737782.405775961307	2
7	15391	738954.734809194429	1
7	15408	739210.661915777761	2
7	15413	739361.825361529908	3
7	15421	739449.017425378509	4
7	15423	739566.190437529795	3
7	15432	739734.561846417018	2
7	15437	740235.846630543304	1
7	15455	741206.973867375191	2
7	15465	743112.62811902437	3
7	15474	743347.045758712031	4
7	15476	743520.647686793593	3
7	15484	743954.175838826326	2
7	15490	744042.185319133597	1
7	15510	745249.809129972748	0
7	15514	745461.916585445632	1
7	15522	745586.618547032799	2
7	15527	746063.946622564162	1
7	15531	746313.284032197591	2
7	15544	747008.626863094423	1
7	15553	748058.252313958123	0
7	15566	748657.004957560097	1
7	15571	748665.534704344424	2
7	15579	749375.929070587516	1
7	15584	749381.825215618771	0
7	15597	750017.52492787864	1
7	15610	750583.740165952026	2
7	15612	750819.427867333073	1
7	15630	751570.008923221074	2
7	15636	751755.959641565408	3
7	15644	752371.721306746543	4
7	15646	752405.568545604162	3
7	15651	752442.043639737502	2
7	15655	752618.478850893393	1
7	15672	752791.542077727157	2
7	15676	752799.293774495558	1
7	15694	753564.518649749121	2
7	15696	754241.003358937751	1
7	15714	754902.031724846625	2
7	15720	755269.771729295433	3
7	15722	755571.590175374734	2
7	15736	756140.568997151552	1
7	15740	756147.437627352977	2
7	15744	756196.455541888626	1
7	15762	757237.245084651997	2
7	15764	757565.618388785438	1
7	15780	759334.184339958515	2
7	15790	760549.016292235406	3
7	15792	760574.72054783161	2
7	15810	761353.504483241227	3
7	15815	761411.318493619988	4
7	15817	761512.125573002286	3
7	15832	763075.103431678835	2
7	15835	763144.568306328301	1
7	15839	763344.114460781527	2
7	15843	763374.992882893034	1
7	15857	763874.502921105673	0
7	15875	765379.218215496759	1
7	15887	765816.297147379179	2
7	15891	766098.462555748256	1
7	15899	766895.094734610189	2
7	15904	766905.465247550771	3
7	15908	766953.405420475963	2
7	15924	767713.394436714303	3
7	15929	767736.760460038769	4
7	15933	767838.739787841463	3
7	15942	768157.547471915456	2
7	15953	768773.612514285766	1
7	15962	769109.915676761028	0
7	15981	773258.515557111033	1
7	15983	773425.643641778596	0
7	16001	776963.119233075851	1
7	16004	777729.672937670028	0
7	16021	778189.024371976268	1
7	16030	778809.386287710254	2
7	16035	779033.231002642579	3
7	16043	779730.93803207789	2
7	16051	780242.840496358533	3
7	16056	780510.006627845042	4
7	16064	780943.00211994008	3
7	16069	781266.853655573236	2
7	16085	782358.118280096554	3
7	16093	782478.522995684976	4
7	16098	782589.010733778702	3
7	16101	782747.707578795767	2
7	16105	782936.076963177993	3
7	16109	783002.627948384786	2
7	16112	783195.533795049982	1
7	16136	784239.537102144323	0
7	16155	785191.814990404642	1
7	16166	785454.89178871813	2
7	16170	785487.59424001365	1
7	16177	785928.203864687265	2
7	16183	786303.265306194606	3
7	16190	786756.228477426865	2
7	16199	786926.605009021563	1
7	16208	787243.898822125059	2
7	16212	787290.722870964237	1
7	16231	788911.754225550155	2
7	16233	788928.183666539207	1
7	16248	790134.900857337562	2
7	16259	792214.634162283718	3
7	16261	792239.472353544124	2
7	16269	792790.896399700677	1
7	16285	794108.949816888853	2
7	16287	794266.311868843286	1
7	16301	795144.132578393441	0
7	16305	795374.018625710989	1
7	16318	795949.539789229399	0
7	16323	796432.202078798474	1
7	16339	797029.911143733698	2
7	16344	797039.383997259614	3
7	16352	797101.247173153978	4
7	16355	797163.844400274981	3
7	16369	797897.995210978222	4
7	16371	797952.07125083576	3
7	16386	798203.517970388741	4
7	16389	799030.673226967495	3
7	16406	799569.402632232254	4
7	16414	799678.631929151316	5
7	16426	800036.217938781674	6
7	16430	800183.477686669178	5
7	16433	800251.681397505307	4
7	16437	800344.421659248611	5
7	16442	800387.299776828861	6
7	16464	801770.091919959112	5
7	16467	801773.959433229694	4
7	16470	801936.840241910889	3
7	16476	802129.089437766416	2
7	16480	802179.555871755129	3
7	16484	802182.612885371679	2
7	16492	802710.371690679977	3
7	16497	802832.746407957924	4
7	16505	803062.772735306632	5
7	16510	803450.235878908949	4
7	16514	803462.701660676109	5
7	16519	804165.046832860635	4
7	16522	804397.715709741705	3
7	16525	804678.530764342266	2
7	16544	805517.263266248393	1
7	16553	806017.604727636487	0
7	16576	806879.917349771174	1
7	16605	808093.38848172617	2
7	16607	808192.34930559827	1
7	16622	808526.287479657916	2
7	16625	809320.1910502005	1
7	16633	809745.746414125216	0
7	16650	811844.604149785993	1
7	16658	812394.416094996631	2
7	16661	812858.657107854714	1
7	16669	813232.177455505722	0
7	16679	813574.397858574285	1
7	16688	815258.673634805373	0
7	16706	816159.611768148564	1
7	16711	816737.089241149214	2
7	16713	816799.566652239273	1
7	16728	816960.745589855537	2
7	16737	818004.058296110364	3
7	16744	818060.967438734295	2
7	16747	818241.131151786751	1
7	16752	819108.624201995089	2
7	16756	819202.333512072836	1
7	16773	819803.156192056213	0
7	16789	821417.621064743506	1
7	16794	824321.256334295008	0
7	16814	826615.960455183829	1
7	16820	827548.724595132834	2
7	16828	827907.21931316873	3
7	16838	828906.632365419937	4
7	16840	829478.016312775228	3
7	16848	829564.519714056113	2
7	16852	830019.901264900805	1
7	16861	830090.752874078362	2
7	16865	830389.023565673156	1
7	16892	831459.354389361069	2
7	16897	831894.291250404593	3
7	16908	832073.706931722687	4
7	16913	832156.482665254706	5
7	16915	832163.198187707854	4
7	16921	832375.414867657069	3
7	16932	832868.446740016153	2
7	16941	833071.508571027698	3
7	16949	833946.24978457938	2
7	16959	834552.780230369847	3
7	16967	835302.296999423132	2
7	16976	836312.417433699395	1
7	16979	836441.25229670314	0
7	16995	836897.087517653312	1
7	17000	837398.143415882384	2
7	17005	837439.432601659508	3
7	17021	837898.356963906902	2
7	17024	837981.749226056987	1
7	17034	838618.953829802665	2
7	17042	838673.647458434529	3
7	17048	839315.132178911065	4
7	17057	839379.423730327379	3
7	17061	840035.968231302369	2
7	17077	840518.090043174678	1
7	17091	841678.493783672983	0
7	17105	842059.598236562587	1
7	17110	842214.814858760841	2
7	17118	842425.906924915824	3
7	17122	842426.131438354067	2
7	17126	842481.711639496798	3
7	17130	842521.752440387566	2
7	17134	842845.511754381821	1
7	17138	842968.372254754199	2
7	17151	843366.916347294242	3
7	17155	843421.842389472975	2
7	17183	844701.191504085932	1
7	17190	845053.588269234344	2
7	17195	845340.26125126393	1
7	17199	845439.402933439569	2
7	17220	845897.833737231453	3
7	17224	845960.50689346966	2
7	17229	846228.362269753708	3
7	17236	846837.925361519589	2
7	17242	846984.509052387887	1
7	17260	848223.181070211179	2
7	17262	848284.292241929633	1
7	17277	848916.050957139579	2
7	17284	849413.578917126808	1
7	17289	849546.456571615061	2
7	17309	851320.024504209977	1
7	17313	851586.764039660502	2
7	17317	851745.57329672477	1
7	17325	852109.279570206096	2
7	17329	852174.587990474906	1
7	17336	852638.477491284803	2
7	17341	852638.812304088429	3
7	17345	852646.600982040761	2
7	17349	852780.501688339991	3
7	17359	853250.818370312237	2
7	17362	853492.206433335456	1
7	17381	854699.766471799754	0
7	17394	855639.260264286111	1
7	17399	855734.438893181268	2
7	17404	855859.723994577889	3
7	17409	855902.845644419466	4
7	17418	856064.780158900908	3
7	17421	856109.588535406676	2
7	17443	857146.919373046302	1
7	17447	857318.842943279871	0
7	17451	857337.284707180413	1
7	17480	858063.715703545885	2
7	17482	858864.253843026719	1
7	17497	859555.975288254265	2
7	17499	859620.816155051529	1
7	17516	859977.613003864564	0
7	17520	860065.262503397858	1
7	17524	860286.417302502652	0
7	17528	860315.607226218985	1
7	17532	860413.947377562907	0
7	17556	861856.207472746184	1
7	17568	863047.395477400624	2
7	17574	863797.060977165264	3
7	17577	864115.179849179706	2
7	17591	864420.223015887757	3
7	17594	865220.782550647211	2
7	17603	866117.318847964911	1
7	17624	867077.379684921589	2
7	17629	867394.306153678083	3
7	17635	867483.056984521053	4
7	17637	867606.444013148923	3
7	17642	867879.240499203702	2
7	17653	868188.302809780312	1
7	17658	868328.34444973426	2
7	17677	869721.360050684822	3
7	17679	869894.185661951927	2
7	17684	869914.097954675574	1
7	17702	870838.659961702441	2
7	17714	871162.317251217155	3
7	17719	871425.045144360253	4
7	17721	871659.612422822117	3
7	17736	872223.205089921055	4
7	17745	872829.961796110264	5
7	17747	872958.049803288716	4
7	17752	873092.307591795523	3
7	17770	873589.705241848089	4
7	17772	873667.718950127335	3
7	17793	874519.856383360659	4
7	17801	874909.545983604548	5
7	17805	874932.302311879097	4
7	17812	875001.014670285616	5
7	17817	875113.439674430734	6
7	17822	875124.461088284992	7
7	17830	875188.631141550233	6
7	17835	875516.639641830551	5
7	17841	875700.475604328524	4
7	17850	876052.7408955574	3
7	17854	876490.551384120079	4
7	17866	876841.056050143721	3
7	17875	877445.819812606592	2
7	17879	877620.603051641325	3
7	17892	878382.346387373453	2
7	17901	879084.01128392989	1
7	17905	879087.077066844511	2
7	17914	879155.992330416083	1
7	17917	879182.569602554941	0
7	17949	880760.376922946921	1
7	17953	880882.856089590403	0
7	17961	881326.191197278235	1
7	17966	881427.258406137147	2
7	17973	881747.72127034966	1
7	17988	882305.699895049157	2
7	17990	882671.1922524551	1
7	18007	884598.821074106224	2
7	18010	885610.52153206585	1
7	18019	886312.744846640097	0
7	18031	886657.671973105422	1
7	18037	887589.6148754667	2
7	18056	888669.029660102763	1
7	18060	888687.044835351384	2
7	18065	888794.186863989297	3
7	18070	888824.157699222208	4
7	18075	889017.611351902638	3
7	18078	889025.986861499137	2
7	18090	889406.836456317101	3
7	18109	889800.176460443854	4
7	18117	890169.756998079823	5
7	18119	890215.520928160421	4
7	18124	890389.818863400102	3
7	18133	890703.684416931001	2
7	18136	890938.883741431891	1
7	18144	891162.273210803018	0
7	18167	891974.465840192119	1
7	18176	892512.015713818964	2
7	18178	892649.083812981258	1
7	18195	893093.440027332631	2
7	18201	893231.475483370454	3
7	18203	893325.772260149545	2
7	18218	895234.741207308906	1
7	18222	895589.071488371548	2
7	18236	896335.919967817661	3
7	18244	896792.318094212613	2
7	18251	897070.386230419081	3
7	18256	897160.659520822135	4
7	18270	898095.252861182806	5
7	18279	898491.572121190563	6
7	18281	898959.823522956967	5
7	18286	899074.873625123025	4
7	18299	899744.540240131836	5
7	18303	899771.148475548721	4
7	18320	900031.491938568129	3
7	18323	900086.99074810513	2
7	18326	900239.232882342839	1
7	18332	900533.952056722016	0
7	18337	901092.670068059351	1
7	18342	901692.277821057378	2
7	18365	902249.936556332267	1
7	18370	902613.241479611025	2
7	18374	902747.124107718049	1
7	18395	903853.550153089924	2
7	18400	903964.565077036727	3
7	18408	904747.10943076065	2
7	18422	905110.796752690321	3
7	18431	905284.030642629809	4
7	18433	905635.983570543702	3
7	18448	906236.248039215766	4
7	18456	906344.748289046718	5
7	18458	906423.816768447277	4
7	18472	907600.470481135712	3
7	18476	907671.897364376357	4
7	18489	907999.885282468337	3
7	18495	908028.448280058109	2
7	18498	908028.931368738648	1
7	18502	908293.756869070131	2
7	18507	908518.719710824843	3
7	18525	909098.466807595957	2
7	18541	910236.730872553916	3
7	18550	910418.916042585499	4
7	18554	910598.070544429713	3
7	18557	910645.903930465045	2
7	18561	910648.511751210549	3
7	18566	910710.909685194028	4
7	18570	910818.528050013706	3
7	18593	912314.020984534794	2
7	18610	912793.910956494053	3
7	18616	912947.314536716607	4
7	18618	913015.006145155532	3
7	18633	914056.152467115908	4
7	18635	914427.12275581543	3
7	18641	914717.923009282889	2
7	18649	914788.361080285671	1
7	18661	915268.256028148999	2
7	18675	915756.474553560567	3
7	18678	916490.75367921955	2
7	18696	917866.13537637459	3
7	18701	917942.652527354194	4
7	18703	918010.953294862907	3
7	18717	918640.335066334396	2
7	18723	918781.956438576001	1
7	18731	918940.209422592722	2
7	18742	919412.254102548855	3
7	18747	919432.903670527961	4
7	18752	919612.606890102821	5
7	18757	919662.114048118934	6
7	18771	919979.409108418551	7
7	18778	920244.878041905508	6
7	18792	921233.884153846353	5
7	18796	921307.373822206511	6
7	18804	921697.993194217393	5
7	18812	922227.74657250785	4
7	18818	922357.122852136836	3
7	18829	922840.580415918834	2
7	18833	922882.905111899232	3
7	18845	923011.566122575974	2
7	18856	924949.401441910498	1
7	18861	925017.747910070207	0
7	18878	925576.031512490356	1
7	18881	926163.290699974125	0
7	18897	927925.61294172741	1
7	18906	928313.201054174045	2
7	18908	928516.132006189632	1
7	18916	928717.72425743662	0
7	18934	929524.809108924902	1
7	18940	930124.595811889612	2
7	18948	930615.021396866906	3
7	18950	930706.376997148146	2
7	18965	931719.578087768692	3
7	18968	932119.40563305168	2
7	18973	932134.242416201532	1
7	18995	933448.300334480514	2
7	19000	933487.304744204348	3
7	19008	933975.640571797405	4
7	19011	934340.132286081882	3
7	19025	935171.077260094217	2
7	19029	935352.872993571826	3
7	19036	935560.122545035619	2
7	19050	935851.18136721912	3
7	19052	935939.429075240997	2
7	19064	936690.420052918916	1
7	19074	936893.142316706162	2
7	19079	936963.586108114309	3
7	19091	937644.084446150181	2
7	19096	938056.939676177872	3
7	19110	938963.507339062519	4
7	19118	939395.434890864354	5
7	19121	939866.71513281075	4
7	19126	940055.560173828829	3
7	19130	940519.807039240129	2
7	19133	940630.066385964236	1
7	19148	941568.174027869456	0
7	19152	941778.640189182705	1
7	19160	941962.727806637509	2
7	19165	942112.495754034945	1
7	19169	942306.715534658101	2
7	19178	942541.716043414051	1
7	19201	942925.933828661948	2
7	19205	943059.632801056363	1
7	19230	944974.229071919415	2
7	19234	944976.594314543319	1
7	19251	945962.457848458036	2
7	19256	946196.6706167471	3
7	19265	946983.843585969737	4
7	19270	947032.352484998908	5
7	19279	947552.322748403983	6
7	19283	947784.055446632179	5
7	19286	947825.213667157448	4
7	19290	948641.732982177799	3
7	19294	948651.605572246024	4
7	19300	949058.313477725039	5
7	19307	949293.229448435421	4
7	19311	949773.537841669925	3
7	19314	949988.942741485627	2
7	19318	950128.655228411902	3
7	19326	950894.109745921325	2
7	19330	951029.283712191295	3
7	19335	951326.291060045637	4
7	19348	951779.642106172936	3
7	19352	951882.704126788045	4
7	19367	952609.358757579879	3
7	19370	952626.16116869472	2
7	19382	952911.577305271443	3
7	19396	953502.098630152915	4
7	19409	954041.449838047988	3
7	19418	954138.666629349375	4
7	19442	954486.424193542739	3
7	19463	954917.982951015726	4
7	19467	955295.376499182939	3
7	19477	955830.109382131911	2
7	19484	956010.213339692001	3
7	19489	956155.735221339043	4
7	19494	956323.37906409361	5
7	19499	956453.355839774054	6
7	19514	956664.773947753428	5
7	19527	958600.065505121139	4
7	19532	958911.334063062125	3
7	19538	959056.684003350537	2
7	19542	959163.663504951946	1
7	19551	959480.430618974435	2
7	19569	960283.275809537361	1
7	19590	962164.534219004501	0
7	19594	962186.230684054123	1
7	19598	962392.63325129322	0
7	19603	962717.09510532932	1
7	19607	962792.081242998973	0
7	19611	962862.969719042476	1
7	19635	964108.745562776839	2
7	19643	964317.662675979576	1
7	19647	964392.322784011528	2
7	19660	965243.768451153109	1
7	19664	965558.81978382731	2
7	19668	965580.679798704183	1
7	19687	966353.428633587642	2
7	19692	966571.978954123565	3
7	19696	966678.722803446539	2
7	19700	966808.571018631817	3
7	19713	967433.335487573569	2
7	19734	968953.078985100064	1
7	19738	969016.959008920027	2
7	19745	969250.648413241232	1
7	19749	969369.385079726451	2
7	19753	969404.335173837197	1
7	19757	969441.346024438329	2
7	19769	969718.369367028012	3
7	19773	970005.920244157576	2
7	19777	970012.449944433289	3
7	19785	970094.534725982425	4
7	19790	970160.665508561142	5
7	19795	970336.513748042727	4
7	19803	970988.018638555217	3
7	19807	971191.093671768834	2
7	19825	971420.697278189121	1
7	19853	972721.845107660499	2
7	19861	973539.937339299833	1
7	19869	974511.600653227871	2
7	19875	974684.150460116703	3
7	19879	974829.884269264295	2
7	19882	974857.282041185449	1
7	19895	975621.256230957819	2
7	19908	976012.131069499428	3
7	19924	976282.089282973229	4
7	19928	976294.444075757675	3
7	19933	976545.174133255544	4
7	19941	977694.381925004265	3
7	19953	978596.037664967057	2
7	19958	979582.209634451217	3
7	19964	979799.239607805316	4
7	19976	980134.263742874503	3
7	19984	980336.756210846902	2
7	19999	980651.679149724178	3
7	20001	980921.864551373599	2
7	20019	981600.943763911805	3
7	20024	981794.307514873957	4
7	20032	982003.833707321461	5
7	20034	982056.901699641189	4
7	20040	982343.230023114156	3
7	20061	983383.284703239913	4
7	20068	983666.427741636846	3
7	20072	983692.680130102112	4
7	20076	983704.332463422232	3
7	20080	983826.376126107084	4
7	20084	983892.990062299732	3
7	20101	984324.03835819472	2
7	20115	984598.470031425263	3
7	20123	984914.917927165003	2
7	20130	985485.174859697477	3
7	20139	986078.884507468821	4
7	20147	986233.148405761028	5
7	20152	986318.053993392861	6
7	20171	986523.757037154937	7
7	20177	986654.49093018844	8
7	20181	986953.612396961372	7
7	20185	987193.334749732044	8
7	20193	987795.666520581597	7
7	20202	988341.573079311278	6
7	20206	988386.975149869228	7
7	20210	988394.384894993067	6
7	20226	988817.207186416699	5
7	20231	988874.681623109939	4
7	20234	988987.985511760754	3
7	20250	989566.135384363516	4
7	20255	989587.99383514528	5
7	20276	990304.364801362316	4
7	20280	990656.082555999156	5
7	20284	990706.288949123683	4
7	20288	990717.165650492458	5
7	20301	991226.236225523583	4
7	20306	991283.741092909193	3
7	20309	991398.389967247666	2
7	20326	992180.994765043839	1
7	20341	993174.074554731807	2
7	20349	993358.667081983115	3
7	20358	993710.834397243249	4
7	20360	993798.880026789078	3
7	20368	993910.375953120059	2
7	20383	995156.98496806325	3
7	20386	995447.148353393572	2
7	20395	996166.502805385386	1
7	20400	996521.429351615924	0
7	20419	998518.892087399254	1
7	20431	998973.790731830305	2
7	20439	999128.071456772334	3
7	20445	999487.468739272084	4
7	20453	999730.88592928044	5
7	20456	1000756.733954949572	4
7	20462	1001253.278768721902	3
7	20465	1001319.754752284675	2
7	20490	1003874.301898174502	3
7	20498	1003993.608287013879	4
7	20500	1004008.467336701143	3
7	20510	1005733.865617527198	2
7	20518	1006030.891969552868	1
7	20530	1006778.543112562725	0
7	20540	1007433.501229142817	1
7	20545	1007583.732917875449	2
7	20549	1007688.409252388847	1
7	20567	1008737.411716042419	2
7	20578	1009667.684508279768	1
7	20582	1009683.865808809472	2
7	20588	1009906.676062003789	3
7	20596	1010736.237374069658	2
7	20601	1010874.940723977619	1
7	20613	1011117.145072337427	2
7	20626	1011406.809601245283	3
7	20635	1011913.90138641155	4
7	20637	1011987.35298758883	3
7	20647	1013307.363071669848	2
7	20656	1014218.675599369283	1
7	20671	1015057.116547910202	2
7	20673	1015384.896743088333	1
7	20688	1016167.365901576031	2
7	20690	1016200.57479810545	1
7	20705	1017554.678939415571	0
7	20709	1018090.404110534336	1
7	20717	1018374.04918875061	0
7	20732	1019538.993320026657	1
7	20741	1021192.436189071759	0
7	20745	1021470.884782064578	1
7	20754	1022908.880342698509	0
7	20775	1026109.968198356791	1
7	20780	1026247.822986678359	2
7	20782	1026776.926902343751	1
7	20791	1027413.665493407043	0
7	20806	1028389.480050189212	1
7	20809	1028847.590196171034	0
7	20824	1030005.116818296417	1
7	20832	1030130.81220480813	2
7	20841	1031265.099656960235	1
7	20845	1031476.507479303797	2
7	20860	1033473.958464405589	3
7	20869	1034304.638648654601	4
7	20872	1034862.537304330135	3
7	20885	1035395.679959623471	2
7	20890	1035637.078491917344	3
7	20897	1035923.894260534134	2
