version 2
run ParkingMeasurement-63-20170108-17:27:42-3749
attr configname ParkingMeasurement
attr datetime 20170108-17:27:42
attr experiment ParkingMeasurement
attr inifile parkingStudy.ini
attr iterationvars ""
attr iterationvars2 $repetition=63
attr measurement ""
attr network controltower.SimNetwork
attr processid 3749
attr repetition 63
attr replication #63
attr resultdir results
attr runnumber 63
attr seedset 63
param SimNetwork.a.parkingLot.parkingDelay exponential(30min)
param SimNetwork.a.runway.landingTime exponential(5min)
param SimNetwork.a.runway.takeoffTime exponential(5min)
param SimNetwork.a.runway.throughputCheckInterval 14.286min
param SimNetwork.wg.interArrivalTime exponential(14.286min)

statistic SimNetwork.wg 	responseTime:stats
field count 1111
field mean 5521.516279361
field stddev 4128.0979942322
field sum 6134404.5863701
field sqrsum 52786939073.312
field min 345.68842662633
field max 27105.860648835
attr source  responseTimeSignal
scalar SimNetwork.a.landingQueue 	queueLength:timeavg 	0.39284008218439
attr source  queueLengthSignal
statistic SimNetwork.a.landingQueue 	queueLength:stats
field count 2173
field mean 0.87574781408191
field stddev 0.98432744092533
field sum 1903
field sqrsum 3771
field min 0
field max 9
attr source  queueLengthSignal
statistic SimNetwork.a.landingQueue 	queueTime:stats
field count 1086
field mean 338.44150437673
field stddev 436.2877299638
field sum 367547.47375313
field sqrsum 330919796.84578
field min 0
field max 2447.7291075473
attr source  queueTimeSignal
scalar SimNetwork.a.takeoffQueue 	queueLength:timeavg 	1.9974049682291
attr source  queueLengthSignal
statistic SimNetwork.a.takeoffQueue 	queueLength:stats
field count 2199
field mean 2.8453842655753
field stddev 4.9792760074959
field sum 6257
field sqrsum 72299
field min 0
field max 32
attr source  queueLengthSignal
statistic SimNetwork.a.takeoffQueue 	queueTime:stats
field count 1111
field mean 1886.7625038723
field stddev 3531.1216619355
field sum 2096193.1418021
field sqrsum 17795409033.27
field min 0
field max 18455.610007556
attr source  queueTimeSignal
scalar SimNetwork.a.parkingLot 	parkingOccupancy:timeavg 	2.102890638949
attr source  parkingOccupancy
statistic SimNetwork.a.parkingLot 	parkingOccupancy:stats
field count 2174
field mean 2.5883164673413
field stddev 1.6028252837219
field sum 5627
field sqrsum 20147
field min 0
field max 10
attr source  parkingOccupancy
