<<<<<<< HEAD
file 370319 1483715084                                          
version 2
run ParkingMeasurement-18-20170106-02:04:01-11260
attr configname ParkingMeasurement
attr datetime 20170106-02:04:01
attr experiment ParkingMeasurement
attr inifile parkingStudy.ini
attr iterationvars ""
attr iterationvars2 $repetition=18
attr measurement ""
attr network SimNetwork
attr processid 11260
attr repetition 18
attr replication #18
attr resultdir results
attr runnumber 18
attr seedset 18
param SimNetwork.a.parkingLot.parkingDelay exponential(30min)
param SimNetwork.a.runway.landingTime exponential(5min)
param SimNetwork.a.runway.takeoffTime exponential(5min)
param SimNetwork.a.runway.throughputCheckInterval 14.286min
param SimNetwork.wg.interArrivalTime exponential(14.286min)
vector 5  SimNetwork.a.runway  landedThroughput:vector  ETV
attr source landedThroughputSignal
5	263394 21152 1763 20390 100287.72 1036306.44 1093 0 6 1098 2294
vector 6  SimNetwork.a.runway  tookoffThroughput:vector  ETV
attr source tookoffThroughputSignal
6	284546 21152 1763 20390 100287.72 1036306.44 1093 0 8 1097 2443
vector 2  SimNetwork.a.landingQueue  queueLength:vector  ETV
attr source queueLengthSignal
2	91409 64547 1765 20372 100387.386454661151 1035823.342347630509 2190 0 7 1813 3259
vector 7  SimNetwork.a.parkingLot  parkingOccupancy:vector  ETV
attr source parkingOccupancy
7	305698 64621 1768 20391 100396.007684786164 1036513.570734877103 2192 0 11 5728 20400
vector 1  SimNetwork.a.landingQueue  queueTime:vector  ETV
attr source queueTimeSignal
1	49070 42339 1770 20372 100396.007684786164 1035823.342347630509 1095 0 2504.416570696 303353.17874945 245062301.9761
vector 4  SimNetwork.a.takeoffQueue  queueLength:vector  ETV
attr source queueLengthSignal
4	198633 64761 1775 20397 100480.212892380864 1036728.395420924392 2195 0 16 3855 20557
vector 3  SimNetwork.a.takeoffQueue  queueTime:vector  ETV
attr source queueTimeSignal
3	155956 42677 1775 20397 100480.212892380864 1036728.395420924392 1099 0 8324.1200681044 1018904.182174 3615403645.0196
vector 0  SimNetwork.wg  responseTime:vector  ETV
attr source responseTimeSignal
0	1436 47634 1785 20395 101313.304203690436 1036728.395420924392 1098 433.52401751928 17931.696546235 4835816.4277503 28409034403.806
=======
file 370330 1483892853                                          
version 2
run ParkingMeasurement-18-20170108-17:27:33-3486
attr configname ParkingMeasurement
attr datetime 20170108-17:27:33
attr experiment ParkingMeasurement
attr inifile parkingStudy.ini
attr iterationvars ""
attr iterationvars2 $repetition=18
attr measurement ""
attr network controltower.SimNetwork
attr processid 3486
attr repetition 18
attr replication #18
attr resultdir results
attr runnumber 18
attr seedset 18
param SimNetwork.a.parkingLot.parkingDelay exponential(30min)
param SimNetwork.a.runway.landingTime exponential(5min)
param SimNetwork.a.runway.takeoffTime exponential(5min)
param SimNetwork.a.runway.throughputCheckInterval 14.286min
param SimNetwork.wg.interArrivalTime exponential(14.286min)

vector 5  SimNetwork.a.runway  landedThroughput:vector  ETV
attr source  landedThroughputSignal
vector 6  SimNetwork.a.runway  tookoffThroughput:vector  ETV
attr source  tookoffThroughputSignal
vector 2  SimNetwork.a.landingQueue  queueLength:vector  ETV
attr source  queueLengthSignal
vector 7  SimNetwork.a.parkingLot  parkingOccupancy:vector  ETV
attr source  parkingOccupancy
vector 1  SimNetwork.a.landingQueue  queueTime:vector  ETV
attr source  queueTimeSignal
vector 4  SimNetwork.a.takeoffQueue  queueLength:vector  ETV
attr source  queueLengthSignal
vector 3  SimNetwork.a.takeoffQueue  queueTime:vector  ETV
attr source  queueTimeSignal
vector 0  SimNetwork.wg  responseTime:vector  ETV
attr source  responseTimeSignal
0	1447 47634 1785 20395 101313.304203690436 1036728.395420924392 1098 433.52401751928 17931.696546235 4835816.4277503 28409034403.806
1	49081 42339 1770 20372 100396.007684786164 1035823.342347630509 1095 0 2504.416570696 303353.17874945 245062301.9761
2	91420 64547 1765 20372 100387.386454661151 1035823.342347630509 2190 0 7 1813 3259
3	155967 42677 1775 20397 100480.212892380864 1036728.395420924392 1099 0 8324.1200681044 1018904.182174 3615403645.0196
4	198644 64761 1775 20397 100480.212892380864 1036728.395420924392 2195 0 16 3855 20557
5	263405 21152 1763 20390 100287.72 1036306.44 1093 0 6 1098 2294
6	284557 21152 1763 20390 100287.72 1036306.44 1093 0 8 1097 2443
7	305709 64621 1768 20391 100396.007684786164 1036513.570734877103 2192 0 11 5728 20400
>>>>>>> branch 'develop' of git@github.com:enricomeloni/PESC_Control_Tower.git
