version 2
run ParkingMeasurement-126-20170108-17:27:54-4074
attr configname ParkingMeasurement
attr datetime 20170108-17:27:54
attr experiment ParkingMeasurement
attr inifile parkingStudy.ini
attr iterationvars ""
attr iterationvars2 $repetition=126
attr measurement ""
attr network controltower.SimNetwork
attr processid 4074
attr repetition 126
attr replication #126
attr resultdir results
attr runnumber 126
attr seedset 126
param SimNetwork.a.parkingLot.parkingDelay exponential(30min)
param SimNetwork.a.runway.landingTime exponential(5min)
param SimNetwork.a.runway.takeoffTime exponential(5min)
param SimNetwork.a.runway.throughputCheckInterval 14.286min
param SimNetwork.wg.interArrivalTime exponential(14.286min)

vector 5  SimNetwork.a.runway  landedThroughput:vector  ETV
attr source  landedThroughputSignal
vector 6  SimNetwork.a.runway  tookoffThroughput:vector  ETV
attr source  tookoffThroughputSignal
vector 0  SimNetwork.wg  responseTime:vector  ETV
attr source  responseTimeSignal
vector 2  SimNetwork.a.landingQueue  queueLength:vector  ETV
attr source  queueLengthSignal
vector 1  SimNetwork.a.landingQueue  queueTime:vector  ETV
attr source  queueTimeSignal
vector 7  SimNetwork.a.parkingLot  parkingOccupancy:vector  ETV
attr source  parkingOccupancy
vector 4  SimNetwork.a.takeoffQueue  queueLength:vector  ETV
attr source  queueLengthSignal
vector 3  SimNetwork.a.takeoffQueue  queueTime:vector  ETV
attr source  queueTimeSignal
0	2290	100876.514876421235	9619.9371248942
0	2300	101118.684577250443	11335.260859698
0	2306	101233.138921821426	6469.7731958937
0	2311	101317.255094281675	7994.4752791718
0	2319	101461.557271022041	7833.6532351399
0	2330	102463.731638103082	15593.50503789
0	2338	102654.100251016937	7694.1188538285
0	2354	103811.867144967603	10914.420455054
0	2373	104654.202191126665	9546.7282246612
0	2381	105378.885709031502	10239.505840223
0	2406	106209.901747889458	7531.0446785922
0	2412	106326.587547211145	6271.5267700851
0	2420	106328.330619047865	11140.173278929
0	2431	107359.857932596032	4459.0638118958
0	2436	107381.013977291569	4028.7270706123
0	2464	110071.715387854045	3744.7591176127
0	2478	110728.237505871038	9313.3259542868
0	2488	111013.525418439513	5783.3239790713
0	2517	111814.669014558016	4011.1463718224
0	2539	113032.895434297853	7611.7068880669
0	2544	113048.630103905197	2857.7321862391
0	2550	113485.129984446511	3705.9858717164
0	2555	113539.74730678021	2475.0415542317
0	2590	116239.504868841039	4740.3513314282
0	2607	116822.284020666911	2998.6090209904
0	2615	116964.502109627336	5433.3932479401
0	2666	119125.880035427915	4635.0470535254
0	2678	119344.978453040163	5350.3648624988
0	2691	119473.396468048019	2038.729419063
0	2696	119484.917199696092	2915.0272649578
0	2704	119636.895560264319	2444.1679634831
0	2717	119841.02165986693	1902.0426724956
0	2729	120382.799348457082	2796.6272128817
0	2740	121069.283181390196	1836.5345353362
0	2777	125219.15312977758	5657.9058478337
0	2798	127344.441669421099	5394.031707791
0	2803	127626.320819958646	7726.8806153383
0	2813	129145.247574022092	4199.4777886904
0	2823	130603.437877677386	8294.4584091606
0	2876	134844.884985157144	1337.6489172102
0	2893	136025.359279715749	10027.584973531
0	2905	136877.713443205593	2164.2708603462
0	2910	136949.618523550439	5537.0974587101
0	2928	138018.265943404061	4939.0922731974
0	2961	139637.830029378218	6137.7338392065
0	2981	140373.001714355137	1750.5313810008
0	3035	142099.582611524899	2279.8125954645
0	3058	142694.275937348678	3980.2897296412
0	3158	146750.390518706717	9184.9117485629
0	3169	147015.180724330606	11779.871794655
0	3182	147422.970504843153	6663.1325827347
0	3196	148189.334438915468	7521.4215750587
0	3216	148988.483226352808	8088.5331591712
0	3230	149632.911049834037	9263.75766108
0	3243	149765.785207446823	7842.5801410525
0	3251	149811.339278143525	10557.096023239
0	3256	149826.91867887584	7168.2563005623
0	3265	150100.228581906517	6712.3098332251
0	3294	152466.439709785103	8722.7413256354
0	3300	152827.795717801028	9535.7333250426
0	3308	152917.004901972061	7965.9067649159
0	3321	153123.065246554334	9312.6164282098
0	3329	153147.122718300348	8056.8932787262
0	3346	153831.116123391762	6569.7332886316
0	3351	154107.051292987357	11595.586465769
0	3361	155616.830458195591	6730.2943601048
0	3370	156456.294709305529	8559.590919424
0	3380	156795.077990422289	6716.0622167172
0	3385	156822.10230354914	9867.8756352348
0	3391	157145.236423283696	12203.037270547
0	3397	157856.454705115636	7484.7834592237
0	3405	158268.34891312809	8891.2965755716
0	3449	161215.248283230538	8326.2815953847
0	3454	161259.282997820999	8117.3262823018
0	3459	161420.806796729081	3373.25931195
0	3467	161516.364604280399	2603.3998899204
0	3495	162825.591899779772	2532.0901099031
0	3501	163158.942019114572	1628.2258284803
0	3513	164008.51375880934	4509.0272078744
0	3552	165890.831608008984	9712.3944962442
0	3560	166228.876783339746	1377.2247206059
0	3569	167040.993329237322	3108.2627149544
0	3581	167584.657714718459	2759.6190611434
0	3587	168286.828605442639	6200.2362252739
0	3614	170709.673716534024	5656.1189979133
0	3622	170773.784119612282	1932.7241440701
0	3674	174168.231023993673	4431.0919229516
0	3682	174581.577173994371	1774.9920939923
0	3693	174734.513540243637	2924.4315534644
0	3702	175635.582125087877	4308.0404370416
0	3714	176317.425243665091	3687.127007886
0	3768	178864.897411986286	3216.6823228711
0	3782	179423.389448229797	5588.0125467395
0	3795	179667.161497512648	3160.914593725
0	3800	179960.521429242852	2434.2012907737
0	3813	180945.044203993263	3529.3349556479
0	3835	181764.977025611653	2759.600834273
0	3858	183073.503516968527	4433.4223342992
0	3864	183576.083497602425	7637.7520656541
0	3869	183775.683477458122	2480.1858564066
0	3886	184473.626753237049	3631.4073594129
0	3904	186591.968309323656	2707.8074849352
0	3921	187639.331180225792	5129.9614165702
0	3942	188906.854039502775	2810.185987114
0	3955	189366.448489647358	2221.1958189934
0	3972	190270.668247606306	2601.3551580675
0	3981	190490.261560655931	1677.6753808301
0	4007	192634.986830022604	1053.372879875
0	4027	193566.23455741696	3792.8723355546
0	4069	196551.66916513445	4840.9112835254
0	4089	197762.223888204493	4420.5167633696
0	4116	198860.794036601303	4345.9682579198
0	4131	199489.213257998603	6522.4213099647
0	4148	200475.999757074116	5499.2884583988
0	4171	201038.551241128826	4000.3412365471
0	4218	203140.249099074736	5256.7305261928
0	4224	203147.493344429444	6851.3345755737
0	4229	203307.712808776735	4917.6530950753
0	4234	203313.569610048962	3886.0275590841
0	4242	203620.463322994323	3167.2734530207
0	4247	203769.982090166413	3163.3753950826
0	4252	203865.811975798353	3130.9362249771
0	4261	204706.865450375994	3625.7377417269
0	4311	210050.67508412999	8473.7964346309
0	4316	210449.146091653281	2813.9429632208
0	4333	211319.634582542676	3548.1593466436
0	4347	211568.165122135099	4315.6656506335
0	4361	212249.021273996185	10313.000765138
0	4366	212453.816115733712	3475.7970002182
0	4376	213472.795432715062	2389.3287717458
0	4456	217194.935585224887	3384.9308927726
0	4461	217427.974131106496	3440.0250907647
0	4470	217753.785128752049	3660.0476016129
0	4475	217920.251815803286	3461.9435503247
0	4480	218027.723182987814	3359.0167746127
0	4492	218800.848248085922	4853.6368807826
0	4505	219286.703093399702	7913.1147566428
0	4510	219347.888796082998	3914.1760187951
0	4558	223554.425639652568	1719.4465916515
0	4567	223905.870661156775	5672.241758193
0	4590	225591.602344159591	2736.7792339316
0	4615	226511.803224067382	4221.9290873982
0	4630	227209.229620937143	4950.0510475276
0	4643	227800.522679668009	3918.0552625367
0	4648	227879.152653595282	3304.0848678283
0	4677	231724.580313164058	4642.5508096786
0	4689	232394.983927638985	6593.5465209063
0	4703	233651.255118979931	2499.3981996308
0	4725	235893.879340178452	6639.7860826437
0	4736	236201.013427562346	10024.683108948
0	4764	238054.049108482851	3386.938168447
0	4801	239240.927851236524	3112.8716367326
0	4815	239925.076909729168	3804.2760673774
0	4821	240146.328795374389	1652.6153800159
0	4826	240232.786642312315	3312.5932504548
0	4831	240357.467508973668	8519.2260221754
0	4886	243738.01137559381	2125.7005755677
0	4891	243770.020103049298	921.17259561301
0	4900	244710.482696042121	1843.1236873545
0	4909	245947.919037020854	7297.6845438222
0	4920	247932.041457782342	6441.0239376621
0	4942	249936.291960971485	11720.293698755
0	4979	251084.609036202923	7992.3338307302
0	4988	251968.578374938929	3077.584059692
0	4997	252007.956259149872	2234.7060731879
0	5016	252527.918835645066	2933.7177020831
0	5021	252541.920121203656	3004.1490409077
0	5061	256769.147646678355	3805.1814892853
0	5076	258184.259924456057	2817.3796734785
0	5085	259256.15409836189	3716.5254935584
0	5123	262248.988708559395	5884.5747337667
0	5132	262450.307197760981	1652.4217166325
0	5140	262542.259309688267	12484.801126292
0	5153	262815.690626723483	10764.8388206
0	5170	263369.619382809186	3969.2889454246
0	5178	263848.00810853077	2599.8660602397
0	5204	265126.324439443281	2087.0934078665
0	5225	266845.908313242631	2337.842377632
0	5255	268100.176973888254	2944.9853759872
0	5275	269086.217714841492	4688.0320264303
0	5307	270085.602631581404	1816.6812842709
0	5323	270694.042056769474	3702.3929793516
0	5342	271448.670076569692	4691.4830644697
0	5351	271825.647893165749	2786.8310139244
0	5378	272546.554965097554	10050.407767813
0	5389	272837.968491067418	5776.6185670876
0	5400	273131.01534301603	2700.5552167606
0	5406	273548.839152589689	2033.8838828575
0	5414	273607.368447736154	3289.7847313412
0	5436	274216.762675631818	4446.7446754976
0	5442	274480.985252283059	5379.4623223248
0	5450	274716.899867713176	2185.1537366026
0	5476	276164.937567185347	2448.5134434762
0	5484	276339.240357386073	4474.5368714855
0	5526	277989.334849397205	1774.0294840653
0	5548	280008.993052633241	5504.5374030521
0	5569	280423.69836747047	3207.8320621613
0	5574	280632.058555589268	4145.0145756778
0	5642	285269.042256819954	7998.0270841769
0	5647	285302.942636554201	5956.9477685675
0	5659	285900.448392107663	7722.170720543
0	5664	285949.681021865419	6489.0113541868
0	5669	286169.840190695168	4812.5996910933
0	5675	286820.270837702782	11587.639460037
0	5683	286896.888252584566	5495.0788894528
0	5752	288642.384104347297	6278.7862457824
0	5760	288739.245392368123	7015.6192201089
0	5818	291371.110732797962	7680.5490865778
0	5840	292164.050582772823	5137.1590479236
0	5849	292394.771004384013	5012.2486756762
0	5854	292734.56088708891	5419.3604842933
0	5859	292857.909354857024	5394.8153932634
0	5868	293230.671224126061	6385.942552685
0	5882	293893.889381713727	6983.7431499985
0	5899	294303.119712383252	4874.7445815906
0	5911	296199.230395000442	8161.373169746
0	5920	296738.944098163642	6760.4010103868
0	5930	297290.527590972182	6060.1100173922
0	5941	297334.644799491302	8646.3287739305
0	5955	298032.478754882145	8274.1162300253
0	5977	298895.134037869048	6992.758877343
0	5987	299008.403651778422	4899.5073745929
0	5996	299289.438388546838	2874.6993342888
0	6004	299326.302997358741	1641.1399098103
0	6012	299586.894333199734	1426.8740770204
0	6024	300094.420596715788	2788.9558922702
0	6053	302064.653492811755	2119.2063251317
0	6075	302894.280807983279	4223.7337258263
0	6080	303191.286803663408	2488.3452946766
0	6131	304914.86302357667	11436.310130331
0	6145	305324.59686990119	2011.5486735934
0	6155	305539.824168868006	2146.8850678191
0	6174	305956.57615152706	3757.2917525527
0	6180	306688.437125843367	1855.5196060044
0	6192	307590.951931163673	2535.3501999003
0	6227	310090.669671377958	6513.4622256397
0	6232	310151.691574240854	4556.169860529
0	6241	310471.295729267244	6808.3711679983
0	6252	311006.789897111373	1768.1811441072
0	6258	311475.334542525133	4538.1688196867
0	6302	312699.042109560005	1073.2367163022
0	6311	313118.255516449811	3550.0848588526
0	6316	313394.670789126932	1753.5646609275
0	6333	314142.638798260355	12550.042372852
0	6373	316045.749689517818	4403.4030182438
0	6384	316426.231664826716	1965.1134425284
0	6392	316660.979988492208	1543.6244319218
0	6408	317000.225423772903	3203.4371941094
0	6425	317900.38995225845	2287.0793040832
0	6478	320982.600756279824	4255.3571561466
0	6483	321161.32515503167	9055.2644329225
0	6488	321195.8794635936	6444.0665607493
0	6493	321365.983335341364	2722.6979152602
0	6505	322070.852568040017	4553.9889002223
0	6543	324383.156795083702	5761.8657805246
0	6548	324734.212228763921	4650.9309990546
0	6553	324765.46801266572	2959.4653199017
0	6577	325978.981750165625	7492.0332476121
0	6591	327253.606803366933	3474.7374055344
0	6596	327346.765535086111	2576.2649596224
0	6623	329224.862143047871	3953.8086846844
0	6631	329853.26829932289	7440.8730449196
0	6640	330449.470245754446	2727.0351010841
0	6710	334575.467045066955	6485.550269821
0	6733	335494.268768493924	4890.4050779448
0	6746	335599.811551885276	5063.6566923458
0	6788	336872.989221567765	3478.8580342519
0	6793	337055.065928607445	4847.1740270727
0	6811	338191.095504371619	5908.4021131804
0	6847	339493.758569453053	7092.5927868819
0	6858	339803.188807667311	5274.9110008652
0	6863	339929.978401192935	4199.1130061006
0	6887	340845.474186931161	5021.8820203612
0	6938	342252.25143803071	7225.8540188987
0	6943	342473.406546558257	4220.7869185035
0	6954	342662.226010595175	5001.9213533344
0	6959	342757.056873074146	4697.273325091
0	6971	343267.271308298159	7272.6008815528
0	6984	343588.702818442435	3015.27155316
0	6990	344039.793914519721	2157.548663157
0	6999	344626.040689762734	4655.0097075204
0	7004	344660.767420668824	4385.1741205528
0	7009	344679.72660842523	2749.7369366506
0	7017	344880.39995659875	2850.5827275322
0	7025	345291.359038904593	6522.2864525344
0	7059	348154.495516244455	4890.3109011122
0	7071	349080.149893151919	2277.5082854214
0	7237	356083.991829093705	20506.946952735
0	7265	357432.055615983974	10356.224922901
0	7329	359222.046554694061	18395.017163011
0	7419	363399.027721624592	14217.048915817
0	7428	363779.233267881724	15609.050558395
0	7433	364055.487230642233	15790.142532836
0	7448	364815.136904202656	14982.502879004
0	7470	365658.390049919182	16196.108161108
0	7479	366048.725666869276	15383.466860668
0	7484	366068.456960418187	13530.160320059
0	7489	366132.34065866868	12314.501501265
0	7494	366148.796801546691	15472.712288816
0	7499	366202.635948170515	12269.597707348
0	7507	366755.111500246458	12323.574451277
0	7524	367045.256631112363	13579.984263351
0	7529	367080.356017067646	11917.525571943
0	7538	368289.221137518244	17068.496485224
0	7543	368382.543893723464	10770.572526207
0	7549	369079.556112893259	12633.153580235
0	7554	369400.093821196124	11820.223766226
0	7560	369662.031005273444	15101.922120781
0	7565	369800.657254684736	12891.788452854
0	7574	370573.673475613008	14620.948267493
0	7588	371854.94555725302	12694.162159632
0	7625	373348.582152327323	14636.806537517
0	7630	373444.526467299692	14035.321658542
0	7639	373731.262297177878	15848.00615033
0	7649	374019.834936128427	13010.751924528
0	7654	374336.211784230936	12971.063863794
0	7660	374656.588475195255	14808.832416844
0	7668	374866.366989292451	14213.499734374
0	7678	374941.600619803704	12148.868855959
0	7683	375243.223744287398	13220.024986657
0	7688	375400.093714700645	10648.72600496
0	7697	375581.665977482244	11293.515428184
0	7717	376477.143038266559	9881.6838484132
0	7722	376502.773322907414	4700.4570388179
0	7727	376553.456229688337	6363.6658467412
0	7732	376606.409513341378	4602.8361231479
0	7737	376769.755812968351	3270.5530051791
0	7742	376908.482615965551	4961.4497213976
0	7781	380168.728220803917	5476.0447796678
0	7786	380297.927491570257	4864.6951345139
0	7803	380919.488278024633	2914.1021609201
0	7833	382301.996366661055	3461.0025962818
0	7873	385659.932616914729	7194.4695644293
0	7941	387836.855744815664	7394.6513111237
0	7946	387872.797503369614	6394.2133582923
0	7951	388191.865858188321	6591.8047027843
0	7957	388300.118320621835	7169.6529014951
0	7962	388799.60032958005	6130.7003237634
0	7974	389545.715088456033	4919.6965069384
0	7980	390051.857666175437	5747.9546868057
0	7991	390543.396378974806	4005.2169043528
0	8027	391501.265637377605	9014.3121117713
0	8032	391635.112821086086	5877.5982397058
0	8037	391662.517723028768	5722.0055081831
0	8043	391874.292563370362	5096.9220998546
0	8048	392129.519456058235	1608.7131514626
0	8067	394482.611157548093	4384.727226193
0	8138	398148.615191801542	1853.8994541849
0	8143	398447.89348655107	2433.6965218214
0	8152	398735.466911936552	2783.7213128569
0	8163	398985.96437238193	2541.6623835898
0	8191	399500.702551971324	8441.4737534587
0	8199	399742.839311880399	2349.7011146673
0	8211	400458.957390007857	2882.3895450957
0	8228	401476.971203249192	3807.4641450835
0	8238	401854.866424134067	3015.0720004689
0	8243	401859.898519536643	8907.2249044291
0	8255	402314.464958828581	3262.8287223995
0	8260	402571.316791587944	2694.0579873287
0	8287	404914.723508425358	3906.8664907775
0	8308	406419.976453048872	2457.3344407417
0	8313	406588.960864089838	3886.4463465573
0	8362	411642.399598843103	5457.734685966
0	8394	412216.140490406586	3154.3484654649
0	8406	412859.314725334421	2450.5663796208
0	8411	412872.177253164477	1455.9681991543
0	8416	412979.825995056543	1322.7571928014
0	8425	413279.808398886141	3194.366441988
0	8446	415107.333232555962	4895.308203036
0	8451	415154.730706775555	3419.3216457706
0	8491	417095.035373297308	2406.3192775875
0	8511	418090.464391833949	1910.0063305623
0	8534	419673.154163836767	3205.5211393028
0	8539	419856.122166080288	4474.5410620102
0	8544	419918.345069225285	2508.132792058
0	8562	420977.586121598097	4197.4162746728
0	8583	423070.219019372453	2755.8433468516
0	8612	424723.950728072028	6713.68772605
0	8626	425157.621528339463	3612.5737814857
0	8631	425482.724138655939	2518.0160398451
0	8647	426902.214686879518	3207.2251390938
0	8689	429410.798060348051	4854.3591679147
0	8695	429507.581562654972	3011.9869674693
0	8700	429631.022070201827	2664.1219814867
0	8714	430148.777473782824	3250.4241720473
0	8762	432329.262370235104	4779.0008703373
0	8770	432650.956172623888	2238.8474024966
0	8776	432953.105967897651	2825.849882677
0	8788	434510.74834910101	3631.4830982255
0	8839	436897.734366345726	7018.0444379356
0	8844	436976.608998379784	5738.4258614945
0	8862	438143.677901096507	3529.9112541873
0	8870	438506.056761622748	3876.6822662185
0	8879	439519.702963433069	3872.3889006568
0	8908	441046.711249220172	6163.8380711569
0	8925	441632.483777789287	7545.7316268065
0	8950	442647.998451068079	1881.6495250003
0	8958	442720.743370071467	1349.1207488127
0	8967	443346.098297845861	6279.1735658773
0	8972	443575.579870745363	3861.1601740923
0	8999	445485.564769832975	3171.8058378912
0	9023	446035.440522926051	5825.0223998073
0	9032	446967.494938765103	1562.3791607808
0	9044	447748.019198416262	2660.0740685957
0	9065	448231.890275671928	2771.5404448716
0	9086	449760.262352679471	4467.1388220448
0	9126	452526.988246668314	4969.2987287535
0	9143	452868.353294535117	1531.3416235008
0	9158	454019.753072961075	6171.4932559045
0	9195	455470.020072973025	5621.8936333961
0	9203	455845.553261089607	6144.9573786383
0	9209	456141.089198267828	7212.5281428825
0	9217	456285.926257171353	5937.6745721797
0	9243	458566.382367597308	4867.7953322397
0	9249	458584.384813554179	4083.6910666361
0	9254	458623.346236788171	6024.2553972618
0	9262	459399.986695502541	3205.7221574262
0	9271	459802.78562095396	5761.9273011997
0	9294	465670.153947215425	9308.1355471615
0	9314	466933.319800150407	2517.3438792298
0	9328	467593.678617957239	1757.9690348946
0	9376	472076.125005303621	1359.1963938945
0	9390	472315.431724166851	1235.3125099491
0	9426	473987.629298941544	7316.4737998596
0	9435	474677.832041757293	3865.5634066241
0	9447	475215.539124247341	2262.3580225378
0	9452	475380.535800028744	2951.3552578724
0	9457	475458.363615813475	3659.6923466811
0	9466	475945.407572166747	5080.4830854096
0	9484	477756.070214383855	4161.4144968744
0	9501	478532.208363875557	2380.6217869063
0	9520	480927.551464674634	3144.4424039428
0	9563	484212.069212221523	4119.0058704243
0	9635	487103.359838109458	5124.0398141896
0	9643	487164.235602095244	5000.900536161
0	9648	487431.509547270734	3187.8746182688
0	9653	487585.900991007633	4548.740492562
0	9658	487712.226961224287	2558.2204706464
0	9664	487770.163235474579	3033.677794512
0	9681	488622.569722068353	3433.9995251666
0	9696	490163.986941167006	5316.1423792223
0	9715	490603.38148535405	8516.2591289112
0	9732	491378.774119572833	3392.9587264084
0	9743	491905.237951181867	1957.944623755
0	9757	492145.978705399793	1286.7757507739
0	9767	493899.821670429307	3932.6167433371
0	9793	496057.11165013145	859.11015740325
0	9802	496374.501415951576	9930.516962794
0	9811	497599.42262458119	5932.7644085866
0	9830	500550.609392758579	5248.1554763072
0	9874	504242.909585371238	4860.0027778849
0	9970	506899.863948078402	5256.8836504109
0	9975	506906.782179407966	3383.4909225059
0	9983	507155.340400652539	3135.2705026839
0	9995	507635.800809091513	3086.4126410972
0	10000	508239.228934538449	5472.5131741863
0	10012	508390.57389814618	4419.1591559757
0	10036	509012.578974917694	4168.01132027
0	10049	510105.853989774834	4856.4661975206
0	10064	510995.033333576356	8515.6295188041
0	10091	512095.961750874482	6956.1717769223
0	10101	512356.214674851573	7361.4143724209
0	10123	514093.646175868868	9300.5870558961
0	10156	515334.220447780746	9649.1596029005
0	10167	515550.992738761692	7227.5051648481
0	10172	515569.756559512059	6915.101193039
0	10177	515746.539172308155	5557.0310050058
0	10186	516354.174208837389	6198.119694567
0	10212	517543.080787865981	3944.7024684789
0	10414	524987.182723964594	11010.846725737
0	10422	525060.684217518667	10879.582925316
0	10430	525128.422320735579	14871.183225298
0	10438	525222.318787335903	13172.754322413
0	10450	525542.861514920936	11177.54859911
0	10475	526807.538889745939	9232.5751738722
0	10498	527921.805447210812	11628.289624582
0	10504	528085.254672261843	10852.591970988
0	10509	528249.476243771794	10002.772960337
0	10514	528276.462612186454	10257.82528437
0	10519	528485.592136984227	9697.794483229
0	10524	528675.811714347691	10524.974620297
0	10530	528884.575917698398	9163.9687433292
0	10535	529557.350760227251	8556.5361098628
0	10540	529616.948581425157	12225.944539147
0	10546	529799.381065988837	7900.8105085007
0	10551	529810.473407365249	7203.0459200263
0	10556	530336.021360474891	9781.2921163399
0	10562	530722.453233481107	8702.2096435054
0	10567	530806.346034165842	7067.2695657409
0	10572	531094.68317583385	7729.5719942491
0	10580	531232.614987069937	9222.2087803853
0	10591	531444.873406934777	9953.4571418589
0	10596	531481.677280031245	6146.5535080767
0	10601	531542.156268419578	7621.5106555377
0	10609	531866.216036022165	6341.160415337
0	10620	532674.925729124032	11195.833983809
0	10628	533034.277625115359	6432.0825266308
0	10670	534672.980874394335	1580.5949598161
0	10685	535066.34859316343	1648.371470646
0	10699	536109.516467419064	4990.9623107939
0	10707	536552.982324185435	4858.1676177204
0	10748	538635.518364939986	4833.013203513
0	10753	538909.28137102805	3877.1460613024
0	10758	538925.252152875135	2444.4850604293
0	10764	539477.55168509297	5962.2133446339
0	10791	542461.364695555183	2912.9915540135
0	10813	544451.493123338468	7241.7632580506
0	10818	544499.796173079483	7634.1469132792
0	10836	546217.095059466446	4554.5995382863
0	10853	547076.443682778899	4201.8438472585
0	10864	547566.785969501352	1789.9612217107
0	10895	549134.678254490364	1737.1494039022
0	10904	550057.162350716588	3483.5887449626
0	10940	552878.284083037858	962.9825722415
0	10965	554389.491754726238	2056.8332768359
0	10973	554511.393344146165	546.08843903653
0	10982	554648.099138843386	6689.5188784946
0	10993	555359.285912956978	4773.4069002266
0	11024	556975.453391438861	1422.3044021432
0	11050	558562.757014989799	789.92013829464
0	11067	560636.582536859789	4645.7967791062
0	11083	560932.196411343758	6830.189096116
0	11104	561242.865135454633	6429.7048430336
0	11113	561692.01768307376	1976.2464154917
0	11129	562289.38461261046	1424.0976546255
0	11141	562789.340285023001	1890.7252322059
0	11218	565889.49491101265	7966.4181322799
0	11223	566113.211639219571	4737.6594325688
0	11231	566315.688729334566	3209.7112236905
0	11241	566527.732304225596	3028.5513374542
0	11250	566712.707166405577	2378.9626028693
0	11266	567132.473019221936	4720.5058872315
0	11274	567344.095402704501	3447.1209425881
0	11279	567361.141961177231	1155.5516694966
0	11288	567453.02704784014	2889.5360872931
0	11301	568277.091918770065	3558.5896834468
0	11310	568729.991445821185	2178.9974356173
0	11338	569330.761651744776	1937.2485316494
0	11358	570123.658622465418	1128.5806336191
0	11376	570426.893079264334	22686.922502993
0	11384	570571.527485298645	469.10949198278
0	11401	571251.845966077424	1071.1278112938
0	11419	573214.277285320941	3892.4528065462
0	11431	573845.776959882204	3203.4687296677
0	11460	575613.977611163086	3242.991571877
0	11465	575824.428340479684	1991.9992232596
0	11470	575946.513567305051	7184.9487497708
0	11505	578019.569760536848	1792.3015744541
0	11513	578313.681565988383	4163.1474910608
0	11543	580812.702942081277	4554.9036634671
0	11557	581253.321152743669	4305.4814732148
0	11598	583734.919502451807	1798.4084122926
0	11611	584132.793876106861	4444.4363395734
0	11619	584263.551478791851	3478.8758975759
0	11624	584429.578935438322	4296.5135905955
0	11633	585269.506255551346	3317.1410114773
0	11723	589931.451148829988	6837.4645791711
0	11731	590146.660518475355	8383.7355778932
0	11805	592673.384806556305	6606.0319326696
0	11810	592738.885652878867	6965.1289590407
0	11815	592930.168252571202	5156.3272930806
0	11824	593346.30035567236	5274.1535471459
0	11829	593363.101365785101	6827.3422579255
0	11834	593727.789412461557	6538.1135289465
0	11842	593935.874946625598	5694.7300475931
0	11864	594677.181299414626	6842.6815340822
0	11869	594794.059595905392	4805.7844168359
0	11878	594880.130727144742	4546.6905774512
0	11883	594998.204871162086	4558.869958744
0	11891	595232.890541308761	4841.6821594967
0	11919	597151.880892330361	3275.4040243841
0	11944	598744.936712307019	3608.3963278404
0	11959	599120.461239422334	3682.954614314
0	11968	599185.745883077283	8787.4936429543
0	11981	599291.535382923545	5082.7205723481
0	11986	599317.75913892023	8331.2083424402
0	12001	600455.517426122946	1783.3984501094
0	12039	601714.466596007915	5331.3993678376
0	12051	602050.968672763594	3627.7393324689
0	12064	602395.860823095022	1541.1390377761
0	12069	602561.45434655925	2280.8185421427
0	12082	603920.601719947925	4785.7687599225
0	12113	605699.276181311909	1004.7464610149
0	12129	607017.523304993937	5928.1284840533
0	12142	607679.90684022789	3910.5535665865
0	12158	609020.565182946248	7273.484709691
0	12210	610608.168040733519	1715.9459035477
0	12218	610682.800898054882	10314.20450318
0	12231	611010.328027022616	6078.0452585271
0	12243	611161.295081437247	1079.2429771861
0	12254	611503.09252001984	4792.1585526694
0	12262	611818.169932502208	1610.6826636341
0	12279	612696.547646943536	4261.9521237384
0	12284	612812.253602923603	3388.6718478036
0	12290	613213.893230311664	2538.0423224368
0	12315	614560.788266773282	2837.2531309766
0	12336	615594.840218230269	2376.2716139993
0	12409	618661.141332033259	3852.7593783823
0	12418	619020.369486416451	11309.318146973
0	12426	619645.044460475861	5730.0318723163
0	12431	619701.820920581718	4220.2748451992
0	12437	619742.447670421136	2199.5572846626
0	12445	620079.310770331791	2408.7104706165
0	12539	623775.971093741429	6394.6513507002
0	12544	623811.852751606191	6687.977151561
0	12555	624003.546507715173	6187.3484324891
0	12578	624883.715953812553	4939.5024556539
0	12586	624942.300184303815	8439.8867767308
0	12599	625295.162578024778	5174.0740452158
0	12613	625945.709697329128	5511.4479836351
0	12618	626148.074980639838	4540.1758862662
0	12626	626250.357566784805	2715.9291519901
0	12641	626800.709872825431	2825.7637518444
0	12661	628294.361216773886	7615.5071923361
0	12672	628704.078762183394	6060.7131128508
0	12677	628816.529282150829	4819.7151029252
0	12685	629146.735052266548	6068.7965389732
0	12702	629444.392293431338	4508.9968661094
0	12707	629667.853419013769	4595.3680669847
0	12716	630177.978083370426	3875.6245534206
0	12726	630495.436082932939	2593.2551604747
0	12760	631845.137417257946	1139.5709241631
0	12776	632176.303254135952	1366.6008116184
0	12788	633281.909458104643	4253.5329868519
0	12803	634454.606780562802	3509.7719570486
0	12827	636042.137472171884	2766.0378520832
0	12853	637735.138104265898	5742.8818123804
0	12874	638297.340849916996	3246.013249041
0	12879	638314.299996734081	738.32651380355
0	12904	638760.2533045216	1003.8306113039
0	12912	638871.180389970088	4284.4963357061
0	12921	639534.798949875907	4447.0187478716
0	12949	640669.911413715205	2287.876115911
0	12954	640708.867307179146	10812.928906279
0	12974	641390.127946288287	2808.735018668
0	12979	641754.095202399158	2004.0038143276
0	12991	642440.617990290982	2352.6622066426
0	13014	643858.79526296081	1496.2715918058
0	13023	644725.557521464049	3585.8844388029
0	13073	646573.257353284102	1189.8491644507
0	13087	647112.520024760127	2310.911277739
0	13101	647573.916777976277	2317.3292733898
0	13106	647650.381517086148	2832.5105188658
0	13118	648296.416018062748	2536.6922031221
0	13203	651571.486342341456	3467.0884407177
0	13208	651644.132595852567	4726.5543973592
0	13216	651691.417885211656	8680.2852814643
0	13224	651885.059242659653	3349.5441614684
0	13229	652134.021796156075	3378.8801377132
0	13234	652164.354577728798	2027.489420817
0	13239	652204.936040377457	1846.2848190532
0	13260	653170.333186071108	2294.4842623799
0	13265	653453.687791607653	4260.913053848
0	13296	656868.716525729524	1141.2348266968
0	13301	656878.790652784964	6000.3663564956
0	13318	657940.703667594414	5648.4674486016
0	13374	661387.443906517123	5587.8332161714
0	13445	664815.698971919698	7310.8930591077
0	13453	665025.800100906798	4706.6402450733
0	13482	666111.560275092103	5608.4933283871
0	13490	666361.052835030185	6535.0990299058
0	13506	666719.654160739035	6331.7567052261
0	13518	667015.797132058621	4845.4909390859
0	13523	667438.895834681824	5773.9571491038
0	13528	667506.771073070158	4009.4671202389
0	13533	667653.596639187425	6485.7215397948
0	13542	668160.164022194773	4659.0189653431
0	13564	669065.158091065905	7824.2947176813
0	13569	669287.865409211234	5820.4549747261
0	13578	669538.937054273163	3799.7305171437
0	13613	670463.475795550645	5573.0094594735
0	13624	670926.798537870888	959.97283914393
0	13649	671848.155108235524	3866.2659730388
0	13654	671939.09033177516	5810.4868930452
0	13663	672025.439572668497	1882.5428991109
0	13680	673139.897221170825	4639.826121237
0	13688	673580.474579210019	2536.7491724399
0	13703	674363.400406857747	4124.3912742266
0	13717	675259.622031410089	5825.7344876214
0	13723	675812.110585738222	5096.1602309342
0	13757	677527.607931451274	1634.9415542806
0	13765	677678.221806822083	927.06428558361
0	13791	679314.243757354549	2529.7027495136
0	13800	679758.21391336832	7262.8762660363
0	13829	681219.852670475055	6933.9965514702
0	13851	681656.090838797547	3921.5917487758
0	13864	681819.401946425267	2949.5439279686
0	13880	682144.999568941845	1430.2813223127
0	13894	682866.989003555075	1751.2881547702
0	13902	683026.183713880056	2822.4373038376
0	13908	683249.272588611328	1485.2666062788
0	13934	685375.753878374493	3281.0726289025
0	13959	685908.837942095999	1254.9569593717
0	13967	686559.479806638404	1770.9186157925
0	13994	688436.180217500406	3056.6434970428
0	14002	688490.737875085217	6883.5324918574
0	14050	690391.617022734687	4960.339000757
0	14064	690753.925890104342	2923.0210411377
0	14094	691475.773377684621	2837.4634951676
0	14105	691760.008730204313	2852.7495646542
0	14110	691793.191116717697	3039.7297247991
0	14118	692220.798576279631	2912.2810893774
0	14127	693005.90473268999	1854.9383302162
0	14136	694269.725000701006	7598.9972486913
0	14164	696934.220825492434	6265.8559363633
0	14186	697461.329918284217	1619.4830661157
0	14203	698312.614772453057	6837.6762026956
0	14244	700411.815065819755	4186.708210957
0	14273	701140.273876910538	4193.2690588606
0	14278	701154.653470228214	2919.039365226
0	14284	701225.043930594756	3951.9953217366
0	14289	701637.277964808502	3194.2534394893
0	14306	702358.378793639366	2478.6474980602
0	14315	703054.755131068206	2328.044527512
0	14332	703893.399423586899	4819.3016691325
0	14348	704553.579029673979	2819.3708546191
0	14365	705376.685532728248	1953.0513261281
0	14377	705998.028300834984	15307.986695852
0	14383	706341.998771242244	2069.7328471834
0	14391	706518.000035850233	5842.9988537012
0	14408	707493.42541592924	2694.8789678621
0	14490	712562.468842731808	5728.9289565979
0	14500	712694.555958494494	2933.9179814529
0	14505	712765.31213742246	3597.9534210492
0	14510	712839.202387270284	919.01902304242
0	14530	713322.677454465925	2821.0536836985
0	14543	713567.29128254123	3253.7642135096
0	14551	714002.404851934755	1914.8389285072
0	14571	714719.184219288942	1431.1743439662
0	14585	715385.954172558378	4653.3259337387
0	14594	715777.99276236502	3476.7015125674
0	14611	717056.813213376008	2767.7736597296
0	14636	718155.681394488532	2136.036621261
0	14645	719141.548232384071	4422.5647094229
0	14654	719695.535213199786	2406.4442824195
0	14674	720840.856736218143	7940.0798599357
0	14700	722022.290121504219	1741.8431059235
0	14705	722192.693942858016	2397.6656691373
0	14728	723114.549597598964	2129.5707562741
0	14738	723267.809358612257	5803.5684208923
0	14767	727394.563272179035	4454.5416889885
0	14784	728131.473741275938	1465.9366051663
0	14793	729204.751742868803	2928.6329335723
0	14836	733452.275736475345	11131.547089328
0	14850	733781.215012301261	3220.178075733
0	14870	734697.880080429968	2031.5481288841
0	14895	735941.679940179486	5996.4325694705
0	14900	736286.897605461682	8808.4179650592
0	14906	736406.446955388577	2731.4830613756
0	14940	739979.04327454343	3143.1504910836
0	14962	740619.413828943274	7196.20543155
0	14970	741028.97376110043	6282.3100086168
0	14996	742517.391778588944	2380.5688560725
0	15001	742536.129123138736	7944.638045141
0	15043	744422.915815092538	3478.983559226
0	15057	744772.318682770604	3600.6419128387
0	15065	744779.652209741787	1664.1862590736
0	15080	745579.945869938025	7259.1959020619
0	15091	745923.258735349346	2455.3297968828
0	15096	745927.495878391999	6297.4520479643
0	15107	746506.382905012182	3416.9095057772
0	15126	746889.851409804851	3029.1836882241
0	15151	747826.948100762756	2316.0556358674
0	15170	748094.538962711113	983.66863727316
0	15203	748913.798800620561	876.51157702433
0	15208	748939.258857716628	2910.2331298233
0	15217	749505.548563350461	1652.237918264
0	15236	749957.155811479555	3018.8948447785
0	15242	750190.836176185431	4182.8963311604
0	15250	750734.768644175114	2626.0466486773
0	15265	751196.139383211957	2676.2331394705
0	15319	754482.884706694935	3335.0506637467
0	15337	755746.920194718045	4569.7116887697
0	15354	756686.735588988773	4440.7005187547
0	15376	757484.435312012658	5771.5320664325
0	15391	757856.901365029298	8181.0606325866
0	15401	758180.18155013758	2932.787142136
0	15410	758833.3926266958	5395.8023951419
0	15415	759006.831132619117	2343.7165039027
0	15421	759704.237724329029	2889.1033894037
0	15441	760758.592276140926	8344.4567413122
0	15455	761634.040919310434	1838.2832992833
0	15487	763708.012307710509	1745.9113405582
0	15501	764168.828061778123	3463.7520335834
0	15540	767731.937045437069	5417.0297602182
0	15545	767872.445034788667	4397.9272648779
0	15551	768270.685508168505	4156.4495437279
0	15559	768595.341123057018	10811.26556469
0	15569	769813.49019708163	4006.4132835838
0	15623	774195.847340655914	2612.1833208906
0	15638	774609.305673850624	2583.0117360597
0	15660	775751.428497553674	9478.034496517
0	15717	778940.196460129736	6352.8953228192
0	15754	780225.02693040736	8097.0228834856
0	15772	780633.011543174993	7006.7643405625
0	15793	780860.632608583436	5545.8140768697
0	15818	782056.168662767407	6609.1567917913
0	15836	782510.608115632037	6004.2806443023
0	15845	783076.847520525252	4876.8785869004
0	15857	783511.017809687807	3417.816792537
0	15872	783888.124994123626	9835.013337129
0	15877	783956.282255451384	3332.0245564774
0	15886	784372.952082445518	8858.0495477041
0	15899	784585.451802918241	8143.2911426697
0	15907	784661.527561826258	4874.3328861055
0	15912	784665.482269731469	4012.7946064335
0	15917	784819.166558009587	1445.0548408429
0	15929	785911.664289179304	7363.0178756288
0	15934	785968.747006993212	6771.0921501578
0	15947	786996.095486026447	5916.6387279602
0	15996	788292.536580244142	5196.9040109269
0	16001	788318.13130323635	1041.0764391307
0	16006	788345.265712713646	4011.9602571638
0	16024	789467.905744985895	1960.9493822892
0	16032	789893.430104686854	8464.670833541
0	16041	790445.025157855597	3771.0908084228
0	16050	791287.606402894046	4175.9790796701
0	16088	794007.663776370014	4950.9232800029
0	16096	794539.223629394819	1855.7327114207
0	16118	794756.835888811347	1379.5670663641
0	16135	796023.958086278357	1593.6608260348
0	16160	796483.067548423875	3212.5114532748
0	16171	797000.801597910184	2348.7832798152
0	16222	798979.712381935385	2858.3213669108
0	16235	799162.991996809673	2345.1681705808
0	16246	799217.033285062879	928.71100844266
0	16266	800036.66145547255	1568.5614253702
0	16310	801319.647048184612	5836.4943683622
0	16321	801857.903222102463	3982.369933013
0	16336	802513.796607866908	2718.2304217087
0	16346	802550.876015130828	1748.1979079246
0	16360	803048.84713156527	4761.29551519
0	16371	803373.200996590165	4172.8259611685
0	16386	804260.123746597233	4325.3859445519
0	16399	804525.917740603796	4376.9592359932
0	16404	804857.718764116741	17306.777978971
0	16419	805466.912424146934	2844.5792026522
0	16429	805474.806126923743	3190.4776539469
0	16438	805900.672812017137	4694.7644685206
0	16451	806324.479676973534	2405.7044796035
0	16463	806596.571937613798	1416.8576709487
0	16479	807386.93009798299	8462.4899773708
0	16485	807736.26159085957	11461.192302456
0	16514	810014.835461599891	838.11206433092
0	16520	810205.768769948802	4320.5263688439
0	16528	810652.486605260383	4155.3445151776
0	16562	812535.546199138791	1073.9690005965
0	16574	813216.335392560318	3953.5004922121
0	16591	814285.166983555458	3326.9859581727
0	16596	814299.202996968645	2374.9195154769
0	16623	816302.528386398065	3174.4349626132
0	16644	817883.885312551963	3559.8688676226
0	16656	818720.619560594292	3598.2811225415
0	16686	819546.801822291571	1312.2233200185
0	16691	819863.604548121984	2903.1228369831
0	16699	820294.583728139941	2162.052021645
0	16734	822690.610955695242	1625.1036872019
0	16751	822984.916260568176	1654.329121341
0	16804	825226.065466864624	4002.2127366463
0	16812	825355.757574964527	6030.5305701147
0	16817	825413.00625911228	1497.7243187267
0	16836	826915.251220607746	4144.0015550807
0	16841	826980.882152734097	2876.3221051256
0	16847	827633.402540780007	4129.1059437005
0	16852	827777.803638683592	4316.0298198523
0	16907	831012.049388232302	962.58511367524
0	16912	831074.048054703062	6898.9448523569
0	16938	832779.859628652074	3770.791138963
0	16946	832947.128294519773	1696.1910171436
0	16994	836266.370398006246	1354.1153918936
0	17019	837371.822993142139	7036.8385197023
0	17025	837570.379499363964	8360.8089083854
0	17033	837719.852451823889	2506.734273599
0	17071	838595.203594617802	6599.9340146086
0	17076	838676.8233008787	8202.9380706621
0	17084	838763.939744919226	2884.8013325245
0	17092	838847.883389388885	2369.518599929
0	17110	839436.975270260488	1444.7231961847
0	17125	839553.757642981244	1733.2195409478
0	17130	839628.030761128228	1909.5794207188
0	17145	840718.066353306945	2560.7879151502
0	17155	840841.542086679163	5625.0989201948
0	17164	840932.774418103972	1927.7779972784
0	17180	841547.732533759889	2535.8922587563
0	17198	842697.347319467064	1339.1859671517
0	17208	844880.467863335713	4500.7942425753
0	17231	848061.66501409383	6324.0877618478
0	17253	848740.522204838715	748.18800449727
0	17279	850574.569297043947	3745.3291479216
0	17290	850874.790948018628	1912.6594822666
0	17324	852503.870043424263	3362.8777146891
0	17332	852657.671233488475	4526.5152300742
0	17352	853632.150352857135	2891.8223591457
0	17358	854541.560006518611	3298.1918351547
0	17367	854855.563144452283	3313.7054548358
0	17393	856925.399221265897	2263.6895461176
0	17407	857259.545151694031	1074.3538500794
0	17425	859199.68503907244	6674.7419562317
0	17444	861418.352499465317	4538.1926079887
0	17501	864777.741787022758	7179.799341091
0	17516	865449.682900228262	5127.0961453471
0	17535	866475.607074985331	6209.7406554149
0	17549	866749.766874265494	4244.5579580182
0	17566	867305.04022358893	6036.4724858611
0	17617	869456.274963208682	4634.3183005289
0	17625	869570.129685950938	5999.7556769048
0	17630	869618.097471578203	3556.1428389973
0	17635	869683.617241567901	7117.6903161062
0	17640	869800.775609153285	4406.4154890881
0	17646	870295.303954905895	3498.3151719742
0	17675	871634.052586465915	3847.3307890057
0	17714	872981.470600610078	6060.772932137
0	17725	873145.408059558079	5651.3774438694
0	17885	879509.669299766425	8190.9231232208
0	17890	879520.159821620931	8808.4414995735
0	17895	879650.258697997604	8455.4677603008
0	17903	879679.319281646236	8056.8619296038
0	17913	879892.898008625919	7612.4574753658
0	17918	879909.562756305302	11340.510727383
0	17946	881490.605456870902	8123.8661536855
0	17980	882890.596937246666	9770.1250080722
0	17985	882950.60183837956	9503.1858358973
0	17990	883012.296575789233	9969.4452301031
0	17995	883299.837585432617	9754.3698337009
0	18001	883933.629470053867	10267.674177978
0	18009	884019.619342989018	7658.2320851232
0	18014	884029.359568660042	8540.9507542108
0	18019	884485.693728014905	10696.985529329
0	18025	885092.007308905044	6361.0229411995
0	18030	885135.401535902808	6615.0975780081
0	18038	885212.143121689047	7252.6974763683
0	18048	885399.608741159528	11461.086710526
0	18063	885723.57728239053	4859.129923632
0	18082	886557.707811737147	6399.7104845445
0	18087	886783.18796073215	11245.572022104
0	18096	887409.42878124466	5927.3209915223
0	18101	887542.785326678777	7871.5651723558
0	18113	888644.293965117412	14653.056611112
0	18124	889182.215103633139	3755.5864502694
0	18143	891552.179503664372	6065.8981543732
0	18152	892369.097747726037	4568.7053394723
0	18177	893563.926555960395	4035.1928292039
0	18187	895175.235576926823	10004.508124084
0	18203	896606.654353053357	4202.414368324
0	18257	899820.942801149427	1078.31526632
0	18262	899869.560628184983	3301.4668027153
0	18274	900108.299459543231	7566.8705256249
0	18302	902001.399574367919	5484.9610378604
0	18307	902106.949200324067	4076.1399889306
0	18336	903282.656736156934	4491.8970671085
0	18359	904468.93758790196	4455.0971272202
0	18364	904633.102691757322	4587.5901561725
0	18372	905028.111894555299	2910.8402991961
0	18394	906016.311390054633	5770.5160738631
0	18400	906145.800983440765	3669.8142084469
0	18416	906694.585140295144	1797.8223495086
0	18425	907714.111948778023	4886.3657940386
0	18444	910010.040568917521	4954.8817469597
0	18475	912926.028884243325	6642.3591332448
0	18536	915231.953843459808	2317.5266471602
0	18541	915320.719522155537	7058.2944018506
0	18549	915360.138683694877	2188.2371735397
0	18571	916066.228705275883	2137.7875722226
0	18579	916181.090019224156	1533.7909070581
0	18588	916569.31137564417	4148.4257895562
0	18599	916876.453805712191	1533.1379263468
0	18620	918374.50277486736	4489.394470136
0	18628	918793.361082200932	4778.9227365439
0	18650	919478.874898054008	4017.986228345
0	18655	919494.231049268125	7250.6313969494
0	18664	919858.358155184648	3155.2022815539
0	18688	921536.051760226111	2978.2380790146
0	18710	922373.750209602671	1034.0030098526
0	18723	922820.085885760546	3905.4932183828
0	18732	923332.147151877835	2728.023809302
0	18753	924944.806589110183	3582.5647758667
0	18766	925562.189789279391	3475.2592542984
0	18825	927440.939522077769	2552.154407877
0	18841	927841.100917077822	1996.8841855823
0	18858	928772.612705917662	1554.8226223526
0	18870	929335.545240599805	2737.571622245
0	18929	931686.998830949205	5577.482601525
0	18934	931731.079899138769	3386.2848249493
0	18943	932088.060182639979	6030.9702696073
0	18948	932158.288342521501	7981.144256751
0	18957	932777.85036668955	3101.7550318901
0	18962	933392.163256566724	5974.7227353725
0	18968	933470.189705393271	3922.1389376032
0	18976	933755.879566661583	4019.3558608668
0	18985	934515.343716128277	5479.8449315773
0	18993	934833.673940306442	9022.6413664736
0	19031	937500.163632554014	7513.4454858907
0	19070	938856.173289364193	1166.6055472498
0	19078	939161.258004009888	2739.8015859832
0	19105	941094.194596618176	3619.707435665
0	19325	952453.442770339785	16000.294182655
0	19372	954842.052791903162	15273.492585983
0	19377	954860.402154184486	16165.294275474
0	19386	955014.216709796511	14505.447204982
0	19391	955080.96829243327	14630.730467993
0	19397	955958.831073214012	19132.93225253
0	19408	956236.813465188704	14859.48642065
0	19419	957165.567413662682	19623.708160714
0	19437	957850.244430297189	16140.729328423
0	19459	958326.979866617383	15412.710513197
0	19467	958447.414950286931	16265.071584987
0	19475	959156.904234413146	17912.350705097
0	19486	959297.100822170844	15448.913748628
0	19497	959375.543512439883	15371.111270874
0	19510	959873.307879919822	15697.984696556
0	19516	960028.461376317992	17779.504980898
0	19521	960054.093981758976	15664.361889746
0	19529	960184.483262026028	15085.712650813
0	19534	960448.096782465216	13347.159635414
0	19539	960564.891551114321	16309.365376302
0	19544	960727.892614745264	15889.625602203
0	19550	961046.202685405762	10883.002163312
0	19555	961072.461008604528	7594.7063869812
0	19566	961235.038543927284	8920.8648787195
0	19592	963338.059186749804	13345.166063414
0	19631	964530.318053521469	11433.638353949
0	19647	964722.964002392502	10708.904270307
0	19662	966218.61871284727	10131.483958953
0	19667	966338.702468910616	14661.245039184
0	19682	967304.369901262887	9603.3143587894
0	19696	967936.70773372232	10337.430415588
0	19701	968168.517100657102	9185.3702309653
0	19710	968881.570598370734	6458.5109882545
0	19739	970451.141954228779	9337.4765890241
0	19744	970642.021770348941	8100.7679161523
0	19749	971110.424721797053	7604.6723483711
0	19761	971693.063984677494	7394.4828716849
0	19771	971813.660144852524	12455.805078396
0	19776	971853.715444120243	9817.2528805243
0	19785	972222.454247138016	7558.2845752308
0	19790	972562.539892322788	5298.3678167314
0	19795	972689.993802907223	11582.045351401
0	19804	972969.061480425719	4588.9007817647
0	19814	973001.722803895315	4002.2775550552
0	19860	975736.15302914051	2913.8786213929
0	19868	976116.930600882974	3107.8855100917
0	19885	976550.005851597178	1582.0429504366
0	19901	976881.682570095002	3797.6479166101
0	19910	977367.285416629075	3314.3678012324
0	19915	977575.279866152493	6140.8670320242
0	19924	978131.531194576156	2093.4309071981
0	19941	979381.383572632824	2929.7709303746
0	19967	980765.092835416329	2283.8979483862
0	19975	981073.14504964787	1318.0515496457
0	20026	985410.984505697288	3496.5068701368
0	20031	985416.457232980301	5293.2251292528
0	20042	985686.784195381799	3527.1378686626
0	20056	986192.396749668178	2289.4329382382
0	20078	986815.880680126442	1192.8182458044
0	20089	987177.343744539612	3185.0726714054
0	20176	990945.506278730772	4446.8252445541
0	20194	991503.821555349933	4343.306537544
0	20202	991679.125368276368	5935.6260186714
0	20211	991969.601614422339	3467.8042683785
0	20216	992457.340634390474	4378.7490734551
0	20221	992529.2338821539	4706.3332165749
0	20226	992553.457464617401	5159.3542303725
0	20231	992555.949454953393	2471.261800699
0	20240	992752.651449693806	4173.860472781
0	20278	993912.809137437042	622.4283886473
0	20290	994907.564585344416	1752.1750976436
0	20308	995907.630681996522	3257.2483778984
0	20384	998764.510191741155	5323.0122948512
0	20389	998838.421650413816	9666.9273454356
0	20397	999110.923683065794	8785.3823023894
0	20402	999160.749869715437	3763.4072358734
0	20414	999650.390136601802	3787.7358566567
0	20424	999978.828611562323	2394.0115771521
0	20432	1000115.057038877144	4847.6972493642
0	20437	1000208.933184944028	4031.3964902989
0	20457	1002948.908173494404	5696.5858180189
0	20480	1005662.803154957086	6244.2012025482
0	20495	1005891.330959226005	10550.344040404
0	20500	1005977.746764876531	8366.4777945475
0	20528	1007123.078253404767	2873.910845506
0	20533	1007136.69865299208	1793.9963370497
0	20545	1008017.73230978645	1715.3482848127
0	20554	1008531.803530067946	7544.9385935879
0	20580	1010580.487808959081	4156.0503244773
0	20603	1012231.149440389706	1811.996149456
0	20620	1012716.717618942178	1827.2152412702
0	20638	1014092.996380119821	5699.7822619347
0	20646	1014391.364024991943	5209.9585433795
0	20699	1016356.31162161375	2643.3551514029
0	20714	1016599.426460768236	1965.9313625768
0	20736	1017754.468454414906	2767.7177957393
0	20761	1018306.772896401512	2575.3565403364
0	20774	1018478.212599408293	6181.9157522872
0	20782	1018513.249618260738	3394.5950251476
0	20790	1019054.496622688636	2464.4528812924
0	20796	1019363.318912034066	1773.5032110324
0	20813	1020209.568253007968	2003.1663956076
0	20824	1020848.80836903177	5624.7717427401
0	20830	1020996.995252438296	4581.1279851194
0	20859	1025171.115576167494	1748.5589038538
0	20907	1027242.651569446542	1957.8771016719
0	20917	1027565.411549070934	4005.7674641597
0	20927	1029240.801319354582	9864.2788776156
0	20936	1029596.160585801736	3986.9643702859
0	20944	1029658.531558494902	3002.6075544864
0	20952	1029766.242600946277	12525.666830465
0	20984	1031495.723240732634	4572.7622868767
0	20998	1032520.849916125921	2553.0854596125
0	21024	1033952.749800799527	1740.2126628795
0	21029	1034027.418451503042	3021.969282655
0	21040	1034442.348554241351	4117.8968576385
0	21046	1035284.148929408959	9582.1617297994
1	2292	100876.514876421235	821.45409929524
1	2321	101461.557271022041	46.645719437812
1	2356	103811.867144967603	911.07302426738
1	2364	104062.193212111444	709.90630543215
1	2383	105378.885709031502	148.68426966329
1	2392	105835.509388580241	414.32084234932
1	2422	106328.330619047865	1.374348806489
1	2441	107803.522642735641	0
1	2466	110071.715387854045	292.57127512397
1	2480	110728.237505871038	537.33958820498
1	2493	111064.705752548478	0
1	2519	111814.669014558016	315.51547714513
1	2525	112398.296048880486	867.1871871933
1	2560	113823.674999676558	0
1	2569	114313.254081119659	318.64049057827
1	2577	114490.832981902551	0
1	2595	116569.889934738329	0
1	2620	117192.72759678126	0
1	2629	117434.667048985009	0
1	2644	118310.111411794126	723.93927621878
1	2649	118329.412787040908	390.43379966956
1	2680	119344.978453040163	112.22980698618
1	2706	119636.895560264319	75.648278320419
1	2731	120382.799348457082	483.35914383671
1	2746	121950.409961630148	0
1	2754	122528.24268347166	219.26321495489
1	2765	124945.769785331692	0
1	2782	125997.774306184849	0
1	2829	131412.521064840325	0
1	2839	133079.173670206663	0
1	2851	133918.259501392176	418.16331122043
1	2856	134025.370022629137	518.13395468219
1	2865	134713.442582859409	0
1	2881	135235.308929676094	0
1	2916	137565.478770143788	0
1	2933	138622.47033335433	0
1	2942	138904.958098305169	190.9718905977
1	2950	139254.243254904416	0
1	2967	139819.770016060449	0
1	2983	140373.001714355137	3.848325601123
1	2992	140667.912863856735	0
1	3006	141120.051189554234	360.21326744582
1	3011	141317.327794790797	417.37772760921
1	3037	142099.582611524899	176.37754513061
1	3060	142694.275937348678	182.81111013076
1	3072	143638.352585173386	979.69020685982
1	3080	143801.880517909613	509.81812515119
1	3092	144025.297506603398	637.37875792201
1	3116	145344.584102948619	1600.8857187989
1	3121	145492.930831445898	1682.4820131013
1	3126	145531.696529662746	589.49737692579
1	3135	146013.379533962799	1062.2813969067
1	3146	146418.984459410512	1328.7550198364
1	3171	147015.180724330606	60.954056016219
1	3184	147422.970504843153	161.58767008296
1	3198	148189.334438915468	292.63064903397
1	3218	148988.483226352808	101.94712826197
1	3232	149632.911049834037	255.85871227758
1	3267	150100.228581906517	21.212808201471
1	3279	150976.271672916917	604.60042702494
1	3310	152917.004901972061	28.03821412623
1	3331	153147.122718300348	5.166002781115
1	3372	156456.294709305529	277.85759754074
1	3407	158268.34891312809	220.80142834905
1	3420	159686.066579093057	773.10186473308
1	3425	159947.014679234684	447.52812829976
1	3437	160365.591591897071	72.089802020433
1	3472	161530.716190634267	0
1	3481	162086.592380168783	0
1	3515	164008.51375880934	75.783144526404
1	3524	164825.03865357506	0
1	3535	165127.114183787726	275.46212105391
1	3544	165661.545252453077	607.99053383233
1	3592	168841.059975542161	0
1	3602	169820.776830512082	83.63772947002
1	3627	171327.541688046274	0
1	3636	171887.094004453425	77.012017674195
1	3648	173082.593040140105	452.29480436102
1	3660	173838.365630637456	1031.7805506354
1	3665	173964.365742265593	128.98884077531
1	3716	176317.425243665091	669.21015454987
1	3725	176671.694284775829	733.36285282749
1	3730	176749.039469215564	242.79256542796
1	3742	177494.725664981577	79.016416636232
1	3754	178350.79471124235	824.47457277321
1	3770	178864.897411986286	224.81622931691
1	3784	179423.389448229797	418.01325689114
1	3815	180945.044203993263	102.82481016907
1	3823	181295.497621051553	0
1	3840	182509.36976365563	0
1	3874	183884.160824388437	0
1	3893	186096.668052388766	0
1	3910	187145.25267065395	0
1	3926	187669.313089538855	0
1	3944	188906.854039502775	94.267859676936
1	3961	189773.362221862384	0
1	3987	191581.613950147597	0
1	3996	192230.114696035686	519.35681442668
1	4013	192966.791948033861	0
1	4029	193566.23455741696	224.52743258207
1	4042	194623.682448531525	108.85666984998
1	4050	195342.620547692357	365.90924901702
1	4071	196551.66916513445	255.51039627875
1	4091	197762.223888204493	724.01388362273
1	4100	198267.874214604462	384.35564172254
1	4108	198709.541502263278	319.48178856184
1	4133	199489.213257998603	61.671207033753
1	4150	200475.999757074116	22.809887100461
1	4173	201038.551241128826	431.94454604505
1	4185	201756.646593996569	1021.7708431753
1	4197	202479.565424071642	1398.4377154225
1	4205	202629.110035797075	1052.231386298
1	4210	202644.959806355206	708.93929749738
1	4269	207252.499471501599	0
1	4285	208337.02021273221	701.81708429971
1	4290	208889.703820889276	1118.2285849902
1	4299	209326.644155660131	348.62504014464
1	4322	211083.466660969283	0
1	4349	211568.165122135099	194.57678537823
1	4381	213810.004692452257	0
1	4395	214128.929369762533	181.71800245918
1	4401	214435.965471972307	448.01643163052
1	4416	215147.223014643246	1053.4854875041
1	4421	215360.723984236962	902.41571875834
1	4433	216195.914433103561	1527.2080247284
1	4438	216358.320741621816	924.60796433388
1	4494	218800.848248085922	567.21934512214
1	4518	221834.979048001087	0
1	4527	222259.178573409582	0
1	4535	222323.058566702919	33.184430033762
1	4550	222909.631088675129	54.807978447184
1	4569	223905.870661156775	23.403244025441
1	4577	224575.067785766947	0
1	4595	225801.437406732676	0
1	4603	226176.330318614227	0
1	4632	227209.229620937143	127.20011745173
1	4655	229254.093257534761	0
1	4665	231151.856919349167	0
1	4691	232394.983927638985	556.74244084072
1	4709	234667.110940035838	0
1	4738	236201.013427562346	80.212585210566
1	4744	236701.251683633526	573.19546912963
1	4756	237498.716041995447	578.52265013793
1	4769	238215.9982622161	0
1	4778	238493.713415358469	0
1	4789	239010.434733655402	360.20024045679
1	4837	241491.017520120193	0
1	4845	241612.310800026122	0
1	4855	242848.847507436291	0
1	4863	242906.90003910274	39.54103041511
1	4871	243092.275205472712	0
1	4944	249936.291960971485	1045.2976457245
1	4952	250211.173186380336	673.40210608438
1	4958	250301.091299140018	706.89016557807
1	4963	250309.852448673808	536.60226271186
1	4968	250610.840667900632	553.38248450462
1	5002	252050.851806123382	0
1	5027	252963.966157393071	0
1	5037	255366.880250977605	0
1	5046	255721.824585255357	182.19598045183
1	5063	256769.147646678355	404.73367188563
1	5090	259400.330437384585	0
1	5100	260797.885481128446	0
1	5109	261528.929687656451	280.78763936535
1	5142	262542.259309688267	46.112112403911
1	5158	263039.231031576774	0
1	5184	264398.185688411212	0
1	5192	264651.802476937013	143.73654132638
1	5209	265155.191597901045	0
1	5227	266845.908313242631	88.72130114259
1	5238	267151.449822937438	159.8007455196
1	5244	267505.939553889397	444.58962990956
1	5260	268268.921347310485	0
1	5277	269086.217714841492	47.400835600117
1	5286	269250.279184937283	148.75625497907
1	5309	270085.602631581404	315.58463144714
1	5325	270694.042056769474	376.45834037453
1	5331	271067.375616852502	636.91549059703
1	5353	271825.647893165749	310.69262343353
1	5367	272358.276106062279	493.57262016171
1	5380	272546.554965097554	14.808833986954
1	5419	273716.424123709177	0
1	5452	274716.899867713176	212.44421813205
1	5461	275232.631377665713	0
1	5486	276339.240357386073	123.93499205419
1	5495	276935.232065367984	448.18808545652
1	5503	277215.866305309199	0
1	5517	277480.646775740739	209.63160309772
1	5550	280008.993052633241	1830.7153810685
1	5555	280224.760267716522	878.76539972984
1	5561	280298.264729717382	837.59506203876
1	5580	281357.240499601845	0
1	5591	281678.851229945836	277.04186681409
1	5606	282730.360119344291	1006.7339470851
1	5612	283037.449735977024	673.85187741212
1	5627	284229.127396863391	538.56575064326
1	5685	286896.888252584566	52.15958114348
1	5706	287449.193023352646	539.04679163746
1	5714	287705.049982706963	678.1584478577
1	5719	287987.519988807642	672.31958601199
1	5725	288009.953018801945	627.43069009412
1	5739	288074.271856466632	611.17789487305
1	5744	288357.371994762474	319.51476950807
1	5762	288739.245392368123	50.929366807343
1	5793	290399.585636952611	971.21050616001
1	5798	290463.120630958086	704.75810610125
1	5803	290574.746650459439	596.20356268259
1	5820	291371.110732797962	140.69315921796
1	5832	291932.948138422597	30.572977896589
1	5884	293893.889381713727	415.3364884684
1	5901	294303.119712383252	194.22343519775
1	5922	296738.944098163642	324.20504390555
1	5943	297334.644799491302	29.180095045672
1	5957	298032.478754882145	347.31566733374
1	5966	298541.270902272429	381.25064609314
1	5979	298895.134037869048	224.58695571211
1	6026	300094.420596715788	148.97342903571
1	6035	301035.336520593511	332.39501160665
1	6055	302064.653492811755	472.05706740336
1	6063	302318.06315090948	118.7787519351
1	6085	303313.048196307829	0
1	6093	303417.096213214769	24.157112165907
1	6105	303729.888246450931	152.68080071271
1	6116	304215.445013387523	552.5204521186
1	6133	304914.86302357667	81.945503737723
1	6147	305324.59686990119	268.99513863786
1	6160	305595.52171371184	0
1	6194	307590.951931163673	653.78620832528
1	6204	309238.608753004179	0
1	6216	309896.534007705949	328.3633501087
1	6263	311625.805393257841	0
1	6274	311851.53430795248	210.42817975306
1	6279	311955.030836473323	312.68416519927
1	6288	312106.060722109141	0
1	6322	313796.788229663515	0
1	6338	314461.118222298361	0
1	6347	314751.812902844275	0
1	6355	315117.355556570377	0
1	6375	316045.749689517818	432.43904134256
1	6397	316727.243600133181	0
1	6414	317516.863667817696	0
1	6431	318486.948502553493	0
1	6449	319229.035306231326	607.74429167227
1	6454	319469.631365870414	826.34594578923
1	6463	320371.549078321991	288.26784861266
1	6507	322070.852568040017	264.84987527604
1	6520	323224.753444628502	812.35819022518
1	6531	323885.208237558425	106.33883972588
1	6558	324770.500575463733	0
1	6579	325978.981750165625	707.92829180212
1	6602	327722.435144670349	0
1	6610	328089.91677524599	0
1	6645	330536.154859539432	0
1	6665	332876.586014277637	2272.7223237285
1	6670	332913.15630410711	705.26440257238
1	6678	333187.178676643437	904.48528545222
1	6690	333473.915436610941	1072.7496540398
1	6695	333695.895512112988	301.76432479714
1	6712	334575.467045066955	47.189238264888
1	6735	335494.268768493924	467.87134936194
1	6748	335599.811551885276	22.766675526127
1	6756	335777.518650280025	46.653255187718
1	6771	336171.741411351877	348.14924478187
1	6776	336283.908246264909	289.23781951951
1	6813	338191.095504371619	530.7908471108
1	6828	338910.38183916511	850.59829118197
1	6833	339352.657605528183	1100.0379774734
1	6838	339367.213760588441	598.14117421828
1	6889	340845.474186931161	874.44320468887
1	6894	340864.814115612617	589.22081549657
1	6900	341500.297285971295	926.86602068882
1	6905	341712.40100710555	885.37161542289
1	6916	341964.959255479113	82.714004116429
1	6925	342171.316330751915	241.32665897727
1	6930	342217.956492735016	188.13926366849
1	6973	343267.271308298159	3.086693165893
1	7032	346802.641607730543	0
1	7040	347075.830693082587	0
1	7073	349080.149893151919	909.96718366472
1	7084	349636.035875406593	1370.6911776003
1	7096	350491.237983129331	1309.2591773214
1	7108	350945.340133652884	1483.0582448416
1	7113	351133.904018355557	1301.2699931566
1	7139	353536.539101247348	2871.2802950461
1	7147	353567.927466692164	2891.8429539618
1	7158	353889.655632901659	2668.9309806073
1	7173	354322.568815625174	1784.2721752657
1	7181	354501.103664339724	1035.8312965788
1	7189	354733.527839507385	915.68868210408
1	7198	355293.164829833857	1360.1265890111
1	7203	355541.448954850737	1109.9119058816
1	7208	355569.441894102704	1009.3330096103
1	7220	355841.103143101885	678.27269797676
1	7239	356083.991829093705	131.26662097412
1	7250	356488.658600872377	42.256068213777
1	7267	357432.055615983974	523.18681415286
1	7279	357722.823726856405	142.95367188603
1	7290	357967.491624066419	355.52025655021
1	7298	358247.87593403832	364.61978719011
1	7331	359222.046554694061	510.27093988412
1	7339	359394.468160464872	233.68476284356
1	7355	360940.901365245618	1531.6965564879
1	7363	361009.451565390361	1161.6955070386
1	7374	361673.127706987312	1020.2604520693
1	7386	361985.798798366351	976.71578676555
1	7401	362820.789903628527	1455.6419831916
1	7406	363029.870028216013	1006.6712705853
1	7411	363148.030454530937	355.29869068651
1	7450	364815.136904202656	526.98635490419
1	7459	365387.85381611172	636.48610637082
1	7509	366755.111500246458	159.6523103931
1	7576	370573.673475613008	383.8830926659
1	7590	371854.94555725302	52.629273163542
1	7605	372138.273883286081	191.24098871809
1	7610	372297.532016073539	293.95862588008
1	7641	373731.262297177878	232.05948938859
1	7670	374866.366989292451	173.68354815633
1	7699	375581.665977482244	148.43362042589
1	7748	378005.38611710454	0
1	7757	378721.187277365633	255.72422488016
1	7772	379447.421680650403	606.42791027111
1	7791	380442.204433691916	0
1	7808	381130.465419126731	0
1	7835	382301.996366661055	823.4122215837
1	7840	382313.73030140498	713.669146001
1	7852	383657.528729403206	1170.5752037969
1	7857	383747.051328976883	1078.1513231603
1	7875	385659.932616914729	1356.029637545
1	7887	386185.709807470624	1559.691225953
1	7896	386598.331088683585	840.81650730334
1	7910	387293.940835577904	1353.4286207323
1	7915	387296.614466663912	758.43499204193
1	7933	387700.155331181736	922.78486766595
1	7993	390543.396378974806	445.51244761976
1	8001	390847.010732886768	326.20442829115
1	8016	391206.006162436996	146.77736392436
1	8054	392952.673615107507	0
1	8073	395951.745599079617	0
1	8085	396312.473248953786	298.27628422412
1	8094	396947.867354020215	653.15161640362
1	8099	397194.437661214516	750.13567242238
1	8110	397578.785395300258	185.64719808712
1	8115	397601.94299071536	25.375145803173
1	8124	397764.597701986279	95.090643820545
1	8165	398985.96437238193	146.16994871678
1	8173	399051.636236429057	0
1	8213	400458.957390007857	581.6985857486
1	8230	401476.971203249192	469.11418560132
1	8265	402702.514517532501	0
1	8275	403962.642012307201	0
1	8293	406184.664912877086	0
1	8321	409061.792024941724	0
1	8330	410085.441956898186	0
1	8345	410699.354844354544	487.32981483458
1	8350	410981.655727783204	572.90738206957
1	8364	411642.399598843103	226.19054483297
1	8372	411731.120631784334	74.051829529196
1	8386	411885.260428300502	149.85136729551
1	8431	414688.716095709844	0
1	8456	415381.58110407011	0
1	8465	416180.458061271687	0
1	8476	416488.373864751388	20.740840217386
1	8493	417095.035373297308	314.86552637203
1	8513	418090.464391833949	680.25211466663
1	8519	418372.788226682172	362.52522466017
1	8550	420314.375672520852	0
1	8567	421545.047746853738	0
1	8585	423070.219019372453	105.51092056157
1	8594	423694.989547785723	0
1	8614	424723.950728072028	167.51183563867
1	8649	426902.214686879518	406.62009169385
1	8661	427754.601446757443	856.2481450219
1	8666	427822.522041350664	855.62195263556
1	8677	428498.367614456374	948.10611455854
1	8716	430148.777473782824	269.08754537273
1	8722	430372.804888994954	245.54880377427
1	8740	431743.392328884992	1331.2835587577
1	8745	431851.310899608998	972.04564873351
1	8750	431856.733626921295	618.55049003604
1	8790	434510.74834910101	423.99619811825
1	8808	435370.75303359073	756.98638668151
1	8817	435679.487628327403	1050.1131329232
1	8826	436577.489743475612	1694.6165654123
1	8831	436627.775292848377	980.46123007213
1	8849	437066.924731968603	0
1	8884	439714.419696653092	0
1	8893	440210.41812311875	0
1	8910	441046.711249220172	280.36232315243
1	8927	441632.483777789287	260.86115653053
1	8936	442313.758931941762	0
1	8979	445087.94512982061	0
1	9001	445485.564769832975	192.44123919835
1	9006	445537.803839555845	132.68806157152
1	9011	445609.545360857606	149.19553005731
1	9046	447748.019198416262	190.32968050146
1	9054	448054.740841032738	206.48102397619
1	9071	448928.56105538537	0
1	9088	449760.262352679471	59.666470228207
1	9104	451425.101435037085	1576.9749954602
1	9113	451818.849666828003	1470.5979818364
1	9118	452338.184410104339	1001.17273907
1	9132	452599.090839526379	0
1	9160	454019.753072961075	321.16603760348
1	9175	454671.51539110878	630.65707135452
1	9183	454970.527343547066	469.83359662897
1	9219	456285.926257171353	91.661719094985
1	9227	456589.890496771812	227.87209671788
1	9281	464415.975920920646	0
1	9299	465835.709583062605	0
1	9316	466933.319800150407	262.16430106844
1	9337	470716.928611409162	0
1	9345	470812.268635133182	0
1	9356	471097.717922901763	232.79343614457
1	9365	471533.879607784647	453.76039356692
1	9378	472076.125005303621	277.45373617127
1	9395	472429.180542156295	0
1	9404	473422.00265982268	468.82155811311
1	9412	473632.929928558206	38.274211048774
1	9471	476151.586576969286	0
1	9489	477783.109060731785	0
1	9508	480093.063341797259	0
1	9526	481979.320023919828	0
1	9537	482189.519854578232	102.39749813542
1	9542	482340.839074167303	177.50400823304
1	9551	483037.160498445631	0
1	9568	484243.634929001954	0
1	9587	485160.04472284718	423.55928188462
1	9595	485283.891442891076	436.04688094635
1	9607	486021.005603685873	866.99911310796
1	9612	486096.512033835888	907.94183693409
1	9623	486564.104785707828	120.12033255028
1	9669	487985.81539316441	0
1	9698	490163.986941167006	216.69361374011
1	9703	490271.950969184824	304.74604209262
1	9720	490859.202954625931	0
1	9745	491905.237951181867	238.57973518731
1	9773	495198.001492728196	0
1	9781	495302.453916451411	0
1	9818	499382.906807486345	0
1	9837	501642.98029766754	0
1	9846	502479.403814772227	0
1	9876	504242.909585371238	1476.1938250191
1	9881	504437.017467130276	913.72621022823
1	9889	504594.765952660916	623.35121049047
1	9894	504694.429289195227	674.3593912266
1	9909	504886.605184904172	337.21701690987
1	9914	504927.029157413439	133.97003744065
1	9928	505265.875787229485	421.30813258183
1	9936	505500.093130171423	505.29282774073
1	9948	506132.195167440632	992.4051934885
1	9956	506382.095372802935	1132.7075805487
1	9961	506443.834417756901	758.77357287669
1	10014	508390.57389814618	67.086324232576
1	10028	508718.723276826074	64.067910353046
1	10066	510995.033333576356	838.97881930598
1	10071	511386.650776806269	1197.1426095039
1	10076	511582.7602754368	1325.5211799996
1	10093	512095.961750874482	46.397285951477
1	10125	514093.646175868868	495.26785648175
1	10134	514314.515771903555	338.17977367552
1	10142	514876.10263157325	695.00133937041
1	10147	514933.803215567051	568.49029975595
1	10188	516354.174208837389	60.658386208533
1	10214	517543.080787865981	310.41808659251
1	10232	518355.152020632479	964.14797835469
1	10238	518682.367065557371	1107.4033496837
1	10246	518809.06772866729	790.43040085125
1	10258	519864.626465935607	1713.7893718846
1	10266	520165.075110343004	1918.3718269082
1	10285	521243.383656050095	2455.5860022948
1	10290	521297.178084523467	1576.5709101543
1	10307	521559.15665048722	1004.4274063522
1	10322	522237.319333240323	1236.5046828758
1	10333	522819.140800749646	1340.0490554344
1	10342	523033.128016255349	1541.7117511795
1	10347	523121.276345688867	1222.7057882007
1	10358	523712.964654704229	1702.5584480196
1	10373	524178.601473687823	2158.3578837121
1	10378	524236.735038145001	1629.307550806
1	10389	524557.669699106966	1192.5585175222
1	10395	524732.950356090975	993.87388766604
1	10406	524849.592673272987	928.94706039112
1	10452	525542.861514920936	207.73774296639
1	10458	526437.631579456552	912.57595877137
1	10477	526807.538889745939	205.34379126134
1	10582	531232.614987069937	114.06083044481
1	10611	531866.216036022165	171.40132955714
1	10633	533092.385914578206	0
1	10642	533417.977122517472	0
1	10653	533856.476016401033	341.137675942
1	10658	533865.244350310938	62.739188883927
1	10687	535066.34859316343	34.213283437787
1	10709	536552.982324185435	72.215231739619
1	10721	537339.513441777303	473.86418197699
1	10729	537395.988460958452	186.25859567058
1	10769	539548.373141541726	0
1	10779	541662.495521180192	0
1	10797	542874.599835520388	0
1	10824	545776.824747790673	0
1	10841	546573.573605753954	0
1	10866	547566.785969501352	169.25711891319
1	10878	548247.615338859577	507.64476258822
1	10883	548289.449994547022	330.86973419828
1	10910	550585.879012730418	0
1	10923	552384.791959022887	469.49044822653
1	10928	552613.158254661208	280.49977677087
1	10946	553965.304905109633	0
1	10954	554102.007315227712	0
1	10995	555359.285912956978	546.12562053591
1	11004	555719.036069892601	165.88708059691
1	11012	556176.795645249061	186.00988749549
1	11030	557772.836876695161	0
1	11038	557984.258259757248	61.181481024494
1	11069	560636.582536859789	920.81126927771
1	11085	560932.196411343758	66.90945335884
1	11093	561079.679727381461	181.06467456435
1	11115	561692.01768307376	316.46547642295
1	11143	562789.340285023001	377.37315303259
1	11152	563328.796488298853	222.81898265483
1	11160	563785.492017621052	286.31105084969
1	11172	564025.509402819435	128.53494270299
1	11183	564412.09899632707	78.354432790744
1	11198	565138.734670276168	575.24370972909
1	11203	565203.173345559358	484.67111023611
1	11233	566315.688729334566	110.09843765391
1	11252	566712.707166405577	161.71315620169
1	11290	567453.02704784014	59.513927744786
1	11315	568761.564817534208	0
1	11323	568995.07798884635	0
1	11340	569330.761651744776	8.937172970084
1	11360	570123.658622465418	21.240629149557
1	11368	570234.517298545912	53.799143762255
1	11389	570642.308230214514	0
1	11407	572370.986039286079	0
1	11433	573845.776959882204	13.347842662134
1	11441	574150.534074927631	0
1	11476	576227.268186082795	0
1	11484	576306.656766716088	48.857488101898
1	11493	576947.83967952885	0
1	11520	579688.357536533461	0
1	11529	580337.719527519106	204.65418267628
1	11545	580812.702942081277	28.027360865336
1	11562	581762.924940582197	0
1	11574	582254.849127441666	318.33803728242
1	11579	582416.892218387962	464.52697431394
1	11600	583734.919502451807	640.93293279295
1	11639	585773.756693838149	0
1	11651	586919.40361254056	852.05073865386
1	11663	587469.183576071138	933.42446821155
1	11671	587482.849577719384	293.17369420433
1	11686	588223.180692284378	449.33973279381
1	11694	588632.890418831719	798.39065349926
1	11699	588686.795373660917	614.6485651345
1	11708	589061.121210787328	819.97631175481
1	11733	590146.660518475355	158.38533940591
1	11750	590415.640742800182	82.200593106649
1	11771	591158.628853038137	767.42047122609
1	11777	591734.196061247678	1335.9438211247
1	11788	592013.839143852774	1574.5042314347
1	11793	592029.467602400891	1042.9168059209
1	11844	593935.874946625598	59.398078679384
1	11856	594295.15613388006	86.341323304582
1	11893	595232.890541308761	96.350156842096
1	11902	595776.856413846306	339.34978873795
1	11910	596510.330326566948	127.26309839666
1	11946	598744.936712307019	321.70737201231
1	11951	598839.62901268698	167.51003667343
1	11970	599185.745883077283	50.91292305182
1	12003	600455.517426122946	174.88162170637
1	12008	600611.31674930579	242.72035443055
1	12026	601384.350989196207	529.62920387727
1	12031	601489.319777131516	399.92495619088
1	12053	602050.968672763594	303.88819950835
1	12084	603920.601719947925	151.24844630656
1	12093	604694.529720296978	0
1	12101	605033.237493423227	100.95472492772
1	12131	607017.523304993937	306.58933764353
1	12160	609020.565182946248	1309.5138435024
1	12165	609240.690695280843	806.09517207569
1	12170	609287.837863468478	395.61572628265
1	12179	609589.697835990094	166.11608087007
1	12187	610082.052104251161	0
1	12198	610284.766958805153	77.279689937088
1	12220	610682.800898054882	6.949990179979
1	12264	611818.169932502208	94.634796705558
1	12295	613218.568604231007	0
1	12304	613915.012588159572	0
1	12321	614808.381953650911	0
1	12338	615594.840218230269	113.29414284771
1	12347	616502.41340757301	0
1	12362	617298.098302193606	174.22270214838
1	12382	617867.647629137212	486.32788609598
1	12391	618259.127598828809	716.23721307029
1	12396	618317.22652897107	646.62622925582
1	12401	618371.311251410511	555.11317618443
1	12447	620079.310770331791	135.09727217317
1	12455	620121.08853280898	0
1	12476	621200.279549009651	766.01783531561
1	12488	622042.166120485901	1363.3120960481
1	12503	622891.737162911104	1283.8380685375
1	12512	623181.57876979461	538.21312046198
1	12517	623246.634084644184	168.69557135082
1	12528	623583.231414271163	48.802999476446
1	12557	624003.546507715173	28.600386734135
1	12563	624250.438966733573	253.62478750793
1	12588	624942.300184303815	6.90475698189
1	12601	625295.162578024778	222.67722599569
1	12643	626800.709872825431	498.35634287561
1	12663	628294.361216773886	392.1802943156
1	12687	629146.735052266548	118.35858101381
1	12718	630177.978083370426	282.03968247021
1	12731	630705.566493094869	0
1	12739	630809.702442517558	0
1	12748	630944.834823514252	0
1	12765	631992.256291885457	0
1	12790	633281.909458104643	5.809838015931
1	12808	634586.684054263994	0
1	12829	636042.137472171884	990.80987129589
1	12837	636501.519700795719	1413.7394987914
1	12855	637735.138104265898	159.16462133537
1	12863	637945.736176764532	189.3134835468
1	12884	638382.035297804223	0
1	12892	638581.392927620318	0
1	12926	639750.091388071519	0
1	12941	640329.908853143245	241.95306949487
1	12959	641139.673082661147	0
1	12993	642440.617990290982	78.094319136006
1	13002	643011.132603747346	0
1	13028	644801.608747021144	0
1	13036	644820.610636411269	2.739638190935
1	13044	645256.587504586447	0
1	13053	645507.264839858081	123.85665102467
1	13061	645759.723814940696	0
1	13089	647112.520024760127	194.94182626675
1	13120	648296.416018062748	192.018116439
1	13128	648535.515081191289	0
1	13136	648755.141658442919	0
1	13155	650001.389179943752	808.61444218405
1	13166	650502.367814305339	365.50265739351
1	13184	651050.763056908674	692.1118355844
1	13189	651275.347997686728	399.49907399555
1	13194	651393.70153486353	515.27723857413
1	13244	652292.236218992822	0
1	13273	655727.481699032685	0
1	13281	656151.23974093935	351.62905059365
1	13307	657504.805912811956	0
1	13325	659825.953805124389	0
1	13334	660319.159855833528	0
1	13351	660821.567165396752	433.66970988377
1	13357	660954.447972108259	451.38102540328
1	13376	661387.443906517123	219.56880712447
1	13381	661419.124449807689	178.26107642304
1	13403	663320.315066851366	1655.3763812733
1	13418	663727.783983951473	1557.4777909787
1	13423	664092.20883981342	624.79840532824
1	13429	664396.76167414025	899.45772130903
1	13434	664594.837730149343	1093.6926732977
1	13455	665025.800100906798	135.33376482966
1	13473	665827.40801964311	88.201482513688
1	13492	666361.052835030185	232.44939630027
1	13544	668160.164022194773	178.27488699802
1	13553	668614.260939307951	114.18983937414
1	13580	669538.937054273163	105.04951048444
1	13591	670165.23056237548	198.40486364852
1	13596	670211.292125613211	68.395452055635
1	13605	670334.264030893996	95.254898262866
1	13626	670926.798537870888	210.84818306689
1	13634	671044.803560028795	1.078153258721
1	13668	672495.337647332058	0
1	13705	674363.400406857747	77.544287852914
1	13728	675892.666377170643	0
1	13737	676751.157521238475	0
1	13745	676915.367140291046	130.82613245007
1	13770	677734.499090021757	0
1	13779	678869.85801845669	0
1	13805	680203.746410042476	0
1	13831	681219.852670475055	505.13442384589
1	13836	681347.476111703247	231.77526291836
1	13853	681656.090838797547	48.885455569695
1	13866	681819.401946425267	55.395964092734
1	13882	682144.999568941845	50.318319469891
1	13914	684653.880982724278	0
1	13923	685150.767653820594	362.2064629747
1	13939	685379.536720457558	0
1	13947	685613.744389328292	182.46636735059
1	13973	686670.727752009711	0
1	13982	687830.904848966691	0
1	14007	688638.309882517045	0
1	14015	688753.461391918629	0
1	14023	688997.112168746493	89.853003196364
1	14041	689693.445565309289	384.92807840704
1	14066	690753.925890104342	85.561000975191
1	14072	690961.07670934995	271.03510436745
1	14083	691270.799399734552	119.83299726078
1	14096	691475.773377684621	0.8348079272
1	14143	695841.846852168519	0
1	14152	696225.106854862775	0
1	14169	696947.00481804989	0
1	14188	697461.329918284217	188.28130942603
1	14205	698312.614772453057	77.000667450859
1	14214	698974.783667119779	531.75914180062
1	14223	699594.294288319927	520.19653386553
1	14246	700411.815065819755	532.08377024056
1	14257	700731.162363766196	56.161181617144
1	14262	700998.352621288003	271.64201773182
1	14294	701734.208175054867	0
1	14320	703423.634206600103	0
1	14337	704272.265924058823	0
1	14354	704798.546448067123	0
1	14396	706833.539886133872	0
1	14415	709167.358716373301	0
1	14424	709760.637977041553	0
1	14432	710313.527069031679	0
1	14447	710749.902404993663	248.27863422624
1	14459	711882.24611219922	1149.6178733796
1	14467	711952.230048731489	32.046684503621
1	14475	712106.683854630291	19.117931202722
1	14492	712562.468842731808	261.17759293422
1	14515	712900.77687628249	0
1	14532	713322.677454465925	34.667579143207
1	14557	714289.03955364644	0
1	14573	714719.184219288942	0.200696327784
1	14599	716019.644773227505	0
1	14616	717289.09093078032	0
1	14625	717464.240937719909	0
1	14659	719795.028273720696	0
1	14676	720840.856736218143	560.40972063744
1	14685	720984.978841324819	0
1	14710	722320.728647147641	0
1	14730	723114.549597598964	174.52801440847
1	14747	726276.118809296522	0
1	14756	727090.920306868866	425.38317075926
1	14772	727478.479640402521	0
1	14799	729945.247370708993	0
1	14808	730561.036936568237	0
1	14818	732666.331951545873	0
1	14838	733452.275736475345	29.067339082102
1	14852	733781.215012301261	106.25111828833
1	14872	734697.880080429968	106.38900243224
1	14880	734763.625082114753	16.961329631137
1	14911	736835.892783459805	0
1	14921	738320.749967876099	0
1	14942	739979.04327454343	348.99944411569
1	14950	740184.760949554495	47.938027038064
1	14972	741028.97376110043	85.041505233899
1	14980	741171.676769931893	0
1	15006	743089.473399234972	0
1	15015	743319.648337683747	204.18238701558
1	15023	743631.29532914574	163.36639067916
1	15031	743860.667721580763	0
1	15082	745579.945869938025	69.053405042644
1	15109	746506.382905012182	498.44305998715
1	15114	746586.155080055487	557.12935216216
1	15131	746938.260966701058	0
1	15142	747229.225526734566	118.35520129661
1	15156	747853.310645086425	0
1	15172	748094.538962711113	57.251739114882
1	15180	748175.03030017568	66.30830467789
1	15189	748519.906243741409	0
1	15222	749675.840732442657	0
1	15267	751196.139383211957	48.305340263769
1	15272	751532.344080650864	355.13557470257
1	15281	751921.978287261906	209.0750416818
1	15296	752696.791374265485	450.75630403143
1	15301	753261.19776727712	847.0622324484
1	15310	754136.069333596161	698.4791020423
1	15339	755746.920194718045	499.52578671642
1	15356	756686.735588988773	23.620960272337
1	15365	756892.62892091114	77.494585985778
[...]
7	15387	757837.387050854129	1
7	15396	758064.361728161472	2
7	15405	758252.737860624042	1
7	15428	759948.654321628407	0
7	15432	760083.591109425239	1
7	15446	760789.653481510962	2
7	15449	761565.876391206662	1
7	15467	762328.853686287207	2
7	15472	762576.860405703613	3
7	15475	763173.636599445991	2
7	15480	763416.371322453913	1
7	15493	764069.13887966313	2
7	15505	764439.12218964159	1
7	15518	766604.645673740596	2
7	15523	766650.202319158238	3
7	15527	766765.527028994646	2
7	15530	767099.211811199156	1
7	15535	767656.236352188598	2
7	15553	768509.857750436205	1
7	15562	769680.789896618757	0
7	15579	771654.923000019756	1
7	15594	772925.939831646705	2
7	15599	773027.172221499618	3
7	15604	773474.058420065968	2
7	15608	773484.878811866583	3
7	15615	773861.375287513159	2
7	15628	774305.431003473234	3
7	15633	774603.795360336049	4
7	15641	775141.056523630502	3
7	15655	775685.04852020146	2
7	15664	775960.460158556911	1
7	15668	775969.131583239207	2
7	15672	776397.329054765053	1
7	15684	777622.755313771981	2
7	15689	778015.37192139157	3
7	15694	778101.738398356232	4
7	15699	778185.676886365982	5
7	15710	778785.033625213433	4
7	15713	778925.081746011927	3
7	15722	779040.84565783033	4
7	15730	779434.350151478379	3
7	15734	779521.084557897126	4
7	15738	779615.522962204591	3
7	15742	779778.294529546905	4
7	15759	780298.531903587663	5
7	15764	780460.154705540248	6
7	15780	780691.853549060995	7
7	15785	780753.873414323458	8
7	15789	780817.028059027088	7
7	15798	780931.215230794075	6
7	15804	781139.177821569656	5
7	15807	781201.698597192788	4
7	15814	782042.649856631565	3
7	15823	782269.847572453828	4
7	15828	782318.259524473404	5
7	15832	782453.84538440885	4
7	15841	782588.099228420621	3
7	15862	783710.265944591862	4
7	15867	783725.685649662249	5
7	15891	784474.106228514008	6
7	15895	784500.163018229032	5
7	15903	784649.488543556215	4
7	15921	784988.839816875941	3
7	15924	785091.552415975215	2
7	15942	786864.60279469702	1
7	15958	787434.71782381442	2
7	15969	787693.890790344539	3
7	15975	787813.431692555977	4
7	15980	787945.877887280081	5
7	15984	787956.802309260162	4
7	15987	788067.199369491968	3
7	15991	788266.058954236539	4
7	16014	789140.761563781669	3
7	16018	789427.521411316745	4
7	16026	789716.466622832996	3
7	16034	790153.206557797404	2
7	16043	790904.770611112258	1
7	16059	792752.311664885948	2
7	16070	793456.890435005477	1
7	16074	793525.834303011996	2
7	16079	793765.426035910377	1
7	16083	793879.784652353158	2
7	16102	794599.532192895878	3
7	16110	794749.73244031313	4
7	16112	794755.804075821646	3
7	16127	795542.585941785324	4
7	16129	795624.695299873081	3
7	16142	796141.703168332701	2
7	16150	796340.363871829812	3
7	16155	796464.184516867792	4
7	16162	796783.396186814823	3
7	16177	797196.314744079703	4
7	16186	798124.521093251864	5
7	16199	798648.148551690082	4
7	16203	798689.875475835581	5
7	16209	798877.990247189606	6
7	16214	798918.951931326542	7
7	16227	799016.636095269664	8
7	16229	799028.854845874824	7
7	16237	799185.113968359925	6
7	16250	799321.485238819512	5
7	16255	799737.809058885079	6
7	16274	800341.514454471299	7
7	16278	800428.711237444659	6
7	16282	800611.135713411939	5
7	16289	800812.412674653388	6
7	16293	800868.770917357113	5
7	16297	801087.918765470059	6
7	16302	801115.469430498756	7
7	16316	801575.347563115106	8
7	16325	801877.359678547889	7
7	16328	802074.880469418494	6
7	16341	802529.519740283612	7
7	16350	802596.427849503838	6
7	16356	802826.804624999398	5
7	16366	803312.037502953244	6
7	16375	803398.836685565568	5
7	16382	804219.031024162905	4
7	16391	804329.773698708576	5
7	16395	804444.832575578166	4
7	16409	805032.277016980962	3
7	16415	805238.123592655028	2
7	16424	805467.675945907514	3
7	16443	806192.9364737587	4
7	16445	806259.113443380304	3
7	16453	806479.140269405099	2
7	16468	806636.181620553844	3
7	16470	807223.452503136033	2
7	16475	807228.903314644963	1
7	16498	809398.093496823366	2
7	16503	809406.323524699364	3
7	16505	809906.724271120825	2
7	16510	809957.597320891787	1
7	16522	810311.860856115378	0
7	16537	811129.955332113766	1
7	16546	811750.929693280759	2
7	16554	811935.005258425209	3
7	16556	812176.003474455713	2
7	16565	813118.218182393495	1
7	16579	813591.45249321102	0
7	16583	813817.98140359658	1
7	16587	814254.216994285814	0
7	16609	815165.459849169171	1
7	16614	815166.376628302375	2
7	16617	816151.260706160124	1
7	16632	817008.641562615937	2
7	16634	817535.91950576625	1
7	16640	817793.003116775948	0
7	16661	818787.796997802951	1
7	16666	819321.089853149414	2
7	16674	819330.107413763162	3
7	16676	819352.321188168712	2
7	16682	819518.530992112876	1
7	16693	820280.183829769022	0
7	16715	821828.862262732637	1
7	16721	822112.306193508639	2
7	16726	822125.292130006545	3
7	16728	822493.936515335421	2
7	16743	822918.810188282641	3
7	16745	822969.838716139187	2
7	16761	823544.596605662893	1
7	16769	824003.510546650155	2
7	16780	824176.984512380842	3
7	16785	824200.367921165708	4
7	16790	824541.482834771549	5
7	16796	824698.335726760134	6
7	16800	824904.384778301424	5
7	16808	825277.936763574053	4
7	16820	825477.866626418705	3
7	16825	826075.400502590163	2
7	16828	826166.803522440526	1
7	16832	826587.85118272445	0
7	16862	829059.692903846181	1
7	16870	829386.220732648103	2
7	16879	830246.498565251188	3
7	16887	830375.972977744745	4
7	16895	830629.322318033629	3
7	16898	830712.431314007571	2
7	16902	830954.240243180354	3
7	16920	831265.215567485752	4
7	16929	832239.795940494605	5
7	16932	832624.764230168978	4
7	16940	832945.804155337329	3
7	16963	835238.323612084384	4
7	16968	835632.080047924437	5
7	16973	835716.791941439116	6
7	16976	835863.379498565651	5
7	16984	835970.703209312496	4
7	16987	836067.97708940303	3
7	16990	836122.054947047525	2
7	16998	836290.386901712547	1
7	17001	836473.223301388218	0
7	17008	836540.126942054611	1
7	17014	836807.313723947532	2
7	17044	838055.271122826016	3
7	17049	838155.097813358327	4
7	17057	838203.181637095634	5
7	17062	838451.689173383813	4
7	17066	838552.024587745213	5
7	17080	838729.374991676232	4
7	17088	838777.937257947106	3
7	17102	839102.648294364751	2
7	17106	839166.448942116574	1
7	17115	839466.608614628879	2
7	17120	839521.771629898376	3
7	17133	840145.722388065669	2
7	17141	840708.694661578765	1
7	17150	840834.166281792079	2
7	17158	840891.642675264941	1
7	17172	841362.333155864972	2
7	17174	841469.399327526398	1
7	17189	842072.671503143826	2
7	17191	842494.819729238902	1
7	17201	843941.214816243746	0
7	17219	846948.841263863385	1
7	17222	847909.064895283142	0
7	17236	848109.647459606291	1
7	17244	848396.730815126034	2
7	17247	848677.865257287689	1
7	17261	849029.307749200982	2
7	17269	849156.585921402909	3
7	17272	850175.802555761369	2
7	17281	850730.31737316322	1
7	17295	851031.528558091801	2
7	17303	851244.215140585241	1
7	17306	851432.780594972548	0
7	17313	851786.626186569002	1
7	17319	852387.307317627862	2
7	17337	852798.222960369167	3
7	17340	853012.265935595842	2
7	17345	853086.417961698367	1
7	17348	853519.482145075765	0
7	17372	854946.371179057116	1
7	17382	856432.247241510887	2
7	17384	856650.367368642401	1
7	17398	857145.483179280698	2
7	17401	857239.112249628239	1
7	17415	857705.902330736553	2
7	17419	859034.990540826001	1
7	17428	860240.497210567148	0
7	17450	861540.589499433665	1
7	17456	862426.88410885777	2
7	17466	862637.77329826717	1
7	17474	863678.219056730439	2
7	17479	863722.778017733639	3
7	17483	863766.741410982757	2
7	17487	863822.702811540775	3
7	17492	864052.192446243249	2
7	17496	864646.889392894297	3
7	17508	864858.059525897904	2
7	17522	865807.014089422113	3
7	17527	865977.162296893325	4
7	17541	866608.332626198163	5
7	17545	866642.783107052285	4
7	17556	866820.079464517793	3
7	17559	866824.875158780932	2
7	17571	867420.872755092732	3
7	17579	867532.052327512245	2
7	17583	867569.787096348196	3
7	17591	868119.389028917138	4
7	17595	868214.464323196148	3
7	17599	868398.096434466225	2
7	17606	868766.600979228224	3
7	17611	868958.166188356683	4
7	17621	869477.269248170775	3
7	17655	870930.675897575784	4
7	17657	871131.798355695426	3
7	17668	871523.74319917836	2
7	17681	871812.112036809574	3
7	17686	871979.808451499407	4
7	17690	871981.796890078631	3
7	17697	872443.847847423342	4
7	17702	872644.282120026851	3
7	17705	872884.041558062715	2
7	17709	872974.215173786282	3
7	17736	873472.557824844601	2
7	17742	873578.780538241609	1
7	17758	874086.050032457339	2
7	17762	874230.123220226785	1
7	17767	874469.107790174278	2
7	17772	874874.679148489421	3
7	17777	874978.059708185941	4
7	17781	875142.82255739061	3
7	17785	875180.898720260677	2
7	17788	875333.27256982462	1
7	17798	875679.857274787821	2
7	17802	875839.998644004028	1
7	17810	876664.825871300571	2
7	17814	876778.560903513055	1
7	17819	877194.94359188976	2
7	17823	877253.473875126063	1
7	17827	877527.777501973845	2
7	17836	878058.932158090388	3
7	17840	878164.207383839396	2
7	17844	878173.791688744763	3
7	17849	878510.325200916791	4
7	17858	878723.644277797351	5
7	17866	878732.284422189995	6
7	17870	878787.987062450386	5
7	17874	878965.369480545713	6
7	17879	879367.160675784866	7
7	17908	879889.895659095413	8
7	17926	880593.219756042707	7
7	17933	881185.006115790486	6
7	17936	881186.332899048398	5
7	17939	881239.438992756403	4
7	17951	881572.553335703745	5
7	17955	881930.369943234405	4
7	17959	882053.989826355741	3
7	17963	882121.47038059199	4
7	17968	882157.035195314898	5
7	17972	882215.166231355742	4
7	17975	882281.627041829847	3
7	18005	883972.765609149067	2
7	18043	885333.077706728243	3
7	18059	885717.591332644642	2
7	18068	885787.202858351998	3
7	18072	886080.848404760073	2
7	18076	886223.662597225462	3
7	18092	887237.108065966407	2
7	18108	887975.436954225759	1
7	18118	888784.26596354198	2
7	18133	889750.453638344854	3
7	18136	891277.052350953318	2
7	18145	892252.332391670411	1
7	18163	892634.031610976078	2
7	18168	892789.952656596724	3
7	18171	893427.59773156361	2
7	18180	894670.567910598548	1
7	18190	896088.880778603744	0
7	18208	896734.716890651261	1
7	18213	896825.124120779639	2
7	18222	898154.057116125735	3
7	18234	898795.613172837962	4
7	18239	898812.05042097263	5
7	18241	898870.8417049453	4
7	18246	898959.019968771204	3
7	18249	899030.571114288886	2
7	18253	899494.231981784628	1
7	18282	900986.635548692382	0
7	18286	901573.396040272201	1
7	18291	901624.429253120756	2
7	18297	901985.744001971429	3
7	18315	902249.152868817719	4
7	18317	902465.570232612322	3
7	18326	902701.31995019718	2
7	18329	902754.64729378666	1
7	18342	903905.893741690003	2
7	18346	904178.024146354457	1
7	18350	904378.277812429555	0
7	18354	904445.972286984275	1
7	18380	905282.229371124231	0
7	18384	905499.512801890977	1
7	18389	906006.720092423085	2
7	18408	906311.619881240023	3
7	18410	906338.949220044334	2
7	18419	907326.763945375903	1
7	18434	908843.248305683776	0
7	18439	909785.014232463257	1
7	18454	912328.667126373856	0
7	18461	912490.919556813829	1
7	18466	912867.472286008191	2
7	18483	913232.642668986231	3
7	18488	913273.735246652813	4
7	18502	914253.341243707517	3
7	18509	914692.540524753803	2
7	18513	914714.327456194835	3
7	18517	914807.127908285834	2
7	18521	914912.011037358275	3
7	18526	915132.190533180105	4
7	18531	915192.579857762927	5
7	18554	915409.761292604937	6
7	18562	915594.12690479131	5
7	18566	915901.788038160048	6
7	18573	916163.427092440439	5
7	18582	916444.653055839173	4
7	18590	916664.283590650107	3
7	18603	917010.239153672106	2
7	18607	917211.904781061174	1
7	18611	917647.830780577631	2
7	18615	917837.113817857225	1
7	18637	918956.510285456735	2
7	18641	919198.343900402909	1
7	18645	919275.699250124255	2
7	18657	919703.541600667633	1
7	18673	921056.931202838938	2
7	18675	921200.293318606228	1
7	18693	921846.605040428829	2
7	18698	921877.955929770147	3
7	18700	922050.071438272683	2
7	18714	922605.261499677885	1
7	18718	922790.70230733908	2
7	18725	922980.109464299912	1
7	18740	924529.255681473141	0
7	18744	924575.336304104555	1
7	18757	925213.770997281626	0
7	18761	925243.175888644131	1
7	18784	926201.010335269774	2
7	18789	926237.875673392334	3
7	18794	926418.106226662028	4
7	18798	926497.049464133367	3
7	18806	926856.773900604215	4
7	18811	927199.152671844773	5
7	18818	927338.880465857464	4
7	18831	927499.422524943198	5
7	18836	927832.20365646223	6
7	18850	928627.978719272489	7
7	18852	928684.291202377793	6
7	18860	928777.955709093671	5
7	18877	929580.297546461143	4
7	18884	929683.052787789828	5
7	18896	930070.803178249849	6
7	18900	930141.480076274116	5
7	18903	930438.556310555238	4
7	18908	930992.359697553247	5
7	18912	931025.489530078137	4
7	18916	931162.100613619034	5
7	18920	931300.042454916337	4
7	18924	931415.717930987703	5
7	18939	931812.682453314054	4
7	18952	932310.081156299351	3
7	18970	933559.908219450412	2
7	18979	934333.230485020232	1
7	18987	934781.227738207056	0
7	19010	937007.708399811191	1
7	19014	937115.330843627349	0
7	19018	937319.927306333721	1
7	19023	937355.007058708798	2
7	19036	937508.202062537309	3
7	19044	937658.595655195464	4
7	19053	937979.087195265859	5
7	19062	938728.737121446331	6
7	19064	938840.779548345575	5
7	19072	939154.576219817777	4
7	19087	939892.01991946745	5
7	19089	940064.474257884635	4
7	19095	940320.909814546767	3
7	19110	941096.853005321136	4
7	19114	941118.248523880471	3
7	19121	941308.848281606079	2
7	19125	941337.549534806054	3
7	19133	941417.761076646732	4
7	19137	941519.94020141139	3
7	19140	941637.513354602525	2
7	19150	942210.583021995555	1
7	19161	943118.968974380053	2
7	19170	943989.377552676639	3
7	19178	944126.634453254359	4
7	19189	944262.091466261327	5
7	19201	944954.86351018918	6
7	19208	945154.639185201948	5
7	19211	945220.939654909119	4
7	19215	945715.773577368232	3
7	19219	945861.144186116452	4
7	19224	945922.233117042992	5
7	19228	946050.383770258134	4
7	19232	946154.345231173042	5
7	19236	946170.088568969061	4
7	19240	946886.917824723431	3
7	19248	947868.632604549277	4
7	19253	947912.742986936614	5
7	19259	948210.240427210661	6
7	19263	948310.11628488564	5
7	19267	948754.689035383134	6
7	19272	948972.710988462651	5
7	19282	950266.462687984536	4
7	19286	950556.530167281152	5
7	19292	950621.539430221236	6
7	19296	950622.75269627808	5
7	19299	950878.14278870141	4
7	19303	951282.625307835046	5
7	19307	951437.488959055145	4
7	19314	951921.823607590766	3
7	19317	951971.156694975458	2
7	19329	952870.68456406959	1
7	19333	953049.402274349438	2
7	19337	953062.971014534788	1
7	19352	954131.714999305417	2
7	19357	954280.060415189272	3
7	19362	954505.101321945573	4
7	19367	954675.901377817093	5
7	19382	954889.502181661795	4
7	19401	955967.133891104569	3
7	19414	956698.663950914354	4
7	19423	957331.742938120514	3
7	19427	957540.702313413751	2
7	19441	957892.908320223301	1
7	19445	957907.690490243583	2
7	19449	958205.91898224131	1
7	19454	958325.531992362573	2
7	19463	958341.370145525387	1
7	19481	959263.711496972499	2
7	19490	959311.021337600587	1
7	19501	959447.639427825878	0
7	19505	959593.971512819618	1
7	19525	960139.726784947916	0
7	19571	961678.859814366434	1
7	19577	961803.471421564817	2
7	19597	963352.193333999111	3
7	19602	963435.399971521762	4
7	19611	963538.338664276066	5
7	19615	963799.22297853173	4
7	19618	963827.141524055157	3
7	19622	964140.350568929205	4
7	19635	964582.767809627206	3
7	19639	964616.466958588584	4
7	19651	965113.328342333367	3
7	19657	966111.400306777305	4
7	19671	966361.21500926504	3
7	19675	966937.685326176722	2
7	19686	967354.262948996009	1
7	19691	967746.17455814024	2
7	19714	968989.367623567756	1
7	19722	969602.010422660144	2
7	19726	969937.996426020399	1
7	19730	970074.019298117194	2
7	19734	970126.365167636851	1
7	19757	971542.346190547625	0
7	19766	971751.477290602719	1
7	19781	972030.598834596663	0
7	19809	972997.553251653835	1
7	19825	973520.646542588135	2
7	19830	973636.585109438012	3
7	19838	974528.20024621487	2
7	19842	974814.456813615529	1
7	19849	975074.951730318034	2
7	19855	975731.936201546283	3
7	19873	976235.030734484399	4
7	19876	976445.633516711659	3
7	19889	976605.853392560774	2
7	19892	976655.439147725578	1
7	19896	976818.688630461381	2
7	19906	977202.73163834434	1
7	19917	977989.365268181213	0
7	19932	978793.897523276384	1
7	19935	979133.396079451021	0
7	19950	979888.918908131597	1
7	19958	980279.899360713262	2
7	19961	980614.654188790927	1
7	19969	981030.653621585868	0
7	19987	982187.084497668049	1
7	19992	982270.580463203253	2
7	20005	984184.245790061366	1
7	20008	984327.84650659861	0
7	20012	984592.13080904987	1
7	20016	984645.090178962551	0
7	20021	985196.097509364668	1
7	20035	985562.236923274744	0
7	20047	985710.315363591254	1
7	20065	986692.630182138711	2
7	20070	986752.977039172515	3
7	20072	986776.593557378821	2
7	20080	987146.774433241547	1
7	20094	987305.177187500764	2
7	20102	987720.39532274025	1
7	20112	988126.690568769205	2
7	20117	988394.832880624059	1
7	20121	988489.693528361766	2
7	20125	988494.991572153576	1
7	20139	989262.926104385656	2
7	20144	989801.659553349515	3
7	20149	989928.986249028536	4
7	20154	989988.196067565355	5
7	20159	990052.494346251187	4
7	20165	990288.254421292431	3
7	20171	990479.067062083286	2
7	20181	991155.236843023142	3
7	20185	991266.894971695707	2
7	20189	991427.132836992573	3
7	20198	991507.434497934911	2
7	20207	991755.622749201142	1
7	20248	993202.118574983368	2
7	20253	993207.571373290473	3
7	20261	993331.384181895879	4
7	20270	993625.839195558256	5
7	20272	993773.147264066036	4
7	20281	994486.098464274445	3
7	20286	994709.811448337517	2
7	20313	995945.614130998943	3
7	20318	996103.514388821349	2
7	20324	996378.705777783056	1
7	20328	996834.325579057388	2
7	20334	997233.427094333857	3
7	20342	997467.411357985478	4
7	20346	997476.559866052832	3
7	20350	997563.011630282409	4
7	20361	997876.317462454152	3
7	20365	998002.035883810032	4
7	20370	998278.463439783569	5
7	20375	998614.035004755493	4
7	20379	998756.674537978975	5
7	20393	998977.925318137116	4
7	20410	999642.855765414524	3
7	20419	999785.589009905101	4
7	20428	1000098.570126993271	3
7	20447	1001197.551196208659	4
7	20450	1002756.99435918435	3
7	20460	1003875.314515804477	2
7	20469	1004692.638783617639	1
7	20472	1004764.715885688553	0
7	20485	1005855.394576773946	1
7	20490	1005873.008737126438	2
7	20509	1006383.330881436601	3
7	20516	1006556.245414898321	2
7	20519	1006962.709138401435	1
7	20523	1007046.572011495564	2
7	20536	1007611.619214330397	1
7	20541	1007668.923151239954	0
7	20563	1009252.449437140342	1
7	20567	1009420.264208160239	0
7	20571	1009717.643737362638	1
7	20586	1010667.032892640861	2
7	20594	1010951.72290899172	3
7	20597	1011839.123295514664	2
7	20612	1012381.59627185692	3
7	20614	1012657.684854197826	2
7	20628	1013938.980198416414	1
7	20632	1013991.61567050274	2
7	20640	1014382.421779417785	1
7	20661	1015210.483192624617	2
7	20669	1015243.185398994996	3
7	20674	1015452.400978861591	4
7	20678	1015476.104633013977	3
7	20686	1015746.682549170409	4
7	20690	1016102.744898049155	3
7	20694	1016103.072458340289	4
7	20706	1016506.75877155903	3
7	20719	1016976.428482170966	4
7	20724	1017046.298448145148	5
7	20740	1017924.931536893051	4
7	20744	1017958.701143440827	5
7	20749	1017998.252664737751	6
7	20753	1018019.113566604757	5
7	20766	1018412.937430250166	6
7	20770	1018467.779595174097	5
7	20778	1018492.32274230877	4
7	20786	1018848.926122384586	3
7	20804	1019463.131780308884	4
7	20806	1019854.108879847364	3
7	20815	1020316.855297835078	2
7	20820	1020673.676368123235	1
7	20844	1024139.551728539659	2
7	20849	1024196.85493106532	3
7	20852	1025119.166010578304	2
7	20874	1026222.399132469505	3
7	20879	1026322.598160005616	4
7	20884	1026434.467793709918	5
7	20891	1026708.849799400682	4
7	20895	1026836.940645226461	5
7	20903	1026999.8516859701	4
7	20912	1027370.114528074044	5
7	20920	1028508.769119257629	4
7	20929	1029320.798868593184	3
7	20938	1029651.548701757633	2
7	20946	1029727.890935056637	1
7	20960	1030066.043851282097	2
7	20969	1030435.1117879323	3
7	20971	1030647.175288578556	2
7	20976	1030753.497503116264	1
7	20989	1031837.110126421071	2
7	21004	1032881.381674869051	3
7	21012	1033183.840726049694	4
7	21015	1033796.907773722689	3
7	21020	1033951.302849248964	2
7	21031	1034296.111580638194	1
7	21036	1034329.085218408385	0
