version 2
run ParkingMeasurement-77-20170108-17:27:44-3821
attr configname ParkingMeasurement
attr datetime 20170108-17:27:44
attr experiment ParkingMeasurement
attr inifile parkingStudy.ini
attr iterationvars ""
attr iterationvars2 $repetition=77
attr measurement ""
attr network controltower.SimNetwork
attr processid 3821
attr repetition 77
attr replication #77
attr resultdir results
attr runnumber 77
attr seedset 77
param SimNetwork.a.parkingLot.parkingDelay exponential(30min)
param SimNetwork.a.runway.landingTime exponential(5min)
param SimNetwork.a.runway.takeoffTime exponential(5min)
param SimNetwork.a.runway.throughputCheckInterval 14.286min
param SimNetwork.wg.interArrivalTime exponential(14.286min)

vector 2  SimNetwork.a.landingQueue  queueLength:vector  ETV
attr source  queueLengthSignal
vector 1  SimNetwork.a.landingQueue  queueTime:vector  ETV
attr source  queueTimeSignal
vector 5  SimNetwork.a.runway  landedThroughput:vector  ETV
attr source  landedThroughputSignal
vector 6  SimNetwork.a.runway  tookoffThroughput:vector  ETV
attr source  tookoffThroughputSignal
vector 7  SimNetwork.a.parkingLot  parkingOccupancy:vector  ETV
attr source  parkingOccupancy
vector 4  SimNetwork.a.takeoffQueue  queueLength:vector  ETV
attr source  queueLengthSignal
vector 3  SimNetwork.a.takeoffQueue  queueTime:vector  ETV
attr source  queueTimeSignal
vector 0  SimNetwork.wg  responseTime:vector  ETV
attr source  responseTimeSignal
0	2114	100960.079625494542	687.04398483411
0	2144	102480.949135343642	7326.7015262293
0	2195	104643.597305863721	6712.7469567796
0	2200	104677.256246777125	4365.3609302191
0	2208	105167.239396395031	7627.3420699241
0	2232	105404.89580113008	7229.0672177443
0	2238	105492.665976629836	6455.691718565
0	2243	105713.017762543871	4948.6003481669
0	2248	106168.895563964462	4118.4466789666
0	2260	107003.236946857658	4443.6046097526
0	2283	108035.572574470442	4971.0108777696
0	2313	108807.792454450102	5252.3031512762
0	2319	108924.817222875392	6842.2832331599
0	2324	109269.939215704475	2280.9855677676
0	2332	109613.995763763154	4329.5763262641
0	2349	109975.696633114278	4974.6714612923
0	2362	110490.69585513322	2177.8278000948
0	2367	110554.665275216329	3834.5302977348
0	2413	112381.694282705817	2901.3822266322
0	2418	112428.046544100935	1309.6716964925
0	2426	112579.700924946672	4645.9926677685
0	2438	113320.846500898556	1842.2377359348
0	2527	117305.805791208221	7570.8744102948
0	2550	118320.893730503509	4870.0278579137
0	2563	118715.161428507269	4783.6247990408
0	2571	118824.59622292911	4848.1334798546
0	2596	119877.501382659795	6556.6891107086
0	2602	120047.619759354419	9019.8053257468
0	2621	121973.424566883481	7889.855811522
0	2636	122214.031734555018	10699.854875815
0	2641	122321.490525272961	6230.7102453905
0	2649	122380.651299631717	7689.4229534452
0	2659	122427.937640936306	8839.8445047915
0	2664	122551.700012746129	5927.5208651995
0	2673	122845.154251223652	5308.4995046559
0	2686	123028.97909157147	3990.6254589673
0	2699	125044.201213759943	2708.6861696589
0	2704	125090.323345138922	4155.9160407221
0	2716	125788.590554725012	4487.1306138901
0	2731	126926.006872419119	8122.5236192593
0	2843	132468.868631138903	6764.6556141003
0	2848	132596.726481747333	5212.226532318
0	2853	132833.142907102784	10088.783905235
0	2859	132956.259720124047	5321.5574332027
0	2867	133189.529775845363	4510.5833557183
0	2872	133472.930123061853	4358.7034985037
0	2883	133639.30997909379	5772.5164150539
0	2909	134853.87049433175	3347.8591964665
0	2914	134941.273440196915	3969.9845522279
0	2922	135297.915997065651	6596.8417451245
0	2927	135380.83720538458	3380.8375397331
0	2933	135652.982352433973	2063.6475093386
0	3048	141290.662514265406	12050.904463116
0	3056	141373.589017495871	7735.0559311105
0	3075	142224.625686675401	4783.2338636863
0	3080	142233.719607938509	4712.7657177134
0	3085	142251.91398722441	5016.7466605788
0	3097	142660.968625443236	4026.4650313488
0	3118	142867.539236198554	4854.4069877523
0	3139	143925.068246262296	5850.1527056546
0	3179	145778.004852306604	6900.2932086738
0	3187	146140.943573164769	8394.0335165681
0	3198	146900.298134568555	7554.3499128307
0	3203	146932.83614906004	4494.6109349063
0	3208	146950.354734492052	5638.8016158586
0	3213	147037.417701552856	5588.8006068001
0	3224	147195.496036738378	4644.723559329
0	3230	147523.273755220622	9179.5033455036
0	3248	148596.228688740325	5295.6822781326
0	3295	150576.023555072007	5351.1885843331
0	3307	151301.120876321503	7759.998525162
0	3312	151328.507796758255	7975.9484046614
0	3323	151630.848620966476	4030.8874159657
0	3342	152303.972807113415	3324.0848788203
0	3353	152401.389866049664	4706.7260412771
0	3395	154219.360054692803	8109.4490847816
0	3404	154833.103140689724	4779.5432342094
0	3432	155368.541538660733	3978.1426164488
0	3437	155401.125630787701	3070.8441310818
0	3445	155620.985581297723	3243.4730663184
0	3455	155685.711067398429	3006.733014362
0	3479	156776.766177680591	2052.9534173938
0	3495	157444.207060213959	9201.0510468751
0	3500	157509.973811476874	2597.8436852526
0	3508	157664.983099265602	4835.5545944817
0	3548	159403.488221649415	7793.6131130607
0	3554	159726.513147185387	3968.3223085674
0	3559	159776.613097706611	4330.3777972599
0	3567	160254.114564992117	3867.7251608946
0	3573	160391.185253236102	2447.0217962796
0	3585	161341.850527397659	3790.5827766266
0	3658	164245.536131011085	3762.9684197646
0	3670	164581.239000692438	3112.558730059
0	3692	165659.788273195926	4107.9336152935
0	3697	165873.895592648297	5327.9464471196
0	3711	166127.93916875923	3607.7427163807
0	3735	166567.601234652122	3482.798907254
0	3740	166578.545943291623	7939.2617177317
0	3751	166742.056316292253	2459.4459593314
0	3765	167778.658917782583	4970.883110245
0	3770	167983.775744783686	3452.7890363202
0	3810	170213.793630377256	3925.5902767596
0	3868	172415.643951420711	6532.78868874
0	3876	172590.311611655112	5931.7283589835
0	3881	172842.422320769757	3588.0168604727
0	3887	173250.975738743277	4884.6991641866
0	3895	173303.145461151269	7239.7749594409
0	3903	173370.677878996523	3576.1561982345
0	3914	173813.200508659692	4104.9180611503
0	3938	175317.401295754223	5267.5501748369
0	4031	179137.916798067715	8855.7207405156
0	4061	180303.126717512705	10126.271054368
0	4098	181865.588137230895	10919.000494422
0	4108	181988.692707260926	5347.710021655
0	4120	183006.069113632296	7217.9275587378
0	4134	183902.749207336373	6242.6408785159
0	4142	184194.3210354287	9720.0654571548
0	4148	184524.797835874147	11008.138538313
0	4154	185286.84038432716	8273.631058963
0	4159	185338.063013062087	10618.321698848
0	4164	185899.744484975735	7959.5552198355
0	4169	185971.364363397663	7930.0819931862
0	4182	187316.448086987461	7168.2827362552
0	4207	188186.266748265848	8110.4737733766
0	4221	189048.864876447776	13072.842114473
0	4227	189493.971619642435	8964.4681515615
0	4232	189864.665304102676	10806.55254767
0	4237	189967.407651817043	8473.5557238705
0	4243	190417.624946391905	7920.2644488325
0	4248	190834.017614399135	4494.0354398882
0	4253	190942.735111079876	3627.2999597755
0	4272	193222.908660607632	5326.8539887367
0	4304	197698.983373845838	6275.3624467728
0	4309	197872.568592681432	2048.7483126951
0	4342	200409.701330847108	1568.7017581237
0	4364	200966.323046020175	4561.8360599545
0	4369	201008.76595310062	1029.8589047814
0	4379	202376.469891897298	2736.4000100551
0	4416	204092.383200928687	3556.9409372633
0	4459	206178.285884901919	2885.9859211959
0	4472	206570.569724146575	4022.813665047
0	4478	206699.89273854139	2518.3942383125
0	4486	207060.20699809889	4405.0996284762
0	4502	207267.925880526276	4433.4990962312
0	4531	209255.511141502108	3624.2735560728
0	4575	210172.496710840102	5655.3481561925
0	4586	210438.92080808702	3030.6745682221
0	4601	211098.457985950492	3834.4760817111
0	4619	211365.845681651078	2059.8888693483
0	4624	211448.57027253681	4365.0372487394
0	4633	211729.347136908862	2280.980989722
0	4638	212221.652888294705	2800.2980946979
0	4650	213163.823251711306	6263.0139709397
0	4655	213318.023961451186	2634.6776122749
0	4678	214204.184370827861	3297.8148234352
0	4699	215246.868023328915	5933.0490039116
0	4714	215805.071413936224	2474.7630117323
0	4726	216546.035151399758	2677.2086471798
0	4731	216768.272488658095	1750.6695949095
0	4785	221663.402546510363	984.46887217259
0	4793	221975.999267911589	4623.7165030272
0	4802	222578.228302942656	7433.4317052966
0	4815	223811.385953115342	5382.3801633545
0	4837	224902.035074442517	4259.8676157631
0	4847	226312.345014133381	5536.3059885839
0	4855	226652.329668925355	2920.6438579443
0	4881	228601.220665806253	1540.9795625927
0	4899	230478.878223633958	6311.7347521972
0	4943	232661.845926359332	5310.9787783279
0	4964	233098.689927599238	2347.1747239187
0	4975	233368.545667385892	3293.8262316961
0	4998	234332.008941603134	1636.8183600144
0	5024	235732.765715494291	4585.505915875
0	5035	236151.81484584768	4730.4100827818
0	5040	236420.50220645499	4573.5327171781
0	5049	236679.422221268278	3296.0757278294
0	5059	236926.485700792619	3964.3191367898
0	5095	240296.209857219005	3635.4178462335
0	5103	240440.450436400192	6114.6663253254
0	5119	241844.824576828359	4372.3666378897
0	5135	242541.997164510411	8044.1363684831
0	5140	242553.473595909552	3468.1776354912
0	5146	242867.050093300298	3349.703411161
0	5188	244420.238104395482	3280.7835530117
0	5217	246464.502730244663	3594.6083167033
0	5279	249758.973929105753	4911.4572256218
0	5305	251638.772759540737	8062.6784625621
0	5321	251940.496416044972	7880.0519271869
0	5326	251940.965984612073	6689.9460425486
0	5332	252044.786184496308	8532.653918093
0	5340	252433.098835000977	5176.242296072
0	5427	255029.990088171204	8827.2920788377
0	5444	255489.631726036775	5842.9171973082
0	5449	255528.162595240359	5769.3559151678
0	5454	255555.7851733728	8561.8853279908
0	5462	256149.598270703165	7494.0938849616
0	5467	256268.831018047613	3692.0195039029
0	5473	256298.012046330966	3226.3787763677
0	5478	256316.617395400604	3318.9971044345
0	5483	256319.073898790298	4236.8728724622
0	5491	256895.066478217869	2849.0568485903
0	5501	257119.978658682466	3018.8863612311
0	5513	257702.250030669251	6413.5177581407
0	5530	258470.116848767026	3528.3412596791
0	5535	258507.313819796088	5745.580198368
0	5540	258561.75401354902	4162.1008893574
0	5559	260115.521554061987	3738.6792873014
0	5593	261695.624839554822	2688.2353242816
0	5609	262564.303153362431	3052.4945576236
0	5630	263636.69782843642	3526.0898289113
0	5673	264797.515640251691	3563.8365906068
0	5679	265270.624835821072	2556.0570681205
0	5687	265502.650124176064	3922.1340115321
0	5713	266684.63728103231	2788.1611664103
0	5730	267248.011040493127	10045.509527435
0	5749	268162.046767045219	5178.3845352554
0	5754	268212.662984022992	2743.4224946619
0	5763	268521.359235624267	5390.2458015454
0	5768	268657.125342526502	1858.5243599435
0	5801	269569.89264675846	2382.4585065688
0	5818	270148.475684045973	4118.7796732716
0	5833	271349.862119898917	2380.0128665632
0	5843	271576.24249166567	2820.3685673025
0	5876	272384.367406427137	383.03972985603
0	5884	272573.95240710441	8607.0145914072
0	5902	273406.891489472584	2086.1205778772
0	5913	273593.114685158142	1921.7802798884
0	5921	273816.5122007571	5121.095885855
0	5935	274426.420775647788	4721.0125620861
0	5943	274844.77119024751	2837.690408537
0	5973	276940.4945216162	3590.7323144636
0	5989	277400.856294076628	1975.342669477
0	5997	277495.161234662724	3706.6525210706
0	6102	281300.927350998078	3820.839751166
0	6112	281626.101776573653	3170.5091446896
0	6127	282581.227822116277	6371.2152974859
0	6138	282890.450404095751	3830.0824892708
0	6146	283368.771338558147	5518.0423849034
0	6159	283552.42665315159	4696.283563394
0	6164	283645.939953927272	3266.3909271453
0	6173	283925.250497660361	3143.49187402
0	6199	284758.257701768798	4221.4042033977
0	6204	284784.320281901436	8173.5834743034
0	6209	284907.881655392105	3778.1966034375
0	6214	285107.631995877003	5134.048368987
0	6232	286133.974262706095	8134.6499129497
0	6276	287514.16889908763	5207.2268654085
0	6287	287804.157221069249	4087.3885905083
0	6309	288662.517757222384	5304.1822384156
0	6314	288690.669151703227	2173.491953619
0	6320	289008.086270482905	3278.2524555688
0	6353	291943.406818771055	6684.629852814
0	6358	292014.555179548096	4279.4419610915
0	6363	292201.962986436566	6928.3895910844
0	6403	293945.6339279591	5632.4670389625
0	6412	294394.601439035135	4969.0780842599
0	6422	294590.048175119517	2196.0990429308
0	6438	295824.197745838432	3518.4993482747
0	6455	296867.874103823046	5631.6396445282
0	6460	296910.569970954258	10054.501188797
0	6465	296985.120473185535	4367.6614669827
0	6493	300447.908561657326	1784.3513633015
0	6501	300546.758794796108	5748.0320170477
0	6513	301160.719284407006	7036.458262897
0	6579	303001.588694940632	2967.9228185012
0	6584	303239.31042668831	1201.7014645238
0	6593	303762.563356329928	2912.7323816906
0	6601	304044.906950407874	2802.4120497624
0	6613	304958.984708797482	2506.2900800376
0	6618	304995.241871944499	3105.4392704022
0	6646	308021.672278647181	5317.1321762916
0	6680	310317.041391616208	7990.3271863471
0	6738	312205.32505072185	4514.5866096232
0	6746	312384.075351245854	4663.1741992722
0	6754	312758.36858242947	2825.2577282682
0	6765	313097.214311333327	3711.5124635303
0	6770	313340.479104898161	3180.8649970736
0	6782	313958.908663965433	3039.8165143231
0	6790	314148.153436122272	4270.1691863488
0	6810	315800.38424852741	4117.8256624167
0	6815	315943.770586130577	5690.5376103458
0	6833	317239.144104453363	4722.1029391111
0	6842	318148.773219450475	3885.206106733
0	6852	320377.872022860007	6247.7754770917
0	6890	324392.668928983784	7770.6663957051
0	6905	324807.237615141237	2579.1200322542
0	6926	326107.419529672793	2366.6826326787
0	6965	328073.036520730352	2703.4752179859
0	6977	328428.056765685834	1646.2815155331
0	6990	328627.434207974854	1425.1492835722
0	7039	330608.944961910092	4587.9519350194
0	7107	333795.351517475193	10872.028074941
0	7112	334005.333592773303	5672.6646697551
0	7117	334259.950379863455	7562.8164284932
0	7129	335018.580549037443	5578.8508715722
0	7144	335181.441360536226	5355.6730237611
0	7157	335487.096188042463	11321.823324129
0	7162	335643.950441947485	5161.8636510152
0	7174	336164.444302193098	5062.2726324788
0	7191	337088.485405298067	5821.1022619436
0	7196	337206.13563417122	6663.976979655
0	7201	337650.267181422351	5719.6151029943
0	7206	337693.271200612655	7889.6431073792
0	7212	338166.172861102873	6764.9816067984
0	7223	338460.632699942761	3421.5560100045
0	7262	340236.504738263229	8690.8738710488
0	7268	340675.058084419728	2043.1886734533
0	7276	340827.215755083686	4810.8566757974
0	7286	342354.245677158122	4154.4507362902
0	7295	342982.55571981909	4229.2106591923
0	7370	347666.479648971264	8651.3643002138
0	7379	348090.093677770681	4403.7401917687
0	7393	349457.61539624871	5190.8046465561
0	7401	349471.222263458747	3830.3615183631
0	7414	349698.622444775037	1763.0438861979
0	7423	349867.930438065617	6144.4598476242
0	7431	350205.848233958205	5577.9242905555
0	7442	350463.168994861321	4196.785544951
0	7447	350552.691289809029	4761.6286169062
0	7486	353656.484198870843	4196.1947177172
0	7500	354017.112401653909	3462.7175762669
0	7523	355000.289108290789	4312.7732977726
0	7545	355760.155747371505	3229.2946630097
0	7558	356318.33977534109	1501.1379280538
0	7576	357296.665652928771	3249.4271580565
0	7594	357422.787095354954	2588.6532667769
0	7638	360000.783390089901	4363.8307860761
0	7653	360742.539909086684	3581.8908977956
0	7688	361635.440974102759	8314.5507887147
0	7707	362646.41702969714	5644.9474428829
0	7790	365520.661268133057	8133.7597922351
0	7795	365619.494700594888	8137.3038266613
0	7810	366053.986690080951	7647.4630909734
0	7815	366217.87511477791	5817.7834028329
0	7820	366652.18204635733	6471.7085622835
0	7838	367207.906732264913	6575.9360994648
0	7846	367645.037356088861	5276.772635621
0	7857	368014.747774698034	4734.3858198999
0	7862	368418.206750658754	5837.7478701144
0	7867	368524.00787091519	6877.55256056
0	7879	368818.570053365212	4419.227752793
0	7898	369908.103847586431	6439.0961849887
0	7903	369947.844160313153	5891.4467239995
0	7911	370192.655347330368	8045.6552860921
0	7920	370882.564872220215	9702.2535179781
0	7934	371628.639275168746	6979.451133583
0	7948	372016.692697895117	4719.8843990765
0	7953	372245.177929146727	3700.0157530113
0	7965	373592.672001509888	4323.8652551035
0	7979	374143.853247675019	3586.635874282
0	7996	374590.168443175943	1015.2543937953
0	8014	376758.963945300206	5366.589841156
0	8030	377110.927042981807	1523.5439759277
0	8042	377677.168526669315	3315.4460186627
0	8056	378126.039549291874	1363.6547840355
0	8082	380239.264352145612	2698.5018544228
0	8091	381152.270160225261	1769.3147279581
0	8108	381885.865321871429	2493.6520694815
0	8127	384234.214976780929	2881.4961934237
0	8154	386681.494170835637	3745.4596553616
0	8177	390238.942240349472	4910.4300076544
0	8199	391403.290623490183	2820.6853882013
0	8219	392413.84215439034	5606.0391017237
0	8277	394774.640290944397	3127.5660194116
0	8294	395517.265198587223	5181.420322802
0	8314	396606.561070000265	11555.588881426
0	8338	397218.06690056339	5091.3023421139
0	8344	397723.80844574997	4829.0346391699
0	8361	398456.772556818157	5427.8885977577
0	8387	400361.478058079275	6976.2542717099
0	8401	400686.840669202589	5243.6623195544
0	8411	400774.232903885215	6520.6058128987
0	8422	401001.487151986064	4773.9013181475
0	8433	401327.721818064332	5311.5263029499
0	8442	402266.70936155475	5808.2048531503
0	8450	402664.715746506276	4672.5770791761
0	8455	402807.667717710275	4519.1715425622
0	8461	403148.715847756413	2724.2549543961
0	8470	404086.808081029127	6336.6079176343
0	8488	405580.383825729998	4612.0149600933
0	8514	407920.823380896515	1584.4737539464
0	8532	408871.05015860957	1704.785449021
0	8549	409808.516969071835	1754.2423032525
0	8585	411032.961079896235	6807.0394180492
0	8613	412183.911213753501	1722.1299813628
0	8622	412647.878291409402	3760.4121302246
0	8633	413197.277192908441	2769.7302246123
0	8641	413750.192065109521	2683.2218418816
0	8650	414265.830179660462	4080.481966869
0	8659	415323.366909985459	4316.3663453062
0	8776	420371.26027256557	4786.3210938377
0	8781	420552.571604206812	4314.958177634
0	8786	420621.000136571255	8313.782686665
0	8791	420812.263958949664	4124.7997287113
0	8797	421127.522304859827	3293.7394296938
0	8805	421177.862939108151	2123.8314401992
0	8810	421592.936596152056	2431.6082160474
0	8825	422574.541774545923	5483.2518199634
0	8831	422616.736709647193	6322.5138885154
0	8839	422642.801511756735	3051.6853425408
0	8852	423071.928650199995	4086.8190655161
0	8860	423320.638566389636	3566.5657905078
0	8906	425433.916326183713	2809.8306351113
0	8911	425485.010170698598	1124.9498068165
0	8940	427154.623005213229	2732.5995962493
0	8945	427324.149309390127	1560.7740742911
0	8993	428810.559282708965	2549.8609409397
0	8998	428836.125162552	5430.4356427563
0	9006	428881.83438312735	1503.5811356141
0	9011	429055.124664112902	1701.6088002722
0	9040	430310.320341383311	2243.8275918983
0	9052	431225.011404074264	2089.9607765883
0	9065	431536.319535219297	7480.826729731
0	9087	432373.203749217418	4558.8419433989
0	9099	433286.213428115527	1889.6052622016
0	9112	433577.412602032269	1712.6019896477
0	9150	435467.117496637287	5026.510848955
0	9158	435540.550361248547	5697.234777776
0	9163	435738.935853932802	1748.7548552062
0	9184	437685.482439692289	4890.1117094421
0	9207	438887.68231913673	4458.8721818903
0	9230	439804.828627528956	2988.1215644703
0	9243	440250.776569245875	5605.6446639631
0	9257	440706.439982841811	3184.7421746822
0	9265	441230.60705638731	3229.3165318858
0	9315	444010.945041500473	4252.098733214
0	9320	444028.830704721815	3965.8662025389
0	9325	444384.702363528618	5118.2767071306
0	9342	445123.907097420196	3376.0139548327
0	9356	445500.828794236731	3053.631947286
0	9378	446492.271089461563	4457.648054492
0	9383	446565.802825904941	4794.220891329
0	9418	448357.386700550974	763.52416452718
0	9429	448716.802027034952	1169.4465155607
0	9434	449011.067731880284	4428.7310506463
0	9451	449547.626899089733	4187.6382938076
0	9512	452623.791679190294	4829.7948940418
0	9531	453015.011617119101	2502.7775580893
0	9540	453547.401051021901	3091.1738257006
0	9545	453636.917094804276	4224.459618961
0	9553	453778.127980741755	8240.8556044132
0	9558	453823.938238082949	3091.2279931793
0	9563	453842.255273475656	2492.4074852081
0	9574	454176.355656039344	2547.4766269972
0	9609	456444.237761116265	3952.5333573074
0	9620	456875.500144543791	2946.5600221214
0	9644	457564.18258030443	3399.5551667795
0	9653	458172.58826205339	869.57929625863
0	9673	458890.478813283465	1552.2854441184
0	9678	459071.355649233669	3715.0293718453
0	9779	464522.170105244377	3793.1733722997
0	9821	465557.483584161633	4513.3812394723
0	9836	466961.565023218408	6259.7723896316
0	9848	467735.19476658939	6202.2076212868
0	9862	468224.294918236269	6620.3183853299
0	9870	468355.916426903883	12059.099932126
0	9875	468450.009043434265	5001.2738533085
0	9887	469314.744158148457	4932.5544852186
0	9902	470771.544538922339	5626.1002958424
0	9907	471259.504754610822	8786.9219557613
0	9912	471285.887415592836	9747.5465726668
0	9918	471918.368424334968	13612.412051702
0	9926	472226.2551701247	7633.7150408876
0	9940	472807.109827445866	7520.3162245602
0	9959	473535.464569661678	5922.0428498691
0	9967	473814.067810732181	1687.5743457438
0	9984	474450.061234322707	1698.1479136813
0	10025	475474.5579969003	929.76741619342
0	10052	477010.078634482152	2284.3396366252
0	10075	478298.21207739571	3242.7630842906
0	10086	478440.915808559836	2877.1901168201
0	10109	479853.546568187954	10718.962624993
0	10123	480535.625423131709	6059.617372911
0	10134	480830.086226756806	4744.1898705002
0	10140	481106.438758087326	4324.8252365329
0	10145	481166.215763114919	8086.8473252497
0	10153	481635.409064487979	7229.6857000941
0	10174	482791.160764737766	4481.4968523114
0	10194	483257.114728730907	22443.946259827
0	10203	483872.481759960607	2596.767367979
0	10219	485161.092674135617	5310.607052234
0	10232	485546.315990015367	3234.9029014008
0	10237	485569.440574597379	3472.5773300371
0	10262	488086.557555712854	3499.3170244351
0	10272	488449.272993666724	6078.1883894929
0	10281	489073.504162975997	3041.4986174167
0	10298	489855.131546758155	2183.627291117
0	10350	493368.310661346108	3045.8085633128
0	10396	494723.630351650865	3137.2666503988
0	10404	494907.516701115227	3407.0259436431
0	10409	495036.991138285885	2999.9268351609
0	10418	495597.172261286795	6503.8312576751
0	10423	495699.967112008625	1879.5003080293
0	10434	495814.271766518213	1563.190712199
0	10487	497874.899099875677	5357.7062485791
0	10492	497974.819360069892	3659.5538890104
0	10498	498057.49002917414	2343.2042873018
0	10503	498175.482361740366	2434.2618588036
0	10511	498531.602865587337	2383.669773667
0	10529	499876.89866692562	3522.1906059817
0	10542	500223.656461995821	3398.6074204196
0	10552	501474.236880746131	2946.0727140822
0	10595	504203.686827552165	1832.0915713017
0	10612	505370.633167507483	3321.5179391302
0	10641	506434.74586667128	2149.9766916927
0	10668	507398.443447234756	5334.019096914
0	10677	508046.155491103522	5620.9659364516
0	10743	510424.434262184793	10640.80460492
0	10757	511583.192710144777	6196.9853587785
0	10762	511715.277343387876	6028.7162797051
0	10768	512036.159228435723	3587.0787711712
0	10782	512480.757256154869	4146.7986245766
0	10801	513029.310290763936	4278.1391708404
0	10806	513227.9793413047	5471.6807176891
0	10814	513360.202643712304	3944.2866081431
0	10831	513870.25634823135	8005.65388903
0	10845	514462.660942537426	8294.0729686023
0	10854	515165.465307431096	2972.7387647489
0	10865	515340.200941002282	4917.3469284801
0	10880	515762.611999286392	2503.0588445253
0	10905	516801.080884825614	4616.6851395024
0	10914	516893.391031777048	3071.1650793599
0	10941	518726.880305173213	2039.2674347725
0	10966	519593.723698661198	4396.4433869188
0	11006	521222.341282013223	5388.8331803864
0	11016	521440.752515706841	6265.1551391782
0	11027	521715.960375774125	2179.8130556534
0	11037	521749.644512745318	2429.1416939623
0	11045	521897.970401018928	4009.2028515531
0	11070	522698.21657118401	5404.6305148833
0	11082	522924.673958105775	2542.6330077756
0	11100	523601.197585269888	5625.6336993077
0	11105	523611.386448058192	1858.0277056321
0	11133	525734.087888388758	3740.961741703
0	11188	527536.568403295478	7351.7946189652
0	11203	528075.947964326783	5212.9493937105
0	11208	528171.799095006336	6555.3345842923
0	11213	528399.814986317679	5626.8437742438
0	11221	528687.918364818391	5035.7207586977
0	11231	529738.749537099837	4463.5389884884
0	11276	532188.825998643849	5630.6653589431
0	11297	532541.374215209941	6707.847560733
0	11313	533680.674796745582	7965.954985463
0	11321	533777.052841731735	7239.8640079792
0	11326	533818.472930202544	6942.0376325362
0	11338	534745.62386982639	4287.4806987712
0	11357	535177.842657776755	5432.3246929926
0	11362	535256.871774589216	4626.5108554852
0	11367	535311.429816625603	6008.8286028629
0	11399	536956.444820112267	4525.3525241284
0	11404	537088.999713320127	2333.7890063461
0	11409	537110.312135930924	993.95724896173
0	11418	537543.008228906172	3462.9432555765
0	11429	538010.693835185579	5556.8000846886
0	11476	541551.143246884218	3165.922314544
0	11481	541720.443819127234	3975.5803281044
0	11490	542164.413782455978	5982.7646632242
0	11530	544879.32025114229	4789.297942788
0	11539	545159.043248655074	2130.1293632095
0	11553	545649.241297369855	2586.028037042
0	11568	546544.621704190202	4390.221279519
0	11601	548015.538612072754	7894.1760504201
0	11609	548116.804656516093	2356.4136624766
0	11614	548241.477812733046	2559.150233397
0	11641	550953.256628923982	3885.4091873885
0	11650	551463.091672624115	8216.3480135989
0	11659	552572.546468796012	6669.975821678
0	11685	554526.232295531157	5252.1316820307
0	11698	555573.819245371534	5145.2962267367
0	11722	557732.172308719168	4993.3460154711
0	11767	559991.153210539945	7140.1306805629
0	11775	560239.201788229277	2553.5963282092
0	11780	560289.055913059672	1381.3889927329
0	11797	561257.139008390026	5751.5815136471
0	11813	561438.217156836794	3270.8423545707
0	11834	562583.641848496063	1291.0796813959
0	11868	564025.567838598807	6766.6901158806
0	11879	564508.268072313925	2825.6969292703
0	11888	565493.17565120872	6561.3578932617
0	11893	565643.358709879422	3127.111883123
0	11898	565660.028552939398	3011.478701247
0	11999	569937.40023610888	3502.852370223
0	12018	570540.381987705739	6832.0652018832
0	12026	570787.893287793105	3343.9338335069
0	12035	571498.117252421008	11158.280872222
0	12041	571769.105233909779	4236.7376886209
0	12046	572178.227613207838	5254.1229375001
0	12051	572338.201819315314	4849.1568823713
0	12057	572608.563099024296	5939.0605500137
0	12062	573281.125702101484	6777.0446553837
0	12068	573577.75198222773	3809.6328079527
0	12076	573772.87470232182	5980.8961775018
0	12094	575581.302530686604	5687.0523325523
0	12111	576046.654930873305	1403.0776663592
0	12137	578337.399543976206	2653.5727463058
0	12168	581417.492451045807	5291.2252398196
0	12173	581429.443121640375	2160.2674280509
0	12203	583844.958390495354	5841.0025830044
0	12208	583938.394652446413	1544.2126399754
0	12216	584130.783609898587	4311.7246243573
0	12323	588741.82610710922	4479.3955126226
0	12347	589499.188573305556	3901.1775925894
0	12371	590149.53590796874	4903.1190802763
0	12380	590590.802948535082	5172.5308016318
0	12388	590629.153836476053	4722.2823074591
0	12393	591014.094612312873	4342.1757269156
0	12401	591288.871576571876	5244.6603350406
0	12410	591462.511390389005	6046.7087125542
0	12418	591736.060346964422	3574.0963149175
0	12426	592196.951258231249	5135.5070015238
0	12441	592793.083292109629	3361.6042273046
0	12463	594386.190020008933	9058.1768069133
0	12471	594573.377804333296	12025.819176867
0	12493	594987.245424935406	6101.5927496309
0	12527	596365.240953091308	6701.0340837626
0	12538	596610.337819086968	4250.6570972064
0	12543	596641.551488882487	4100.5864518864
0	12551	597031.972936434957	1032.2969563258
0	12576	598036.107368212751	2998.4790083641
0	12585	598425.96347834936	2242.0666885963
0	12593	599104.389189032639	6449.4613094441
0	12608	599677.182667846541	2483.7337660825
0	12622	600214.693379310997	5634.0576282465
0	12696	602980.996377245636	8557.970997902
0	12710	603584.018605158155	6231.8093559516
0	12718	603980.630369622956	3699.4386746246
0	12744	605284.848699181712	5087.9827746463
0	12749	605470.883564168889	5122.9240702235
0	12757	605510.673750423168	5975.5781457919
0	12762	605738.788397965313	4251.1804608996
0	12767	605827.256712623464	4536.9113392563
0	12772	605986.851590591923	5051.4812328305
0	12778	606198.94008401398	3504.6652363896
0	12789	608930.215175112195	5290.7311596084
0	12816	611447.056338797713	2156.5355187573
0	12851	613761.134235502402	9412.2116975358
0	12867	614461.732375677347	1414.9315131573
0	12885	615680.972150965939	1849.3896853059
0	12893	615936.77148940351	2731.7450183057
0	12905	616323.948626213918	3931.8754328321
0	12910	616332.836507846711	5343.8559643901
0	12961	619118.552818202854	1064.3418797861
0	12969	619365.101765941764	4480.9954553389
0	12984	620155.677264543634	2013.0648310955
0	12989	620290.008750492367	2089.5089176354
0	12994	620385.351338625815	2502.2631146079
0	13036	623642.632913636493	1438.0501745891
0	13046	623818.214186533561	3024.1960694594
0	13063	624380.629609513619	890.7579875804
0	13084	626063.351654323136	3704.217824064
0	13089	626530.565327126188	2530.521676336
0	13116	628456.038688269118	9923.6824184165
0	13127	628697.102736404193	4137.175222502
0	13145	630436.326307727061	2705.9102457843
0	13159	631139.445674083971	3444.4265412038
0	13171	631965.937151880173	3293.5946261882
0	13192	632519.217336124768	2236.7793728874
0	13201	632834.853951888957	1031.9886748232
0	13239	635835.041867502851	1693.0332639586
0	13248	636447.476344836708	4447.847342734
0	13271	638560.369463165993	3453.8914459717
0	13281	639494.291854812078	4959.0103527081
0	13315	641236.7681215742	3530.4769926712
0	13327	642260.111700051536	1443.3609213709
0	13335	642452.47401693887	2341.0243013123
0	13342	643953.900823722242	7511.9111712436
0	13383	646783.846206684843	5760.8691762378
0	13413	647448.073726635106	2917.2701002128
0	13421	647549.616885313325	1105.3591084881
0	13435	648101.142262520947	2780.5319367088
0	13451	648834.82546381367	1291.9749610554
0	13470	649804.912128726831	2941.6072306212
0	13483	650038.265032656217	5285.7576981935
0	13493	650139.670325556328	3367.074085121
0	13534	651401.941149182907	1438.2977381268
0	13546	651816.6013388899	1232.4866708487
0	13560	652627.216460379907	3368.8309942806
0	13568	652873.91070558498	2153.7791699185
0	13576	653151.903825031466	2301.1300856699
0	13617	655402.555134994792	4193.1042728862
0	13640	656719.885729774955	3451.5145448772
0	13653	656809.545865338145	1488.670940102
0	13662	658155.631571564545	3650.1351874827
0	13671	658973.940971718119	3238.5699820386
0	13724	661738.492082989754	2274.0021059074
0	13768	662988.968614606942	11524.174987143
0	13773	663028.394745618056	14885.388841232
0	13778	663055.521439929388	2186.7769153221
0	13783	663092.03386568186	3665.7301217076
0	13788	663138.527163573839	8295.6130397285
0	13808	663939.853687819123	2304.1983276093
0	13814	664472.931064913758	2832.598058996
0	13822	664807.637324635613	8386.932467084
0	13839	665233.410782897287	3421.7135230881
0	13847	665800.418219183314	3277.439973562
0	13862	666666.434957870298	3144.065443425
0	13882	667804.057476857053	7050.0509316199
0	13890	668014.93432176748	3098.2848013711
0	13899	668728.377947986863	2205.0042941232
0	13934	671192.224462460904	1585.6629798914
0	13951	672856.050284889667	6328.8151975587
0	13960	673239.287659077682	3898.8587654332
0	13991	677020.568843959927	2922.722285036
0	14005	677414.944999740189	2642.5929927456
0	14013	677601.291649148302	6231.7077154518
0	14072	679967.963441763388	916.20569780743
0	14083	680525.103582687004	3858.519823483
0	14097	680953.174566722695	2548.0481225023
0	14117	681817.496848457693	3758.3053928148
0	14147	682592.122212538557	3499.9322431452
0	14161	683073.734095390936	2779.1284912504
0	14169	683143.421885222757	1228.3180075082
0	14175	683851.612532365869	2709.539525282
0	14180	683861.485445530729	2075.8673968129
0	14198	685509.27299123271	6098.0004299859
0	14222	686880.653152042548	16429.365864896
0	14237	687491.246220128896	9062.1452246467
0	14252	687938.71800768503	5983.9909462286
0	14257	688203.129691884931	4056.6810524076
0	14283	689534.415335585184	3983.8724839656
0	14294	689995.86997958676	3083.6954180037
0	14303	690722.863007673873	3720.0063593068
0	14317	691053.611580281006	2291.3111436065
0	14346	693153.290521070973	4295.439118679
0	14355	693755.920948294873	3248.0905651622
0	14360	693785.082908037315	2137.1597727767
0	14428	697237.789546775433	1502.9641159286
0	14436	697659.783447510999	1639.3251489085
0	14454	698405.671284025851	1766.7577055338
0	14494	700650.018924438856	5153.1354564534
0	14499	700791.862265767421	6766.4152364726
0	14510	701100.42456225855	4314.0699556277
0	14597	705287.836011431232	6886.0046369403
0	14609	705882.176522778919	14117.965265788
0	14619	706194.432974144516	7651.8215638555
0	14625	706482.920723293021	7284.8086668344
0	14631	707157.655717340096	10249.164205383
0	14639	707613.026242325789	5313.7529071416
0	14644	707636.785102852116	4560.9515435782
0	14649	707729.446969358895	6110.348091322
0	14657	707953.025496334337	6517.6598270408
0	14683	709291.118909319082	5628.5540997537
0	14688	709534.156608652056	8486.686361577
0	14693	709703.993002522739	3963.8138744689
0	14699	709739.329984726863	10740.064953511
0	14719	711082.066428262749	3183.2711545991
0	14725	711591.611525171845	3635.9320367086
0	14788	714588.778978960431	4008.749003411
0	14810	715383.749629059351	2594.9048081914
0	14818	715708.446232667866	2698.7124435066
0	14832	716012.336749770144	11709.814020255
0	14840	716129.905367248334	3070.4320566653
0	14846	716936.584551490809	2497.8129983311
0	14854	717188.170520596665	4700.3098570805
0	14863	717690.13431884553	5389.0739565839
0	14992	725994.171301117558	11496.769698652
0	14998	726252.963981116224	8794.6230129811
0	15006	726429.447503130272	10813.511390348
0	15016	726545.298846053708	8549.3404121473
0	15021	726610.752864223674	8333.7789282621
0	15033	727553.643802545157	8410.3936103598
0	15039	727810.601243590126	4742.3148390874
0	15044	727853.767081376868	9468.3404475134
0	15049	727992.042149747017	4864.3641878713
0	15054	728209.391334083678	9985.729445551
0	15059	728300.634289676589	4460.9486542828
0	15068	729071.565412247846	5167.488137091
0	15081	729182.701389574466	11177.962798711
0	15107	730692.934426447963	2370.0283476171
0	15119	731295.338527658522	1126.6527755639
0	15132	731474.014268597506	1016.7548793508
0	15170	734279.02879671127	1184.8669292852
0	15195	736403.340075151867	5558.3747240056
0	15237	738430.183334836278	5178.5473596823
0	15251	738748.900493521103	5042.5552124496
0	15297	741288.173295389953	14927.931683819
0	15302	741321.121168951776	7156.8756848547
0	15311	741514.094217355896	5460.609984243
0	15333	742447.115684690576	3928.0144867703
0	15338	742735.691671258046	6934.6909213166
0	15343	742769.256078618721	3307.7037278499
0	15355	743386.171121043189	4673.8315008359
0	15369	744741.12603997519	7589.2129509365
0	15381	745272.896629499983	5255.43089617
0	15392	745966.707737259744	8903.0755357262
0	15397	746084.219325824935	4734.1788792393
0	15430	747069.860471731926	5499.5206899085
0	15445	747453.06807424022	2609.2966839476
0	15490	749166.704596244542	2822.9491564364
0	15498	749444.375214904137	6225.1883407974
0	15503	749602.163921520195	3451.0697242128
0	15515	750319.682798380989	3780.6474568021
0	15534	751408.816093888947	3969.7082773486
0	15556	753000.176440061303	5011.7552636995
0	15694	759542.478657904079	9837.3699319337
0	15699	759991.668811840262	11699.844270722
0	15707	760145.99664163202	12553.50012048
0	15712	760298.86286017661	10058.048543787
0	15718	760467.291819023402	7404.4728934125
0	15723	760739.227964314212	7987.7305355791
0	15728	760996.189339216661	7003.2159101857
0	15734	761634.859922859622	7417.4722974292
0	15743	762106.003749719771	8380.4741861229
0	15756	762767.907490839032	10202.336763905
0	15765	762884.397919381495	8412.0667906617
0	15770	763080.837852420277	5726.5521971581
0	15778	763222.086578967133	7409.5946902515
0	15783	763541.480005791851	7093.8061430392
0	15789	763897.177563594247	5997.7338108848
0	15794	764218.046313412822	6649.3850273068
0	15803	765086.205336281771	10168.761947703
0	15831	768855.290122648547	1600.1415129181
0	15872	772414.646164786149	5151.7684150163
0	15902	773424.020463249161	11557.835979348
0	15925	773985.575001748011	3913.4326532893
0	15935	774875.679066462251	2483.4432698843
0	15980	776452.031883734722	5950.103905734
0	15995	777178.550515772157	3775.9686971575
0	16009	777785.391872327452	4522.7878262029
0	16019	777865.124820831313	5919.5420167243
0	16024	778066.044242116365	2883.8408602712
0	16029	778146.350321914944	4462.8451254096
0	16035	778405.952558072894	6321.7408980228
0	16043	778446.071091167215	2647.5427904498
0	16051	778917.838427649294	3507.1668640937
0	16072	780651.839632611302	3799.6255180557
0	16163	784577.603235690035	3680.4828767853
0	16186	785049.956578334696	7472.8759268064
0	16202	785183.97891477318	4979.6195842155
0	16210	785602.316987750728	3425.4920735558
0	16215	785924.098556319897	3978.2713539546
0	16243	787621.284404796517	5353.1648066389
0	16274	788291.149315633095	5522.5548993243
0	16312	790603.116585591983	8702.9465862371
0	16379	793630.452690355237	13087.296534807
0	16391	793759.010613479023	10112.921078001
0	16424	795288.28468047827	11729.74945802
0	16438	796210.571441806112	10086.012275007
0	16450	796930.596529335321	10724.169496586
0	16462	797487.796805286596	12835.945349179
0	16493	799229.621052995515	12283.081489423
0	16498	799581.679037583835	14820.460772331
0	16504	800141.02892354403	11748.551300497
0	16512	800234.728875918808	12871.027891976
0	16524	800907.053968613003	12129.641680304
0	16534	801406.422103048392	11440.354580137
0	16544	802723.287498107927	12829.394376135
0	16558	803364.680463559706	16994.377520753
0	16563	803515.101773765288	11390.448482842
0	16568	803529.42472496089	9807.802611154
0	16573	803575.739410603532	9836.4224679716
0	16582	804337.155068313612	10515.836190495
0	16615	805473.568958577099	16049.507346305
0	16623	805492.732508528948	15278.107338
0	16636	805713.592099799567	10456.300456501
0	16642	805826.292352702709	8513.0906840389
0	16653	806367.945193174655	8537.2902592558
0	16667	807078.059187229983	8902.2052235023
0	16672	807135.415888539511	6427.9860101101
0	16681	807965.213933440896	5879.2962521259
0	16700	808852.416374566272	4179.7239885898
0	16705	808893.643912069056	4633.3325555439
0	16717	809343.816743883784	4975.8411501809
0	16722	809475.829414337098	2247.9380048179
0	16727	809579.403522507533	3323.1639184343
0	16745	811183.754612991822	3146.8341561378
0	16765	812440.790755870565	6955.5532613053
0	16789	815002.099499952306	3162.6205870577
0	16802	816191.246424101069	6094.5388930013
0	16840	817705.085828635038	4953.1494718599
0	16884	819731.859005914556	3881.5268738587
0	16899	820573.434114273544	8176.0675740791
0	16930	822646.721874099609	6334.2102042028
0	16935	822831.196100431281	6053.7670768979
0	16950	823164.94785042735	5262.8944781726
0	16969	824101.150867355762	5422.9142317775
0	16977	824247.198175239647	5253.4794643265
0	16985	824450.744621528018	4461.9845609677
0	17070	827518.280894051083	4593.2510133189
0	17075	827585.191823448094	6191.8358967441
0	17080	827820.515006277853	10824.182178083
0	17089	828099.753039899553	5130.9994491846
0	17097	828185.495083607345	8010.0130783186
0	17108	828529.195728955183	2640.2645313588
0	17113	828575.007470049198	3447.7483844044
0	17119	829099.751475700274	3048.4808578285
0	17124	829319.616506397333	2881.204946736
0	17132	829471.857820027071	4326.3208365974
0	17137	829595.933614461751	5206.4370032465
0	17143	829923.842059177614	5160.5035306507
0	17171	833661.015331393736	670.67588058746
0	17219	835508.448132859746	8610.6745449036
0	17225	835945.176473564715	2175.4789589529
0	17230	836283.309034653195	2991.6534133465
0	17246	837973.177551633831	3888.6615895804
0	17268	839043.765062046544	4395.1364746952
0	17290	839379.998028781866	4432.8623386145
0	17298	839978.055223981994	2630.9526218801
0	17337	842745.347045487366	4379.4601498687
0	17342	843216.960724912494	3996.3347525158
0	17354	844128.989320785758	6233.7592154135
0	17360	844340.536276709032	3472.1748141794
0	17404	848443.096410916729	1995.7805572934
0	17413	848972.6209349277	1999.0618281995
0	17430	849762.464350898391	1666.0537046693
0	17447	850509.985432147474	1411.3578208015
0	17470	851543.078193346985	4742.9468099591
0	17489	852138.755615024834	10905.457151894
0	17498	853143.486047397087	11543.217394214
0	17530	854980.39806403524	3163.0891866728
0	17535	855267.252357814522	4313.3874151987
0	17540	855273.053043832269	3852.2163165374
0	17563	856198.703462989209	5736.6213961397
0	17569	856714.275498277956	3233.3295675964
0	17577	857042.426806242693	3104.6891043254
0	17600	858225.780626457625	2491.0389600119
0	17608	858719.083992355886	1854.8090645605
0	17634	860259.734249955958	893.42929447158
0	17652	862135.899828529899	2486.5464418061
0	17670	863507.560398532375	2287.3359271742
0	17688	865054.759320068086	2725.1824312285
0	17715	867655.648959197714	10458.634254416
0	17763	872290.294944727358	4990.984771006
0	17771	872566.351982978431	8488.5366637194
0	17777	872686.340540752564	3894.2406857888
0	17788	873083.192871141478	4452.9896288828
0	17802	873553.874111664243	1831.4865077192
0	17833	874346.592549210437	1438.810000473
0	17852	875060.366240535092	8357.288270257
0	17869	875917.707723983532	2340.5988378938
0	17881	876588.488772920784	2869.2450680666
0	17907	877922.566711807409	3614.977610344
0	17925	878476.467336351107	7253.3715885778
0	17934	879030.335046147897	2730.6300237615
0	17946	880086.990811667232	5474.4594205553
0	17957	880325.372476923142	3849.6496373154
0	17962	881150.658271335398	3314.9156474075
0	18008	883408.784146580177	4205.8202047863
0	18013	883718.802382421973	5464.4442690664
0	18047	885348.075753691846	3081.0632470698
0	18074	887199.038387385201	1607.917316751
0	18201	891117.773279703404	9818.0820365427
0	18206	891261.340177794928	8865.7821728477
0	18215	891638.720190627965	7440.9906649562
0	18235	892146.294435967479	6338.0903656442
0	18254	892817.877499940176	8739.0762622427
0	18260	893275.181255595236	9143.5587160148
0	18268	893865.893718886454	6140.683568312
0	18282	894202.941654512098	6497.7224125413
0	18296	894710.759129754558	6933.4692075381
0	18386	898447.056078564063	10817.649410083
0	18452	899972.140151770178	11667.208251387
0	18458	900484.054510432722	13062.152611814
0	18466	900853.871406835726	13060.641739468
0	18472	900909.186360115701	12146.699679623
0	18477	901378.091814289135	14015.585462345
0	18486	902239.849767468207	19942.569613031
0	18497	902699.747488018686	10115.093538865
0	18505	902947.104412636798	8159.7992454548
0	18535	904389.619546508769	12338.686622955
0	18570	905564.725613616964	16271.99324155
0	18582	906432.163753050314	11730.356604341
0	18592	906559.333712948593	13034.997910684
0	18597	906574.02981081375	8902.2568173545
0	18602	906618.886267254818	19080.454528579
0	18607	906702.705161906043	10679.049468332
0	18612	906753.947324533533	10466.192286567
0	18620	906857.909159414339	9157.509400276
0	18626	907000.752428344716	12206.66248341
0	18631	907062.562250341222	9375.9332498905
0	18636	907215.942430433472	11029.240816012
0	18641	907514.488837788293	9140.9907320888
0	18646	907695.359671752894	9359.0202945577
0	18655	908367.064491512217	9880.2669260101
0	18661	908751.591046553536	6706.8204195803
0	18669	909159.504476402443	14783.903357934
0	18680	909754.023019728947	6873.4380716678
0	18694	912157.123103291932	8246.0797879218
0	18705	913088.36409665557	8868.7192005318
0	18713	913188.229528645903	8365.7271612094
0	18724	913844.911807147282	9640.2365559037
0	18729	914227.156767065275	8264.0949505105
0	18771	915448.040490076548	6600.2019151655
0	18785	916067.86372000229	1333.5301248345
0	18807	916584.060680737381	5015.7116615798
0	18821	917022.555413530861	2576.0168194477
0	18847	918133.2218116582	2571.1315626114
0	18852	918149.542096802004	3652.4140507425
0	18857	918153.391922438429	3363.3737334438
0	18865	918453.622640217595	5286.50896938
0	18898	919423.619223639455	966.47969842496
0	18915	920050.572276730567	1523.1458738526
0	18926	920523.077996041109	3512.2566938777
0	18935	921300.831038233952	2929.6704925593
0	18957	921800.500161305306	5848.7753104082
0	18962	921869.076781466818	2690.1206754541
0	18970	922062.409619001786	1309.6670761965
0	19001	925374.613986527826	4065.9825366777
0	19006	925503.162467853913	2264.3066757455
0	19015	925774.182653026686	9158.1212407444
0	19037	928860.836512664128	4792.9683203543
0	19065	929485.969733497149	1406.5706912354
0	19092	930752.338632213048	1667.5834636351
0	19110	931601.387297100523	2225.0162411861
0	19126	932292.97859502233	3497.7334507633
0	19135	932899.212363779803	2843.3701100238
0	19144	933994.99155267435	2551.0363976562
0	19152	934200.645318688933	4819.7136340081
0	19189	937881.330070227218	1377.9655455008
0	19231	939406.881648172836	3132.4528509056
0	19244	940854.480003125678	9396.7449901078
0	19261	942033.764701471	4035.2490367863
0	19269	942763.939887492198	4689.17408217
0	19278	943315.713333850255	3307.9851054913
0	19320	944623.516098752003	4414.2994662381
0	19325	944943.404406389874	8253.3575672194
0	19333	945382.90906090745	1651.6472892851
0	19342	946104.482731915143	7786.8549248511
0	19355	947207.596512416101	4212.1998208629
0	19383	948719.889362249692	1774.4874796897
0	19393	948812.253956310938	4969.2752887148
0	19431	950742.070801691423	775.8714265018
0	19436	950818.140467682328	2811.1509095621
0	19446	952510.942835516565	3970.4010725031
0	19455	953478.590357260985	3851.6919570312
0	19463	953857.957487462773	10394.325255114
0	19482	956125.655317321613	5990.7733239977
0	19517	958458.255939391811	888.48157303536
0	19567	960203.764031315106	1558.0315300558
0	19578	960442.503500365074	2732.4344829553
0	19583	960545.747846676759	1291.5586080761
0	19599	961960.373238906577	2063.1841038049
0	19650	964278.269909208199	4196.4718651836
0	19671	965906.373790354084	11967.922152674
0	19685	966227.64197751765	6203.5824630502
0	19726	967559.891956515627	6161.5934244243
0	19737	967626.49052569604	6290.1340791604
0	19759	968069.84545054972	4755.8643193429
0	19773	968459.798037789228	5003.1672259351
0	19779	968657.55400777882	4467.1415750577
0	19784	969002.314797359815	2822.7600284679
0	19790	969843.151547800026	2236.060639402
0	19795	970096.586971862221	13191.937315628
0	19800	970119.380025097267	4498.3591389335
0	19805	970170.906780472002	3770.7450125407
0	19810	970296.635662531698	3701.112602365
0	19831	971930.796021174786	4319.1169215517
0	19862	973076.871769045114	1186.0569751425
0	19871	973755.748723358001	1158.8558382837
0	19888	975126.403198284182	2218.8374419782
0	19905	975857.457842182125	4665.5389199507
0	19923	977268.264007323802	2705.1108776738
0	19933	979062.156270500972	12310.309604293
0	19949	981337.915580537738	5952.4638571806
0	20063	988309.194931701433	11612.746162708
0	20068	988328.591907660498	6732.2984549046
0	20079	988519.010848665542	5716.7990818844
0	20094	989182.673633826898	6490.1294742976
0	20121	990003.539649635276	9068.5277865668
0	20160	991020.112055686902	7656.8446924725
0	20168	991114.762203446852	5598.9462938697
0	20179	991447.083501586018	4516.4487817391
0	20197	991710.821144356684	4936.5014042742
0	20209	992155.815818121146	7444.9566966193
0	20215	992765.472851579412	5468.022798485
0	20220	992822.028229286874	11717.398788833
0	20225	992930.266106388775	4265.0622790343
0	20230	992986.601377785782	4443.3753371695
0	20235	993069.002858130618	3375.5662669451
0	20243	993106.78120258873	1669.9191440772
0	20248	993162.681360573906	2713.9776115675
0	20253	993202.844929131936	3277.2187541471
0	20324	996501.984785260173	3099.3927378524
0	20329	996541.31985750992	1112.5792675269
0	20346	996942.864222829773	1483.7247858106
0	20368	997379.03534645304	1322.1666336229
0	20385	997831.550558359908	2792.1733251407
0	20396	998335.372680261438	3801.4941327034
0	20401	998420.002087387121	2783.0833792283
0	20406	998472.712396004898	6958.3385107678
0	20415	998716.879982747006	1996.513270739
0	20428	999014.573792139944	1994.7858152744
0	20458	1001341.938977488534	4187.4386149299
0	20466	1001502.900525596907	2928.6713009419
0	20471	1001572.414170466167	11536.93156055
0	20480	1002274.618736530545	2887.3578487067
0	20503	1005901.74843622727	6032.8140053382
0	20529	1007266.905520467057	2512.8682713516
0	20554	1008143.702005231154	1886.3710963434
0	20559	1008202.278557368582	2647.3238746135
0	20574	1009006.377167708865	2018.1247219778
0	20628	1011768.594718971456	3033.8936666536
0	20633	1011990.326186712521	3114.1103490324
0	20638	1012252.281208548882	4955.1014457555
0	20644	1012473.063694300752	3117.9913013069
0	20669	1013576.526258164319	3287.28590288
0	20687	1014978.050478910976	5433.8881293831
0	20695	1015353.268114156969	2742.8871222934
0	20712	1015871.978453280006	3121.068961087
0	20738	1018194.662627108113	2749.2635610626
0	20747	1019146.837572971591	3243.7999410387
0	20773	1020494.895170062202	817.7036087917
0	20800	1022332.290997484933	2378.593034295
0	20824	1023200.761663012085	1686.961693734
0	20833	1023705.112539285517	10035.688242871
0	20849	1024151.822136693414	2204.2145370016
0	20867	1025821.379912156974	9026.7464789356
0	20879	1026372.083030095831	2545.3353975262
0	20905	1027934.954452783976	5796.187511961
0	20910	1028354.47284599424	6212.7087688545
0	20942	1032125.648463414556	6974.3832363014
0	20950	1032343.048448990347	6061.0968541085
0	20955	1032461.593405129051	6041.183695651
0	21014	1036725.431650373692	6388.4099488107
0	21019	1036785.581928574623	3168.5639852931
1	2088	100273.035640660428	0
1	2097	100417.674585191547	105.77926863351
1	2116	100960.079625494542	195.66221111758
1	2146	102480.949135343642	430.50025034579
1	2154	102561.867319972966	479.33333025746
1	2169	103367.149759389739	807.51742228465
1	2177	103617.951271636534	553.38957493572
1	2186	104392.610649022008	837.12134584813
1	2210	105167.239396395031	166.21422457305
1	2221	105298.604603759759	14.185166260689
1	2262	107003.236946857658	283.10196937613
1	2271	107514.784856885893	525.83120894906
1	2285	108035.572574470442	101.86431729229
1	2296	108437.263031926229	124.39497688782
1	2334	109613.995763763154	133.68370768958
1	2351	109975.696633114278	240.76525220089
1	2373	111027.814433607614	0
1	2388	111706.328145799341	587.95329819086
1	2393	111744.983262613189	266.37449764944
1	2398	111877.599116041899	363.42225730143
1	2440	113320.846500898556	0.034228947374
1	2460	114001.230815211905	550.36494262214
1	2466	114026.205761400502	438.11262525566
1	2474	114212.837453403688	281.30082393722
1	2486	115009.941506537897	1033.4787634633
1	2491	115555.057807851173	1471.4890524897
1	2500	115849.047337551682	1157.8189913651
1	2529	117305.805791208221	1215.0255113258
1	2534	117424.132353765011	799.95320621838
1	2552	118320.893730503509	784.23898393574
1	2573	118824.59622292911	21.112969769261
1	2581	119076.896396494918	38.542763890791
1	2623	121973.424566883481	1039.0172624667
1	2628	122024.57092109436	723.11098025947
1	2651	122380.651299631717	45.136255530717
1	2675	122845.154251223652	100.79524935609
1	2718	125788.590554725012	84.377537686399
1	2736	127384.499949429357	0
1	2755	128910.33766145298	1275.6353745317
1	2770	129595.310596877359	1728.5170328375
1	2782	131118.910390954633	2439.9639708276
1	2788	131224.328419338114	2523.254167397
1	2796	131422.159436860149	2307.932812302
1	2804	131528.729411060813	2288.9713599118
1	2812	131842.504083347721	871.21519537869
1	2824	132086.953478582805	580.94218071756
1	2832	132321.468416800335	321.46875114889
1	2885	133639.30997909379	49.975135998384
1	2894	133964.43831490036	325.90522851496
1	2940	137235.167326645656	0
1	2948	137441.391822989133	0
1	2972	138080.184244287696	559.2303540626
1	2977	138221.367640634624	474.45758403799
1	2982	138277.970941300119	264.83869285388
1	3009	139647.107429963897	1572.1918893562
1	3014	139702.05795092474	1358.2875412077
1	3020	139977.108622898242	1342.6050288038
1	3025	140120.968274289402	1243.2566306566
1	3030	140237.127950867091	891.17972912924
1	3058	141373.589017495871	62.03589886243
1	3067	141514.983143291349	66.366048538568
1	3099	142660.968625443236	222.74341128953
1	3104	142758.26075896768	207.48828155828
1	3141	143925.068246262296	624.52183565456
1	3149	143995.965382029339	643.40598993247
1	3162	145308.280725957925	1767.1583747984
1	3167	145326.345436305146	101.51046556619
1	3189	146140.943573164769	31.032603253564
1	3250	148596.228688740325	996.26748373954
1	3258	148688.768207287416	994.10438251487
1	3266	148950.814487509273	707.6584741704
1	3274	149144.389860914957	164.50193262188
1	3284	150162.423662301187	108.86375582087
1	3325	151630.848620966476	240.44969875457
1	3334	151919.577258951763	309.70215036305
1	3355	152401.389866049664	71.108366343724
1	3360	152534.241558028886	156.72904304958
1	3372	152897.933931520778	218.95587848432
1	3380	152935.153036211583	105.7245314277
1	3406	154833.103140689724	109.29038040298
1	3414	154976.147293751805	64.017167527489
1	3447	155620.985581297723	174.75028085102
1	3481	156776.766177680591	1018.5753390627
1	3487	157161.174280133003	774.78487603553
1	3510	157664.983099265602	113.7153484945
1	3519	157960.393905871987	16.230448915455
1	3537	159061.348186446324	422.06396088638
1	3587	161341.850527397659	859.28281615114
1	3592	161352.33539944211	806.38625391337
1	3603	161955.223336170692	486.54306553728
1	3609	162247.477535872336	695.62287796989
1	3617	162520.196452378528	0
1	3632	163027.447320360659	219.67151282309
1	3643	163309.049955973707	224.24762857559
1	3672	164581.239000692438	298.62864373159
1	3677	164824.353698636824	293.36699017332
1	3713	166127.93916875923	245.08390607852
1	3722	166316.996425139734	253.62592342934
1	3727	166330.86295132497	42.659597707353
1	3753	166742.056316292253	83.473063620611
1	3776	168366.276574556632	0
1	3812	170213.793630377256	959.38817008024
1	3820	170323.677183008927	615.39473549956
1	3825	170507.851421338799	713.32974057673
1	3837	171143.390684919482	1093.5395640021
1	3846	171484.944525850313	1308.0888627053
1	3851	171585.717920532827	1303.5218629807
1	3856	172033.243443665935	1086.6558008569
1	3916	173813.200508659692	296.54121109827
1	3940	175317.401295754223	843.14571748035
1	3956	176758.974637136598	2039.2333229222
1	3961	176824.428898307772	1036.2873434133
1	3966	176999.519712424324	1023.49695045
1	3974	177386.031004051057	745.04831844509
1	3986	178001.447585518121	988.23826015395
1	3994	178129.742910882047	469.63458206153
1	4002	178238.784131952926	298.59486681271
1	4008	178321.235120107784	279.95274989635
1	4033	179137.916798067715	79.804041634923
1	4063	180303.126717512705	227.33374262346
1	4072	180954.479507660996	806.31415692877
1	4077	181132.667950509373	603.16448242847
1	4100	181865.588137230895	371.73620928437
1	4122	183006.069113632296	508.70861607286
1	4184	187316.448086987461	976.46591247651
1	4189	187415.052081342505	99.616930038128
1	4209	188186.266748265848	290.21207639489
1	4259	191423.620927073056	0
1	4280	195823.820279986311	0
1	4289	196416.512838524615	12.025852458983
1	4315	198840.999572723384	0
1	4324	199640.069881842232	0
1	4344	200409.701330847108	430.79428252793
1	4352	200542.67652733112	7.234263665774
1	4384	202547.75605909959	0
1	4392	202655.107369622691	0
1	4400	202834.426784295032	0
1	4418	204092.383200928687	800.08323722267
1	4426	204181.498500228911	0
1	4434	204517.148554647607	0
1	4461	206178.285884901919	547.04829947262
1	4488	207060.20699809889	159.39771732729
1	4504	207267.925880526276	184.39285672886
1	4513	207672.212601691141	408.23069745171
1	4518	207737.43541952704	329.18917966216
1	4536	209305.956812302797	0
1	4553	209587.612109048567	273.79308963127
1	4558	209846.778388033567	425.42359443675
1	4564	210131.693342253087	683.32719506618
1	4603	211098.457985950492	415.11163677425
1	4608	211113.219395009736	206.84984761708
1	4660	213330.308402203908	0
1	4680	214204.184370827861	335.35786660794
1	4701	215246.868023328915	229.26512958035
1	4706	215352.850057762708	208.05346011668
1	4737	217352.282764884391	0
1	4746	218429.005789760814	0
1	4757	220642.167458679446	0
1	4768	220951.317573802712	272.38389946494
1	4773	221023.26126904566	247.22224349617
1	4817	223811.385953115342	79.700142134264
1	4825	224167.143471436741	0
1	4860	227060.241103213541	0
1	4869	227350.867148031397	0
1	4888	230074.719435689801	0
1	4905	230751.515203680525	0
1	4913	231147.259799619335	0
1	4921	231421.404763065865	0
1	4945	232661.845926359332	814.87643708239
1	4953	232835.180764702092	139.99018311339
1	4966	233098.689927599238	136.52336359646
1	4980	233383.346493438868	0
1	5000	234332.008941603134	6.224830528339
1	5008	234683.530248278612	185.66945225133
1	5051	236679.422221268278	18.630210282803
1	5065	237472.457938938643	0
1	5074	239085.295960418352	0
1	5086	239645.245583116247	127.8989009769
1	5121	241844.824576828359	705.37002544454
1	5151	242869.894413541329	0
1	5160	243512.132266403287	0
1	5168	243617.441257023731	41.346960045095
1	5176	244123.258385019464	62.813896161428
1	5193	244847.516703483959	0
1	5202	245251.019942063451	0
1	5219	246464.502730244663	261.80472091116
1	5231	247103.924401503485	110.02455612144
1	5242	247568.960053288283	312.10351435926
1	5261	248899.073540713299	243.56915497176
1	5281	249758.973929105753	112.25940037716
1	5290	250303.37555333145	544.56887325894
1	5307	251638.772759540737	350.04048701219
1	5342	252433.098835000977	350.89780867291
1	5363	253326.556404431223	749.74489028651
1	5368	253392.265230957616	630.53160952952
1	5374	254027.146359510049	1029.526068544
1	5385	254217.8502683189	1146.2169983556
1	5396	254560.903839040455	514.89420941284
1	5402	254806.418008911363	705.32571146004
1	5407	254817.990186157757	418.33706196613
1	5429	255029.990088171204	88.214499083262
1	5493	256895.066478217869	518.22421145732
1	5515	257702.250030669251	499.74851761143
1	5561	260115.521554061987	1108.1320387888
1	5566	260301.882291409771	790.07369567095
1	5571	260461.22224840369	350.61424887854
1	5595	261695.624839554822	461.94578990992
1	5600	261696.686326407479	116.1702137635
1	5632	263636.69782843642	922.13006073583
1	5644	264119.820161449597	1136.1579296598
1	5649	264215.874656465155	1084.7612223862
1	5657	264264.944137670273	368.46802304828
1	5665	264601.64872465942	634.71090896222
1	5689	265502.650124176064	33.409634814972
1	5698	266029.696010774366	0
1	5732	267248.011040493127	449.41005791014
1	5741	267724.665530551262	537.23139036161
1	5773	268695.416314902138	0
1	5781	268900.404040955619	144.53011659242
1	5792	269031.422810295942	61.573556960205
1	5806	269705.408213561675	0
1	5835	271349.862119898917	29.091208303572
1	5848	271671.334405269753	0
1	5857	272001.327676571109	0
1	5865	272099.161228085984	92.080446375457
1	5904	273406.891489472584	57.129282320019
1	5923	273816.5122007571	28.003487164985
1	5949	275425.513624599605	0
1	5961	276458.168943819212	248.15641918885
1	5975	276940.4945216162	329.75771401812
1	5999	277495.161234662724	15.073634830671
1	6008	277984.591260821571	133.86230716687
1	6016	278056.951778932014	57.627429175612
1	6034	279335.199637317288	879.60700543322
1	6040	279527.628891464963	671.48580170737
1	6048	280059.445958618128	999.07804379315
1	6054	280363.238071226272	389.65444433627
1	6062	280431.191160695469	51.642133913493
1	6082	280843.988561581193	307.13506321008
1	6087	280847.101260852956	65.342637212634
1	6104	281300.927350998078	171.24229904351
1	6129	282581.227822116277	274.28578843719
1	6148	283368.771338558147	10.435819751392
1	6175	283925.250497660361	208.48186709939
1	6234	286133.974262706095	875.19729674904
1	6240	286421.197464829044	1147.6240694768
1	6248	286783.635632633338	1053.8018177193
1	6256	286898.512019329523	381.3348212453
1	6261	287036.062136400809	179.99335424391
1	6289	287804.157221069249	69.044002612618
1	6301	288533.391363859632	220.22447486303
1	6325	289425.523354775229	0
1	6345	291629.176900627622	392.94244133273
1	6369	292305.698397563723	0
1	6380	292710.792652447738	316.84352025904
1	6385	292824.285709832398	206.82670362956
1	6414	294394.601439035135	270.34041752515
1	6440	295824.197745838432	1025.4709680901
1	6472	298663.557198355822	0
1	6482	300033.665876439476	0
1	6515	301160.719284407006	310.88830976768
1	6523	301313.237301392188	70.742400746666
1	6532	301889.80260154234	0
1	6540	302037.608962164528	0
1	6558	302815.743606251748	489.02940098268
1	6563	302839.308157529731	386.6135287698
1	6571	302856.215373860744	151.67527150512
1	6626	307690.738441098657	0
1	6635	307722.536190345899	1.635038372267
1	6652	309385.70184780299	0
1	6682	310317.041391616208	439.05714184275
1	6690	310696.597218286737	763.48636412548
1	6699	311218.26931778126	1058.6552099567
1	6704	311244.186522801146	990.95354701639
1	6709	311302.224266919759	383.13211727742
1	6727	312168.270009434586	485.71142332389
1	6756	312758.36858242947	241.32741708722
1	6792	314148.153436122272	18.056890353952
1	6801	315105.840629280919	842.27351656348
1	6821	316622.002533278648	0
1	6859	322228.117582887044	0
1	6868	322923.323442533727	0
1	6892	324392.668928983784	651.93203198968
1	6897	324397.178835012344	231.9059710989
1	6911	325369.56130274441	0
1	6928	326107.419529672793	86.426502782109
1	6940	327140.718733934334	443.58478256408
1	6945	327173.541493359819	391.76624320705
1	6953	327413.782573974238	211.49764957163
1	6979	328428.056765685834	95.387842667663
1	6996	329439.729677465211	0
1	7010	329844.517032650451	40.888939416991
1	7022	330264.526627816793	438.75829104163
1	7041	330608.944961910092	126.85817097781
1	7046	330799.561833309248	257.40317879304
1	7071	331844.13255471795	741.96088500363
1	7076	331906.714510440942	639.33136708644
1	7087	332420.047958759639	1018.8567044552
1	7093	332866.3537874773	1320.7229202629
1	7098	333157.753236558617	1227.1011581305
1	7146	335181.441360536226	142.36467059796
1	7176	336164.444302193098	148.08522290676
1	7225	338460.632699942761	260.83775907482
1	7240	339348.735148753308	716.86573778688
1	7246	339787.743075538431	1034.3980149117
1	7251	339844.341596182698	829.22624742521
1	7300	343686.353486001954	0
1	7316	344779.058087075979	1055.5874966345
1	7321	345051.246672996753	784.43592330411
1	7339	346043.13991142284	1415.2159680201
1	7344	346098.463258982035	457.60251388639
1	7356	346982.422645983536	1191.3599730807
1	7361	347045.207780936306	778.82433102601
1	7381	348090.093677770681	154.51511919356
1	7403	349471.222263458747	10.932782305137
1	7452	350554.394825387018	0
1	7461	350687.51581051821	0
1	7471	352530.861084361828	0
1	7488	353656.484198870843	335.59401348283
1	7505	354047.238494872254	0
1	7525	355000.289108290789	183.08726100353
1	7533	355560.15258452924	726.01875595115
1	7547	355760.155747371505	123.2031433577
1	7578	357296.665652928771	295.19606611456
1	7583	357309.408566077438	148.75955478638
1	7596	357422.787095354954	35.885619456968
1	7605	357614.636012006865	132.44513807331
1	7614	358406.523599107526	0
1	7655	360742.539909086684	562.06642501289
1	7663	360857.091157568906	456.99944562393
1	7669	360888.934160892793	256.96352809271
1	7680	361248.935570640251	68.624216398159
1	7709	362646.41702969714	999.96171934195
1	7714	362983.113168752383	836.11310751416
1	7728	363380.476791020524	1012.2120705526
1	7737	363480.906953038038	900.44807249373
1	7742	363711.445074345966	431.08311954781
1	7757	364512.405658927294	1043.3979963296
1	7762	364528.084824373145	471.68738805952
1	7770	364983.940599625158	584.59829905298
1	7779	365215.650393526281	566.46225194058
1	7848	367645.037356088861	348.22905727021
1	7881	368818.570053365212	273.40787722976
1	7889	369333.111536748524	64.304790342106
1	7922	370882.564872220215	325.34749882723
1	7936	371628.639275168746	236.26517102458
1	7967	373592.672001509888	17.757952129225
1	7984	374361.722508006625	0
1	8002	375587.383067054086	0
1	8019	376762.384765256371	0
1	8044	377677.168526669315	136.40602894652
1	8062	379382.955432267157	0
1	8071	379872.483290202204	480.27003781224
1	8096	381352.718783357235	0
1	8114	382936.034515474073	0
1	8133	385050.972188574669	0
1	8141	385442.436182712966	113.92395001788
1	8159	386807.803052666652	0
1	8179	390238.942240349472	1656.3370050606
1	8187	390335.844875785232	0
1	8204	391647.074271532801	0
1	8221	392413.84215439034	287.07759594085
1	8230	392894.773806580116	0
1	8238	393028.88395906045	0
1	8246	393385.223786369393	0
1	8279	394774.640290944397	521.01319995784
1	8296	395517.265198587223	74.086848939077
1	8316	396606.561070000265	590.36555488581
1	8322	397099.436233721663	871.85039988309
1	8327	397103.235035930343	644.73052752586
1	8363	398456.772556818157	706.5723934233
1	8373	399464.00740635438	1471.8687390242
1	8378	399979.563292630704	1691.0671174827
1	8403	400686.840669202589	262.37977584228
1	8424	401001.487151986064	33.118286349411
1	8475	404225.921661847055	0
1	8494	406336.349626950125	0
1	8503	407166.264709588558	0
1	8520	408054.274665819322	0
1	8537	408887.466161184805	0
1	8554	410185.348212791431	0
1	8562	410427.546968296178	0
1	8570	410461.781232390679	0
1	8587	411032.961079896235	25.960515216957
1	8595	411363.411825567255	296.44160233929
1	8624	412647.878291409402	340.66084150313
1	8664	415584.939178727873	0
1	8673	416237.613426572803	0
1	8682	416674.840665023237	380.61784389146
1	8700	418280.811371681117	1593.3471414428
1	8709	418348.34923741616	1257.0592828337
1	8727	419207.593736073447	1373.8108609074
1	8735	419679.87876669443	694.76918201057
1	8743	419832.578401846104	778.5469029371
1	8751	419914.486876190194	753.1584960855
1	8757	420135.073048647125	543.95687943124
1	8762	420166.126775190398	412.05399930859
1	8841	422642.801511756735	18.715820684282
1	8865	423405.689519795702	0
1	8874	424055.492805488316	0
1	8883	424360.060363882088	0
1	8892	425168.607639607168	746.58423064323
1	8916	425763.375235098992	0
1	8925	426260.698341769229	0
1	8950	427353.515863840723	0
1	8958	427412.611734355047	34.35848684182
1	8967	427814.361805818485	0
1	8975	428159.51841053695	93.025661051987
1	9016	429135.050627485967	0
1	9025	429843.315583472581	0
1	9054	431225.011404074264	784.40475639196
1	9067	431536.319535219297	139.7113693054
1	9075	431864.810612384521	0
1	9101	433286.213428115527	490.84269786538
1	9118	433990.180998726558	0
1	9136	435118.947180383706	690.13704313725
1	9141	435175.579554129601	530.44764884683
1	9169	436816.707063058698	0
1	9186	437685.482439692289	163.78463153271
1	9194	438001.290524501501	0
1	9212	439266.425656398001	0
1	9232	439804.828627528956	45.982319242487
1	9245	440250.776569245875	187.81206706298
1	9271	441747.893142587502	0
1	9282	442103.515915992152	331.93398141624
1	9287	442142.95006338649	108.32702841695
1	9296	442447.196846950766	0
1	9330	444582.336681233968	0
1	9358	445500.828794236731	140.84018895456
1	9370	445974.825023501263	437.55264717273
1	9390	447547.355511474249	0
1	9398	447732.851714236485	138.98917821269
1	9406	447793.99678514853	0
1	9440	449412.457475843313	0
1	9457	450456.227225321305	0
1	9472	451278.493727813903	766.2596687841
1	9483	451686.425215594156	953.71497069054
1	9489	452110.710580705579	760.86279243806
1	9494	452145.944737329038	517.06570828687
1	9514	452623.791679190294	132.08727538141
1	9576	454176.355656039344	247.41553361694
1	9582	455125.346433835299	960.71902031038
1	9591	455853.180010712005	496.85373332363
1	9611	456444.237761116265	147.42126633802
1	9625	457303.008965794757	0
1	9633	457338.193369165036	0
1	9658	458305.956372632616	0
1	9685	460701.792633586831	0
1	9693	460760.797783149353	31.801050204652
1	9701	461010.814398727398	197.64592982311
1	9710	461178.733020411194	134.63067572184
1	9718	461532.987145302632	0
1	9732	461806.812447755564	268.47160482954
1	9748	463159.777239384693	1555.8007064783
1	9756	463399.347801672289	926.76500282273
1	9764	463628.887891569915	180.1527014442
1	9781	464522.170105244377	139.98043231451
1	9799	465335.385317363954	742.84518812687
1	9804	465367.698015164508	222.25377208456
1	9809	465436.303348450323	149.50974556465
1	9850	467735.19476658939	121.77304679682
1	9889	469314.744158148457	180.16021495373
1	9928	472226.2551701247	99.761705136318
1	9942	472807.109827445866	55.196506804467
1	9951	473188.508806086775	109.14036822155
1	9973	474405.723364393888	0
1	9989	474476.008050220695	0
1	9997	474544.790580706875	0
1	10005	474780.43006371035	54.691065853411
1	10014	475055.448993105087	0
1	10030	475563.725691739767	0
1	10054	477010.078634482152	924.18227822558
1	10059	477020.205903811238	238.59238225679
1	10088	478440.915808559836	131.25189613347
1	10111	479853.546568187954	3.060946286323
1	10155	481635.409064487979	359.69467250637
1	10176	482791.160764737766	694.29752017745
1	10181	482980.138470326088	668.72538171157
1	10186	482990.422753997861	619.33814982403
1	10221	485161.092674135617	573.85214285788
1	10243	486032.005545559274	0
1	10264	488086.557555712854	415.05330007172
1	10286	489093.341003611669	0
1	10304	490322.502098033271	0
1	10313	491500.490757472099	0
1	10321	491597.593529938975	11.229828686935
1	10336	492686.534626495317	649.47032337034
1	10341	492713.826269733377	196.6334184368
1	10356	493820.466803979326	0
1	10376	494437.018969671322	185.93791535213
1	10381	494578.531041351292	263.26557029184
1	10436	495814.271766518213	99.986024645911
1	10441	495972.188253212988	230.96775027618
1	10459	497128.834791485091	980.90169956473
1	10465	497169.161276001544	814.45321505758
1	10470	497208.361792259051	383.31275068282
1	10513	498531.602865587337	3.438698923418
1	10531	499876.89866692562	93.269009660961
1	10557	502049.115228377247	0
1	10572	502682.645658650017	618.22130832927
1	10577	502797.798465110643	426.20320886016
1	10583	503158.231543575771	733.04198892382
1	10600	504284.769174978566	0
1	10617	505386.207351366268	0
1	10643	506434.74586667128	748.18480298851
1	10648	506455.402093673035	590.79963447165
1	10653	506537.887295342395	369.29932140732
1	10679	508046.155491103522	289.85686748794
1	10700	508866.561361365037	532.60272978673
1	10709	509431.364072116012	982.28361485145
1	10714	509546.491275730086	795.32015580652
1	10719	509550.341372910226	134.42533734106
1	10745	510424.434262184793	1.580249662614
1	10784	512480.757256154869	296.36151083169
1	10793	512646.184722261256	453.45817957908
1	10816	513360.202643712304	100.64948895125
1	10833	513870.25634823135	48.030395814234
1	10867	515340.200941002282	164.60356447359
1	10872	515499.486170287883	302.20585854547
1	10885	515833.50810162683	0
1	10894	516687.612870400726	0
1	10919	517293.586056300741	0
1	10943	518726.880305173213	838.11275570742
1	10948	518801.820877276157	826.25699131392
1	10968	519593.723698661198	273.22087987817
1	10973	519653.619922554112	117.47260243339
1	10984	520210.323522030255	25.549737699973
1	11008	521222.341282013223	840.30033168305
1	11029	521715.960375774125	99.495865060042
1	11047	521897.970401018928	144.61165859281
1	11062	522526.968865055025	533.84271836932
1	11084	522924.673958105775	151.70274603188
1	11092	523254.689769915006	391.69119929877
1	11110	523652.197606120736	0
1	11135	525734.087888388758	458.87733977733
1	11147	526475.22187534027	760.50206405768
1	11158	526683.291610132427	849.76495565546
1	11166	526772.429503382049	235.24066962952
1	11174	527126.241387049692	568.08074734897
1	11180	527269.707129321683	393.27183165533
1	11233	529738.749537099837	436.14832333718
1	11241	529875.06843823735	129.55047345317
1	11259	530911.524052160102	453.38088110488
1	11264	531103.179315213466	472.81839610947
1	11299	532541.374215209941	110.28191922608
1	11304	532844.059572022879	390.16582152594
1	11340	534745.62386982639	665.55889649675
1	11348	534865.61938732597	110.40868035196
1	11373	536116.354886969195	0
1	11381	536181.649119231741	0
1	11431	538010.693835185579	265.83034416279
1	11440	538385.220932340183	0
1	11450	540090.022308354291	0
1	11458	540148.877899536516	27.515337883835
1	11492	542164.413782455978	10.01335778476
1	11501	543028.91388544556	0
1	11513	543541.725318646104	478.51205831826
1	11518	543832.082873385105	585.33921435986
1	11570	546544.621704190202	862.29412485414
1	11579	547196.072596423481	1435.6816023839
1	11584	547651.764234618665	1749.1935875007
1	11589	547662.431527950229	594.58408641478
1	11620	549274.100613500471	0
1	11630	550428.523018634839	0
1	11664	552738.826293248054	0
1	11673	553010.48550754244	159.46297756535
1	11700	555573.819245371534	68.261750628626
1	11724	557732.172308719168	473.29458600099
1	11740	559259.833096451829	1574.2276364317
1	11745	559267.30443685513	1099.929634589
1	11750	559521.790972500954	614.12405217418
1	11759	559802.722886104917	870.9051281579
1	11785	560339.836380198768	0
1	11802	561292.562167100144	0
1	11819	561682.57114304358	0
1	11836	562583.641848496063	67.395021739665
1	11848	563194.817639377903	546.26778768548
1	11859	563842.321316939588	134.00453111705
1	11904	566434.547865885893	0
1	11916	566705.601841245239	201.52079452743
1	11921	566721.487435060219	51.984886049673
1	11945	567702.443948500459	778.33927279272
1	11953	567939.445114059192	495.48565977296
1	11958	568092.328153245616	603.28321630157
1	11963	568112.823689527423	580.45614423854
1	11972	568683.025739760494	891.04721494052
1	12001	569937.40023610888	169.28106183387
1	12010	570293.440956161953	399.19075802763
1	12082	574643.577264514153	0
1	12099	575683.826797670376	0
1	12116	576126.26721122618	0
1	12126	578003.955807490917	0
1	12143	579269.175693589451	0
1	12152	580160.011136795183	340.95215125394
1	12179	582394.182012471039	0
1	12188	583542.805828736311	995.24720127047
1	12221	584262.430594486646	0
1	12230	585246.416827692435	0
1	12238	585366.576226317167	38.563013221512
1	12256	585933.267079684721	517.4644018499
1	12261	585963.333161787308	545.06101488407
1	12269	586095.118077598203	497.10709688203
1	12275	586539.75054205733	632.8790130404
1	12283	586916.512200921207	872.30095938989
1	12301	587978.252805231512	1306.3339198342
1	12310	588371.528588719892	1310.0843320125
1	12315	588528.203527570792	366.23949552387
1	12349	589499.188573305556	613.53589800101
1	12354	589611.297046698221	179.81798189315
1	12362	589687.5354414548	23.328572126127
1	12443	592793.083292109629	433.4025702291
1	12449	593518.519551834144	977.55451483804
1	12454	593722.238260891636	1067.3103813031
1	12473	594573.377804333296	150.35242498969
1	12484	594747.491892806677	166.85614174213
1	12498	595037.62835984861	0
1	12516	596079.955973076061	80.279992966937
1	12529	596365.240953091308	181.34416333826
1	12556	597193.44890176403	0
1	12568	597487.016079203491	134.80682999692
1	12610	599677.182667846541	142.08706321524
1	12624	600214.693379310997	17.827454775632
1	12645	600993.313503371625	712.12180837323
1	12653	601383.8893041667	1035.9298102214
1	12661	601505.341711636379	569.97135387497
1	12670	601792.320715967561	501.97534260038
1	12675	602046.014584024427	558.40664695872
1	12698	602980.996377245636	286.72152962127
1	12720	603980.630369622956	341.14635411913
1	12732	604694.531978356943	345.60944039033
1	12794	609290.520820040393	0
1	12804	610988.980543456561	0
1	12822	612392.073193381853	0
1	12837	613305.451951752063	258.65108923199
1	12842	613315.043701277987	110.01723018014
1	12856	613831.582465660028	0
1	12873	614884.106310602819	0
1	12916	617883.088224017891	0
1	12925	618095.7522221006	41.541283683847
1	12933	618142.612433448143	0
1	12941	618209.368100730298	8.868267873293
1	12949	618536.103071470405	3.746801617833
1	13000	620794.01811707421	0
1	13009	622204.582739047415	0
1	13018	622795.614171359017	436.48034109991
1	13038	623642.632913636493	152.76129170328
1	13051	624000.043650790189	0
1	13068	624559.927513902221	0
1	13096	627695.019132880181	0
1	13108	628328.7070696031	598.29100766039
1	13129	628697.102736404193	24.760210712222
1	13147	630436.326307727061	153.8883444897
1	13173	631965.937151880173	163.07187481444
1	13181	632005.033577547287	5.404575444627
1	13207	634142.0086035443	0
1	13216	634535.28150210401	0
1	13224	635106.478017194245	0
1	13250	636447.476344836708	5.486692358102
1	13259	637706.291128903008	0
1	13286	640111.44971562655	0
1	13295	640816.750778680607	0
1	13306	641042.084477014467	19.107446567473
1	13347	644530.803626422289	0
1	13356	644761.531989438756	9.024654976013
1	13364	645320.61032581213	0
1	13385	646783.846206684843	339.58842985958
1	13396	647110.772162243215	338.17592180786
1	13402	647202.751348202053	339.44645009644
1	13423	647549.616885313325	6.766382555045
1	13440	648143.00590438568	0
1	13472	649804.912128726831	546.52666262752
1	13485	650038.265032656217	74.621621600068
1	13498	650584.114668041169	0
1	13510	651003.295613096033	283.16407742957
1	13521	651266.102891641522	415.32915228001
1	13526	651289.817606542226	80.36674443362
1	13548	651816.6013388899	351.80771142566
1	13582	653268.371184897789	0
1	13591	654505.496384081815	0
1	13599	654842.91412384531	0
1	13619	655402.555134994792	81.68020975864
1	13628	655835.735177709727	100.36418803022
1	13642	656719.885729774955	299.18087222338
1	13677	659426.303743974255	0
1	13685	659739.100605746078	274.61062866369
1	13694	660754.00654523717	0
1	13702	660868.744524607285	0
1	13726	661738.492082989754	102.8367227799
1	13734	661946.116218505364	305.78321258759
1	13748	662526.375104564411	714.67784475521
1	13754	662768.876722734372	245.89847711306
1	13794	663522.36951444529	0
1	13827	664916.649520396361	0
1	13864	666666.434957870298	143.06130400665
1	13870	667032.864385528583	505.62929819763
1	13904	669340.428893644434	0
1	13913	669606.561482569508	0
1	13922	670451.287287146495	0
1	13939	671369.583933696467	0
1	13966	674097.846558923912	0
1	13975	674772.352006994596	0
1	13993	677020.568843959927	353.98508475592
1	14019	678059.191455642868	0
1	14027	678405.12644422042	0
1	14035	678467.571756367471	38.470760885251
1	14044	679051.757743955958	0
1	14052	679259.89123785832	167.70126846493
1	14060	679411.272561246763	0
1	14085	680525.103582687004	230.49797854651
1	14102	681142.073007083842	0
1	14119	681817.496848457693	31.878799739827
1	14130	682016.278114429979	101.17423671544
1	14135	682086.94088274584	132.21382128941
1	14186	684146.448639477329	0
1	14203	685550.542851619574	0
1	14239	687491.246220128896	579.0716585458
1	14244	687664.03687699623	661.18022862918
1	14263	688762.30043667451	0
1	14275	689332.522313102494	474.67091071057
1	14305	690722.863007673873	215.03262454121
1	14322	691647.923135260606	0
1	14334	691852.899635340168	88.688378348902
1	14365	694025.447029294822	0
1	14375	695496.88346798542	0
1	14383	695734.825430846862	0
1	14392	696118.403084434339	97.94478583189
1	14400	696638.913578492032	0
1	14408	696807.784140831909	21.429534201103
1	14417	696961.391195281548	52.899683324075
1	14456	698405.671284025851	3.839909534958
1	14468	699137.332994461613	594.72158417259
1	14477	699683.498477640828	684.23344642472
1	14482	699846.698079959927	648.58602350126
1	14512	701100.42456225855	52.954315183488
1	14527	701491.359010977909	55.993341684358
1	14542	702529.7406268298	910.64174879295
1	14551	703304.95937238562	1005.6860372014
1	14556	703619.498361667279	543.66480239337
1	14571	704502.207972514527	839.64316294913
1	14580	704834.12460198141	531.60187246606
1	14611	705882.176522778919	141.99739472509
1	14659	707953.025496334337	54.230222670661
1	14668	708355.316625044584	399.63713658134
1	14704	710580.029975549455	0
1	14731	712301.060362261672	0
1	14742	712869.415461374366	381.55479785816
1	14753	713083.634004366199	294.78918349826
1	14762	713192.807823509955	183.07403434872
1	14767	713319.203376492839	259.73006590977
1	14790	714588.778978960431	150.00742580069
1	14795	714618.49303311067	121.09143064517
1	14820	715708.446232667866	92.51011988572
1	14865	717690.13431884553	231.79335071041
1	14873	717995.958433906392	0
1	14894	718513.796258131274	509.05766726758
1	14912	722392.535707509021	4168.8738189764
1	14921	722843.685417317138	4566.7114813556
1	14932	723251.668346680541	4866.2417128171
1	14937	723361.165209053809	4217.9150168684
1	14949	724081.137391333984	1012.8509868313
1	14954	724204.28095956928	1076.6029976936
1	14962	724256.030003838101	416.34436844434
1	14967	724261.118186204599	357.04091104773
1	15008	726429.447503130272	69.205891559416
[...]
7	15327	742299.425114194171	3
7	15347	742835.575876228903	2
7	15359	743503.735548003769	1
7	15364	744664.946540453337	2
7	15377	745150.991272224014	1
7	15386	745475.343274202975	2
7	15405	746202.914629859871	3
7	15413	746391.886668328594	4
7	15422	746664.400947321836	5
7	15424	747045.106601953647	4
7	15432	747098.740077298002	3
7	15437	747332.056872973513	2
7	15456	748183.095555180405	3
7	15464	748362.370280542714	2
7	15468	748418.014171795406	3
7	15472	748914.57603470365	2
7	15475	748916.310640390341	1
7	15479	749000.721610116241	2
7	15484	749058.997589041152	3
7	15494	749220.772175578112	2
7	15519	750559.946937031774	1
7	15524	750931.473585321291	2
7	15529	751287.081731988218	3
7	15539	751809.735175483178	2
7	15542	751869.824415763216	1
7	15545	752488.812281006797	0
7	15568	753885.648477873263	1
7	15583	754564.096068161353	2
7	15588	754646.394471720609	3
7	15592	754885.769772332075	2
7	15599	755053.355134409214	3
7	15603	755144.051652388307	2
7	15611	756182.830667786086	1
7	15615	756356.291049291428	2
7	15623	756576.772671866915	3
7	15628	756666.692682574127	4
7	15632	756668.520941454195	3
7	15635	756715.786067108237	2
7	15646	757732.121530509483	1
7	15653	757966.22796820399	2
7	15658	758171.0353848887	3
7	15662	758305.66851686785	2
7	15666	758724.398934841843	1
7	15670	758776.79371614688	2
7	15675	758943.533600696014	3
7	15680	759415.26712523999	4
7	15685	759439.124189824325	5
7	15690	759486.079890938957	4
7	15703	760103.424537387915	3
7	15747	762423.804883373245	2
7	15751	762754.86266489069	3
7	15760	762791.854151221186	2
7	15774	763129.541099538194	1
7	15796	764517.916636988946	0
7	15814	767262.136136712219	1
7	15822	767629.382109655029	2
7	15825	768771.420682466885	1
7	15841	770077.023806676943	2
7	15849	770570.404812726964	3
7	15852	771315.257940919781	2
7	15858	771804.372812217765	1
7	15877	772536.929579079432	2
7	15882	772787.415354767222	3
7	15887	772864.70201130298	4
7	15895	773377.547866994728	3
7	15907	773448.800384551959	4
7	15915	773853.397565878703	5
7	15920	773871.587206998167	6
7	15928	774031.017867455549	5
7	15942	775396.669336891987	4
7	15949	775514.853012013044	5
7	15953	775649.903276722466	4
7	15960	775904.822170562669	3
7	15964	776053.151909912539	4
7	15968	776210.448816288377	3
7	15971	776249.501102032859	2
7	15975	776438.934635218877	3
7	15988	776936.509435652284	2
7	15991	777011.304769280655	1
7	16001	777533.90818490017	2
7	16014	777826.262704462688	3
7	16037	778433.421173849342	2
7	16045	778877.733955904808	1
7	16061	780342.7626432566	2
7	16063	780361.051996714678	1
7	16081	780950.670939909611	2
7	16086	781713.243052267123	3
7	16098	782099.96502415121	4
7	16108	782280.824681999634	3
7	16116	783121.488094215035	4
7	16120	783129.086687438374	3
7	16124	783281.932411193702	4
7	16136	783952.182123529326	5
7	16141	784113.453985177358	6
7	16145	784264.830446670434	5
7	16150	784381.655493300196	6
7	16154	784415.502340979263	5
7	16158	784532.005268214218	6
7	16167	784583.230492139164	5
7	16170	784601.308541082991	4
7	16176	784687.082512463833	3
7	16179	784755.467175703915	2
7	16191	785111.752537524438	3
7	16196	785142.038207368237	4
7	16206	785230.447836267868	3
7	16229	786662.080958794896	2
7	16232	786809.569656969335	1
7	16249	787925.670664321202	2
7	16254	788004.757895741885	3
7	16259	788024.559045774794	4
7	16264	788202.584501178102	5
7	16269	788248.072509481792	6
7	16281	788464.746155282642	5
7	16285	788766.85509767539	4
7	16291	788941.736174333118	3
7	16301	789915.533390998584	2
7	16316	790953.813583591824	1
7	16321	791160.932447566797	2
7	16326	791256.502203680324	3
7	16331	791353.295399996644	4
7	16335	791720.536925916124	3
7	16339	791838.051729323118	4
7	16343	791866.399231803481	3
7	16347	792102.477828294567	2
7	16354	792431.975239359934	3
7	16359	792504.821923246215	4
7	16364	792654.482454774706	5
7	16369	792987.042266807236	4
7	16372	793366.904034325038	3
7	16375	793572.420909916154	2
7	16399	794380.552308294881	3
7	16404	794543.97261080654	4
7	16409	794660.389894202715	3
7	16413	794721.289105531249	4
7	16417	794870.330738373939	3
7	16429	795335.248595096308	4
7	16434	795512.731840418665	3
7	16442	796296.819262344811	2
7	16446	796912.820306559456	1
7	16454	797117.964256546401	0
7	16470	797869.614789934064	1
7	16479	798451.646338841138	2
7	16483	798500.96659688473	1
7	16487	798730.520502539728	2
7	16508	800221.827504501626	1
7	16516	800386.537731806602	0
7	16529	801355.951919460418	1
7	16549	803106.102881998242	2
7	16554	803197.460258274607	1
7	16586	804345.42596906133	0
7	16593	804386.9976166542	1
7	16597	804572.725032117224	0
7	16605	805311.809121748664	1
7	16610	805393.712588480759	2
7	16628	805551.33363119032	3
7	16632	805567.280891501846	2
7	16649	806313.397692513439	1
7	16657	806532.986131600876	0
7	16662	807069.45597311324	1
7	16690	808625.252270821048	2
7	16695	808735.630921263488	3
7	16710	809215.228911982864	2
7	16713	809334.166341332113	1
7	16736	810153.710615056262	2
7	16738	810535.110506847863	1
7	16754	811953.074404387748	2
7	16756	812141.660278850998	1
7	16774	813041.696021508177	2
7	16779	813087.709911590274	3
7	16783	814356.840351938567	2
7	16792	815620.992734416714	1
7	16810	816617.15471458855	2
7	16817	816805.443610558596	1
7	16825	817001.136336856113	2
7	16830	817580.637506573435	3
7	16835	817685.990115164939	4
7	16849	818081.00814081088	5
7	16857	818751.1199171433	4
7	16860	818794.380354743	3
7	16863	818898.514559200243	2
7	16869	819115.552744675712	1
7	16873	819292.412712315923	2
7	16878	819400.794436277533	3
7	16891	820023.170245458791	2
7	16903	820736.406047274147	1
7	16912	822049.477843249297	2
7	16917	822070.849039909656	3
7	16922	822245.143068080821	4
7	16926	822345.92936556164	3
7	16946	823146.992367943785	2
7	16955	823300.519225132954	3
7	16960	823474.098431875376	4
7	16965	824042.576784638154	3
7	16973	824177.583473621972	2
7	16990	824714.598304111592	1
7	16997	824946.443589074918	2
7	17007	825265.968691132591	1
7	17012	825479.918715979274	2
7	17017	825710.813055292131	3
7	17024	825891.775725913271	2
7	17028	826036.102535832955	3
7	17040	826706.101296020176	4
7	17048	826909.873164170114	5
7	17053	826911.299907442397	6
7	17057	827023.398044188803	5
7	17062	827229.857342244634	6
7	17066	827450.840924188966	5
7	17085	828045.112060764704	4
7	17093	828131.063858326033	3
7	17101	828252.196635261991	2
7	17104	828299.823842421452	1
7	17128	829456.938442734688	0
7	17154	833083.837821714678	1
7	17163	833396.026652415418	2
7	17165	833427.908765598341	1
7	17179	833841.340555164798	2
7	17187	834108.089208407835	1
7	17194	834694.074018102158	2
7	17198	834726.017525508885	1
7	17206	834970.280313644268	2
7	17211	835165.081813239155	3
7	17215	835349.659608065998	2
7	17233	836890.998313184095	1
7	17250	838061.893087140277	0
7	17254	838106.727449199323	1
7	17259	838262.777503066045	2
7	17272	839158.08512888127	1
7	17280	839340.283272584259	2
7	17285	839373.978423277951	3
7	17292	839500.824143994785	2
7	17308	840991.400008223057	3
7	17316	841433.688689305569	4
7	17325	841743.264313794641	5
7	17327	842022.597624149533	4
7	17333	842616.806074172066	3
7	17344	843354.696886199925	2
7	17350	843969.103054307737	1
7	17370	846734.027533978856	2
7	17382	847666.72583055004	3
7	17388	847739.579282149971	4
7	17395	848288.350381312655	3
7	17399	848327.49174348028	4
7	17407	848909.324757720468	3
7	17421	849190.465885729838	4
7	17424	849734.269138192125	3
7	17439	850465.14182841441	4
7	17441	850478.49609964809	3
7	17454	850999.575157620246	2
7	17458	851250.525489349985	1
7	17462	851286.575149895734	2
7	17478	851985.895731385415	3
7	17484	852028.941719364533	4
7	17491	852696.40245202641	3
7	17510	854070.561179636193	4
7	17514	854322.462839453105	3
7	17517	854439.771762962024	2
7	17521	854802.919418967408	1
7	17525	854804.951560990754	2
7	17548	855791.141277971282	1
7	17551	855913.558859030979	0
7	17555	856026.959575218674	1
7	17559	856068.54554422994	0
7	17586	857701.306392513621	1
7	17592	858078.140846976578	2
7	17594	858158.825440865944	1
7	17602	858252.800439215496	0
7	17617	859408.183175690543	1
7	17626	859760.197067218242	2
7	17628	859946.924200212967	1
7	17643	861407.616780417859	2
7	17646	861990.598731429961	1
7	17661	862829.314062412899	2
7	17663	863054.48283135855	1
7	17679	864173.183318111956	2
7	17681	864390.701326740737	1
7	17698	867148.078914349022	2
7	17706	867307.352943298087	3
7	17709	867536.181179874119	2
7	17728	869183.12844578089	3
7	17733	869739.155279586457	4
7	17742	871417.705558561764	3
7	17745	871581.149479997266	2
7	17753	871956.611919917183	3
7	17758	872167.341628806495	4
7	17767	872461.555279783958	3
7	17779	872744.021551945344	2
7	17793	873331.368443705387	3
7	17796	873490.434472712023	2
7	17813	873747.102365720212	3
7	17817	873754.057745411683	2
7	17821	873806.675153137756	3
7	17825	874021.429282434745	2
7	17837	874441.730078526823	1
7	17841	874507.414956757807	2
7	17845	874530.577166769808	1
7	17858	875235.464489581626	2
7	17862	875248.153235000764	1
7	17865	875270.440388255407	0
7	17886	876676.876638379579	1
7	17891	876846.265404648681	2
7	17896	877060.155576190941	1
7	17899	877713.996810811568	0
7	17915	878408.54953489141	1
7	17920	878451.081016180014	2
7	17930	878677.377184820005	1
7	17942	879685.456130447824	0
7	17951	880252.65174121118	1
7	17971	881691.144979725359	2
7	17986	882486.63811651154	3
7	17990	882636.806887245292	2
7	17995	882952.806970204471	3
7	18000	882964.841762017115	4
7	18004	883294.76251944978	3
7	18028	884295.785469654291	4
7	18033	884378.094748297843	5
7	18038	884826.164300159159	4
7	18042	885296.917295846349	5
7	18056	885729.09452543482	6
7	18064	885852.58114139922	7
7	18066	885991.072281929742	6
7	18081	887407.269878178064	5
7	18088	887474.816143896001	6
7	18096	887587.474061959447	7
7	18103	887643.219759538438	6
7	18107	887651.05520552653	7
7	18123	887954.64030582671	6
7	18128	888104.052649689581	7
7	18132	888145.663505759626	6
7	18138	888660.079200379886	5
7	18142	888751.311269046693	6
7	18149	888795.222169794855	5
7	18154	889244.059756613838	6
7	18162	889342.433861091927	7
7	18166	889367.78985667118	6
7	18170	889607.722504700019	7
7	18176	889806.170400645353	8
7	18181	889908.961581066515	9
7	18185	889937.60792699489	8
7	18188	889966.856307892199	7
7	18192	890496.89789186045	8
7	18197	890891.047281382075	7
7	18210	891317.653684958553	6
7	18219	891764.366555089993	5
7	18222	891912.74898823465	4
7	18228	892061.986967800681	3
7	18231	892136.521203972651	2
7	18244	892599.953040607456	3
7	18249	892645.703806434412	4
7	18272	894017.647190795475	3
7	18277	894091.531847711156	4
7	18289	894633.636701185741	3
7	18308	895597.603802491036	4
7	18317	896026.261648894548	5
7	18328	896455.5872512843	6
7	18334	896594.620120571375	7
7	18338	896770.111630185793	6
7	18341	896778.024966641434	5
7	18344	896900.272703029041	4
7	18348	896958.456408215211	5
7	18353	897070.864412263191	6
7	18357	897130.355542107662	5
7	18362	897505.039897548903	6
7	18375	898096.223424145451	5
7	18391	898483.561347715112	6
7	18399	898547.704568064188	7
7	18404	898565.048337651647	8
7	18408	898834.988192170258	7
7	18411	898937.663593904289	6
7	18415	898953.842107587791	7
7	18419	899002.455105662134	6
7	18422	899123.785966129778	5
7	18426	899125.413150959502	6
7	18431	899290.703342172367	5
7	18434	899337.99603681027	4
7	18438	899432.224307762506	5
7	18442	899665.530301360614	4
7	18445	899844.216390468804	3
7	18448	899869.134549003281	2
7	18462	900585.871634473961	1
7	18491	902409.883036225337	2
7	18509	903115.277732396489	1
7	18513	903125.748141275799	2
7	18517	903201.67046297259	1
7	18521	903731.427787770678	0
7	18540	904522.056439871035	1
7	18544	904787.621962703524	0
7	18551	904900.485930857398	1
7	18556	904927.51237334948	2
7	18561	905341.019214155373	1
7	18565	905557.815469777251	2
7	18574	905640.080408895562	1
7	18587	906527.709980747225	2
7	18616	906835.137656884086	1
7	18651	908089.340983212258	0
7	18674	909251.541301055514	1
7	18685	911103.904176453864	0
7	18699	912390.782358635833	1
7	18718	913223.444489496243	2
7	18740	914561.17491548489	3
7	18745	914585.534376636358	4
7	18756	914863.8555562825	3
7	18760	914958.501295629701	4
7	18765	915400.417899825144	5
7	18773	915526.88623144187	4
7	18790	916144.754943473779	5
7	18794	916159.990628438278	4
7	18799	916368.118021128358	5
7	18803	916381.076329603258	4
7	18814	916971.871298540426	3
7	18826	917459.310652442904	2
7	18829	917709.618975247756	1
7	18832	917753.539875369084	0
7	18836	917853.674507023625	1
7	18841	917972.619846200806	2
7	18877	918918.224838604506	3
7	18882	918962.867275476304	4
7	18887	918981.368524246705	5
7	18889	918986.78000086114	4
7	18903	919437.057647981489	5
7	18905	919650.906711920442	4
7	18911	919960.092416960157	3
7	18919	920433.292638514844	2
7	18922	920499.079110489768	1
7	18944	921568.718393220163	2
7	18948	921610.545639523266	1
7	18952	921664.763922581204	2
7	18964	921974.847719324259	1
7	18984	924167.367467820252	2
7	18989	924209.20237982996	3
7	18991	924845.071289583347	2
7	18997	925314.903402505347	1
7	19009	925744.325141257712	0
7	19025	928289.975627018322	1
7	19028	928404.56538438909	0
7	19042	928950.471753452434	1
7	19051	929186.621747513821	2
7	19053	929312.236622644131	1
7	19070	929595.624605435069	2
7	19075	929875.896081223177	3
7	19084	930083.49509084308	4
7	19086	930426.456090307159	3
7	19095	930956.391328406161	2
7	19100	931050.525284647013	1
7	19115	931607.437577653517	2
7	19121	932175.660935909001	3
7	19129	932874.922568586193	2
7	19138	933615.275206062213	1
7	19146	934198.910953648838	0
7	19163	936370.903394366868	1
7	19175	936944.768418828947	2
7	19180	937212.101535178852	3
7	19182	937617.248356323282	2
7	19204	938683.324486116128	3
7	19209	938726.561551104091	4
7	19213	938941.033849940148	3
7	19216	938978.127599463689	2
7	19220	939040.542793234464	3
7	19224	939179.116597380747	2
7	19227	939387.688664214308	1
7	19250	941344.156015967177	2
7	19255	941535.501216032638	3
7	19265	942556.651826539646	2
7	19286	943502.179102968911	3
7	19295	943791.089954520174	4
7	19303	943908.457153163174	5
7	19308	944085.432540344205	6
7	19310	944455.015220620983	5
7	19316	944609.291981304094	4
7	19327	945046.730680125865	3
7	19336	945504.256596903048	2
7	19345	946438.966663783556	1
7	19360	947878.408334179616	2
7	19368	948013.580911294447	3
7	19371	948048.341704977409	2
7	19376	948441.132208971745	1
7	19388	948791.1577215911	2
7	19403	949865.957862459023	3
7	19411	950053.188889226022	4
7	19419	950362.543945727423	5
7	19421	950385.760451336262	4
7	19426	950490.599045265479	3
7	19439	951597.998761354904	2
7	19449	953356.918991744806	1
7	19457	953580.992508605982	0
7	19473	954883.407310448082	1
7	19476	955964.248755346299	0
7	19491	956907.680249379528	1
7	19500	957658.040607397258	2
7	19508	957744.308697396575	3
7	19511	958363.433081176901	2
7	19529	959704.790031548879	3
7	19541	960078.778638130418	4
7	19549	960096.261125565268	5
7	19554	960104.949279944923	6
7	19558	960151.507711180223	5
7	19562	960203.732929629141	6
7	19569	960315.283125616333	5
7	19574	960393.038861281097	4
7	19586	961080.042306270352	3
7	19604	962354.705408830914	4
7	19608	962393.463350102	3
7	19612	963001.405474852094	2
7	19615	963023.750856488245	1
7	19626	963507.932961508868	2
7	19631	963524.107020779458	3
7	19636	964007.606314697722	4
7	19643	964210.577232578084	3
7	19646	964228.264699179495	2
7	19654	964296.759299190301	1
7	19659	964659.327071677579	2
7	19663	965073.552309599899	1
7	19677	966042.020019393132	2
7	19695	966631.41919171204	1
7	19702	966836.48929337946	2
7	19707	966853.875171103073	3
7	19713	966943.080117278555	4
7	19718	967236.356715909501	5
7	19722	967297.906981206982	4
7	19742	967657.861810496106	5
7	19747	967724.286695747118	6
7	19752	967938.947863262978	5
7	19755	967969.832507753846	4
7	19763	968262.148944480813	3
7	19766	968273.98752845843	2
7	19769	968389.672104864446	1
7	19820	971488.502206602452	2
7	19822	971815.538969096158	1
7	19837	972089.801985900337	2
7	19845	972791.395458201684	3
7	19853	972988.970896913298	2
7	19857	973065.369086326071	3
7	19864	973662.353980389135	2
7	19880	974825.478412365864	3
7	19882	975112.570942786391	2
7	19897	975546.800595466592	3
7	19899	975757.258490301746	2
7	19914	976981.378492904342	3
7	19916	976988.474870736576	2
7	19926	978840.076219075794	1
7	19937	980705.921203625633	0
7	19954	981355.537982376193	1
7	19973	983857.686459198064	0
7	19977	984017.063677568282	1
7	19983	984134.388320749196	2
7	19991	984835.954772455547	3
7	19997	985064.104515653726	4
7	20001	985274.063173020733	3
7	20005	985492.059812659072	4
7	20009	985505.222107446689	3
7	20015	985568.242959216097	2
7	20019	986491.316460230541	1
7	20027	986853.447186207168	2
7	20035	987202.673211658051	3
7	20043	987411.444912785785	4
7	20048	987602.751479893232	3
7	20052	987833.432587850484	4
7	20057	987871.122563381545	5
7	20072	988371.437463923531	4
7	20075	988473.596644021727	3
7	20089	988904.644093647736	2
7	20098	989299.228350390729	1
7	20102	989495.881885016328	2
7	20107	989546.970372961903	3
7	20111	989571.953187143055	2
7	20130	990242.741904217551	3
7	20135	990349.682267783383	4
7	20142	990533.500813790866	3
7	20145	990773.935992823323	2
7	20149	990848.22786032341	3
7	20155	990959.886890387412	4
7	20164	991024.334042320408	3
7	20172	991403.735591931981	2
7	20187	991570.097261794616	3
7	20192	991669.909837078121	4
7	20202	991883.218918157901	3
7	20205	992143.81815869992	2
7	20239	993086.701652091637	1
7	20262	993628.38975307434	2
7	20271	994827.787479162886	3
7	20280	995383.049859251254	4
7	20294	995809.93158129279	5
7	20299	995838.743573511484	6
7	20307	996067.015819755558	5
7	20310	996191.83893656557	4
7	20314	996202.741713738088	5
7	20319	996447.337301808834	6
7	20336	996798.850864123854	5
7	20341	996915.660075625356	6
7	20353	997044.900191493403	5
7	20356	997117.796498446117	4
7	20360	997144.217819510584	5
7	20372	997543.982899146241	4
7	20375	997575.221661982918	3
7	20379	997582.255808728525	4
7	20389	997864.717458972804	3
7	20392	997959.204661834728	2
7	20419	998915.605699129547	1
7	20423	998942.031088170608	2
7	20437	999487.016830504746	3
7	20444	999887.128147917213	2
7	20449	1001001.071672159492	3
7	20453	1001135.103687052183	2
7	20462	1001428.42967257099	1
7	20473	1001881.462540175665	0
7	20491	1005104.746889492608	1
7	20493	1005392.011831265309	0
7	20512	1006431.779601682215	1
7	20517	1006440.941337569263	2
7	20519	1006878.328310187584	1
7	20537	1007422.189225425688	2
7	20542	1007660.29031410462	3
7	20544	1007957.543151840551	2
7	20550	1008103.852544585048	1
7	20561	1008671.415666189107	0
7	20579	1009058.450887428734	1
7	20584	1009275.883961952742	2
7	20595	1010070.99137973507	1
7	20599	1010236.784965849171	2
7	20607	1010517.142529820142	3
7	20612	1010711.938907504477	2
7	20615	1010713.185671958616	1
7	20619	1011563.469551547483	0
7	20623	1011690.564517029106	1
7	20652	1012625.058164821273	2
7	20660	1012826.957118342654	3
7	20663	1013543.539389793714	2
7	20677	1013943.527756936762	3
7	20680	1014821.382512363551	2
7	20689	1015301.185754008146	1
7	20702	1015474.615424445363	0
7	20707	1015750.413499443973	1
7	20720	1016101.384317134996	2
7	20728	1016882.769538761794	1
7	20733	1017901.378820810554	2
7	20741	1019062.192086017998	1
7	20756	1019901.504850418607	2
7	20764	1020007.691082575559	3
7	20767	1020195.149418570391	2
7	20782	1021583.223352745755	3
7	20785	1021763.225059377806	2
7	20806	1022610.62336621159	3
7	20811	1022719.176274997017	4
7	20816	1022940.063844226944	5
7	20818	1023113.420989036203	4
7	20827	1023663.370170993103	3
7	20841	1023904.858260916799	4
7	20843	1024042.356894579678	3
7	20859	1025366.282238262459	4
7	20861	1025794.086533553297	3
7	20870	1026276.886930908619	2
7	20887	1026450.20220466967	3
7	20891	1026558.401059287124	2
7	20895	1026686.354484561337	3
7	20899	1026813.664019385281	2
7	20919	1028670.297736322326	3
7	20929	1030398.240453549912	4
7	20931	1030713.413943903366	3
7	20937	1031398.716978341075	2
7	20946	1032202.561275481621	1
7	20965	1034026.875028239633	2
7	20976	1035090.807199501935	1
7	20983	1035164.384351701	2
7	20988	1035601.353876320462	1
7	20994	1036205.732333962716	0
7	20998	1036305.333605979487	1
7	21004	1036334.471089250131	2
7	21009	1036525.905161687164	3
