version 2
run ParkingMeasurement-131-20170108-17:27:54-4091
attr configname ParkingMeasurement
attr datetime 20170108-17:27:54
attr experiment ParkingMeasurement
attr inifile parkingStudy.ini
attr iterationvars ""
attr iterationvars2 $repetition=131
attr measurement ""
attr network controltower.SimNetwork
attr processid 4091
attr repetition 131
attr replication #131
attr resultdir results
attr runnumber 131
attr seedset 131
param SimNetwork.a.parkingLot.parkingDelay exponential(30min)
param SimNetwork.a.runway.landingTime exponential(5min)
param SimNetwork.a.runway.takeoffTime exponential(5min)
param SimNetwork.a.runway.throughputCheckInterval 14.286min
param SimNetwork.wg.interArrivalTime exponential(14.286min)

statistic SimNetwork.wg 	responseTime:stats
field count 1146
field mean 5250.3105018372
field stddev 3235.739211696
field sum 6016855.8351055
field sqrsum 43578520820.887
field min 488.6249502637
field max 27985.799345315
attr source  responseTimeSignal
scalar SimNetwork.a.landingQueue 	queueLength:timeavg 	0.42451717181521
attr source  queueLengthSignal
statistic SimNetwork.a.landingQueue 	queueLength:stats
field count 2292
field mean 0.9738219895288
field stddev 1.121285140532
field sum 2232
field sqrsum 5054
field min 0
field max 8
attr source  queueLengthSignal
statistic SimNetwork.a.landingQueue 	queueTime:stats
field count 1146
field mean 346.25034591083
field stddev 490.24218346529
field sum 396802.89641381
field sqrsum 412579461.36559
field min 0
field max 4183.4633607791
attr source  queueTimeSignal
scalar SimNetwork.a.takeoffQueue 	queueLength:timeavg 	1.999423085661
attr source  queueLengthSignal
statistic SimNetwork.a.takeoffQueue 	queueLength:stats
field count 2292
field mean 2.8970331588133
field stddev 4.3430835166701
field sum 6640
field sqrsum 62450
field min 0
field max 25
attr source  queueLengthSignal
statistic SimNetwork.a.takeoffQueue 	queueTime:stats
field count 1146
field mean 1633.3323151309
field stddev 2401.0202734388
field sum 1871798.8331401
field sqrsum 9658078136.3083
field min 0
field max 12611.910674411
attr source  queueTimeSignal
scalar SimNetwork.a.parkingLot 	parkingOccupancy:timeavg 	2.2846333251589
attr source  parkingOccupancy
statistic SimNetwork.a.parkingLot 	parkingOccupancy:stats
field count 2292
field mean 2.8760907504363
field stddev 1.654433322093
field sum 6592
field sqrsum 25230
field min 0
field max 10
attr source  parkingOccupancy
