file 363723 1483892873                                          
version 2
run ParkingMeasurement-123-20170108-17:27:53-4059
attr configname ParkingMeasurement
attr datetime 20170108-17:27:53
attr experiment ParkingMeasurement
attr inifile parkingStudy.ini
attr iterationvars ""
attr iterationvars2 $repetition=123
attr measurement ""
attr network controltower.SimNetwork
attr processid 4059
attr repetition 123
attr replication #123
attr resultdir results
attr runnumber 123
attr seedset 123
param SimNetwork.a.parkingLot.parkingDelay exponential(30min)
param SimNetwork.a.runway.landingTime exponential(5min)
param SimNetwork.a.runway.takeoffTime exponential(5min)
param SimNetwork.a.runway.throughputCheckInterval 14.286min
param SimNetwork.wg.interArrivalTime exponential(14.286min)

vector 0  SimNetwork.wg  responseTime:vector  ETV
attr source  responseTimeSignal
vector 5  SimNetwork.a.runway  landedThroughput:vector  ETV
attr source  landedThroughputSignal
vector 6  SimNetwork.a.runway  tookoffThroughput:vector  ETV
attr source  tookoffThroughputSignal
vector 7  SimNetwork.a.parkingLot  parkingOccupancy:vector  ETV
attr source  parkingOccupancy
vector 4  SimNetwork.a.takeoffQueue  queueLength:vector  ETV
attr source  queueLengthSignal
vector 3  SimNetwork.a.takeoffQueue  queueTime:vector  ETV
attr source  queueTimeSignal
vector 2  SimNetwork.a.landingQueue  queueLength:vector  ETV
attr source  queueLengthSignal
vector 1  SimNetwork.a.landingQueue  queueTime:vector  ETV
attr source  queueTimeSignal
0	1453 46457 1939 20119 100266.009384855905 1035954.810687553792 1071 630.15545833754 17452.719765967 5403167.8571629 35787726349.105
1	47910 41956 1953 20124 100614.351208859439 1036230.748363210469 1067 0 2813.448688463 418412.14003111 457265805.09355
2	89866 62936 1948 20124 100584.475256363006 1036230.748363210469 2134 0 8 2155 5059
3	152802 42439 1945 20133 100575.554448539554 1036607.092608575687 1071 0 12090.529620404 1431187.9293449 5878402679.51
4	195241 63194 1943 20133 100575.554448539554 1036607.092608575687 2142 0 23 5025 34507
5	258435 21125 1941 20126 100287.72 1036306.44 1093 0 6 1068 2228
6	279560 21125 1941 20126 100287.72 1036306.44 1093 0 7 1075 2485
7	300685 63038 1942 20130 100575.554448539554 1036607.092608575687 2138 0 10 5661 20473
