version 2
run ParkingMeasurement-61-20170108-17:27:41-3736
attr configname ParkingMeasurement
attr datetime 20170108-17:27:41
attr experiment ParkingMeasurement
attr inifile parkingStudy.ini
attr iterationvars ""
attr iterationvars2 $repetition=61
attr measurement ""
attr network controltower.SimNetwork
attr processid 3736
attr repetition 61
attr replication #61
attr resultdir results
attr runnumber 61
attr seedset 61
param SimNetwork.a.parkingLot.parkingDelay exponential(30min)
param SimNetwork.a.runway.landingTime exponential(5min)
param SimNetwork.a.runway.takeoffTime exponential(5min)
param SimNetwork.a.runway.throughputCheckInterval 14.286min
param SimNetwork.wg.interArrivalTime exponential(14.286min)

vector 5  SimNetwork.a.runway  landedThroughput:vector  ETV
attr source  landedThroughputSignal
vector 6  SimNetwork.a.runway  tookoffThroughput:vector  ETV
attr source  tookoffThroughputSignal
vector 2  SimNetwork.a.landingQueue  queueLength:vector  ETV
attr source  queueLengthSignal
vector 1  SimNetwork.a.landingQueue  queueTime:vector  ETV
attr source  queueTimeSignal
vector 7  SimNetwork.a.parkingLot  parkingOccupancy:vector  ETV
attr source  parkingOccupancy
vector 4  SimNetwork.a.takeoffQueue  queueLength:vector  ETV
attr source  queueLengthSignal
vector 3  SimNetwork.a.takeoffQueue  queueTime:vector  ETV
attr source  queueTimeSignal
vector 0  SimNetwork.wg  responseTime:vector  ETV
attr source  responseTimeSignal
0	1875	104165.971963412348	5390.0035856579
0	1880	104403.392600641352	6378.2107902736
0	1917	105433.836357784412	2127.3652831563
0	1922	105585.879626124092	905.30644864792
0	1943	106766.216741786883	2211.8766079884
0	1958	106848.641878439867	4404.3334659064
0	1967	107555.544977760358	5363.7092322589
0	1972	107736.134948302537	1821.4622953828
0	1980	107971.817423405874	3244.8037700295
0	1989	108276.831206810742	6188.1700852643
0	1997	108628.067581784314	7093.9004617852
0	2023	109853.17722599546	1121.4596458895
0	2064	111403.367783375424	5078.8228789377
0	2073	111690.76924178766	1450.2874689083
0	2092	112286.728340025922	2879.2532322703
0	2098	112562.985165484731	2412.0925074687
0	2107	113938.180305809801	2693.1940251998
0	2264	121539.053301674058	9647.9474374448
0	2270	121790.490755995167	11851.263308796
0	2275	122093.537338050256	7860.364371388
0	2283	122310.509520218931	7604.934778716
0	2326	123654.994275265254	9325.1807521712
0	2341	124003.899245590428	8148.0623025554
0	2350	124374.334605081062	7931.8795293498
0	2358	124469.271893171052	7756.8284725895
0	2363	124705.223134106058	8678.5539880579
0	2368	124760.978984428022	6445.0781825274
0	2373	124844.723824295726	6584.9108625285
0	2378	124875.589742915252	5385.4609492583
0	2393	125475.139248010681	6174.0012298803
0	2422	126103.376361206526	4003.7556344922
0	2427	126104.510582212144	3491.8145116173
0	2435	126263.284715457224	5882.2098702481
0	2452	127069.364386515666	7002.6976812689
0	2474	127923.404362332618	5261.1351998695
0	2479	128121.41591457436	3209.4140734857
0	2484	128196.043564208429	1964.2851090351
0	2496	128983.095493424982	3876.3161207315
0	2507	129257.311102466774	3238.9969329884
0	2521	129686.109392460356	6656.7408433162
0	2526	129959.638045408943	2680.5732959821
0	2534	130056.817690433692	6968.0095615506
0	2546	130756.377121305577	4200.5515465233
0	2560	131298.68744023752	6229.3718501548
0	2568	131779.261437092185	2683.3470938099
0	2638	136355.382869259955	3301.5627374814
0	2646	136576.496936872203	2945.5373228448
0	2657	136646.016496153533	6045.026675455
0	2662	136887.191368532267	2321.1323881471
0	2671	137217.423510506555	4237.1244734032
0	2696	138397.514984080334	4051.1280197112
0	2713	139257.866630695329	4203.7467897476
0	2721	139582.741531376532	2266.7524777025
0	2730	139719.122428174805	2240.9287278886
0	2756	142087.490871278949	9126.8207992868
0	2770	144078.719423498858	3890.0453011674
0	2800	145403.173847100875	4485.855975395
0	2809	145756.793241881809	1945.4569781596
0	2824	147303.289771186628	8839.0366461762
0	2851	148079.889619158123	3749.5473592861
0	2860	148843.22117513485	1876.6275678626
0	2910	152408.890942610809	4608.8680184558
0	2924	152802.40476828418	8311.1982435007
0	2929	152888.664558010871	2549.8405612578
0	2948	153319.142008699801	3583.0677150509
0	2954	153434.518135612507	3041.4755650361
0	2987	154943.429822105456	7610.6136659215
0	3005	156538.467957865107	5681.1771775139
0	3016	156836.784704149408	3754.5557077189
0	3036	157118.282199446188	3138.183691316
0	3061	157980.80220124873	2576.3498474204
0	3078	158887.179076289822	6700.7576650603
0	3083	158962.069788993125	1998.3414299725
0	3091	159368.655898799729	2659.7202357097
0	3100	159822.238818416051	5783.5441839543
0	3109	160400.58662616291	3356.6734586792
0	3124	162141.093146612225	4205.7462231298
0	3141	163182.643374669143	3070.6369794607
0	3176	165475.220949918514	11036.441743839
0	3184	166037.274703079074	2596.1266063838
0	3193	166639.588787422661	2767.0945984428
0	3227	168651.478841765888	1942.7378421997
0	3260	170274.870485882278	2432.9202231945
0	3284	171066.59264171464	6408.0190642835
0	3298	171523.19496101716	4011.9218196644
0	3303	171636.277186739243	1869.1861875962
0	3318	172626.277913666094	2655.8161111221
0	3332	173234.215714595253	10844.876786468
0	3337	173364.867268384056	3162.3810776747
0	3345	173410.006511049946	4508.2221874849
0	3354	174199.178142109456	3200.6354935353
0	3372	176435.319531482438	4179.1234724558
0	3393	180340.274094488877	5051.3601400143
0	3411	181845.33087996261	2677.3052767858
0	3428	183373.807208527139	2969.1930026535
0	3451	188746.025952954546	5907.6557636266
0	3477	190647.046104888266	1081.5536356397
0	3506	192519.68124448119	2571.8342706683
0	3530	194777.702764107999	8039.5015646665
0	3606	197387.392082751344	5922.5743727444
0	3631	198066.65049607452	5706.6596252278
0	3639	198175.118195614537	6507.7304218959
0	3660	199045.232548667975	4154.4244521344
0	3665	199175.799230891951	3320.497970879
0	3670	199307.029160594853	4294.7272677136
0	3675	199359.547432672149	3430.6419025604
0	3680	199475.797263718996	2787.0374955436
0	3685	199485.383197302347	3635.089717928
0	3691	199735.42149391908	3957.0430798969
0	3699	200276.620142563887	7707.9502095047
0	3759	202654.94080469526	5306.1576330792
0	3769	202868.667525060847	5232.7429456804
0	3778	203640.996548978221	2824.9240297043
0	3789	203860.228901081434	2887.0724559143
0	3809	204285.594063820911	2677.5767578473
0	3828	205031.877845301327	5295.6838237396
0	3836	205354.743579367791	3914.6968144099
0	3841	205397.282833901503	2868.6939007275
0	3849	205523.133045471166	1534.5408620447
0	3874	206052.904685647939	2202.0262881984
0	3882	206251.140752825896	2022.4925369972
0	3907	207252.714607734636	1746.4923955192
0	3912	207335.591257703951	1807.840422844
0	3953	209155.691241521831	2682.4527257942
0	3958	209290.871590286703	3208.6328706079
0	3966	209369.049423155458	1854.6576735747
0	3993	209935.703376557922	2003.1155273922
0	4015	211235.647128366817	3715.4428935492
0	4073	213614.598279196756	4267.8490515236
0	4088	214876.898107472433	4300.8281386634
0	4097	215429.800067269011	2652.6914822186
0	4105	215849.515343773625	6393.5559455837
0	4116	216293.32938130258	6062.2205907693
0	4127	216488.807284457057	5716.9392445577
0	4157	217492.547905681424	7015.4661237266
0	4162	217641.447525520455	6573.1207414003
0	4171	217821.741872266159	1363.6172492675
0	4179	217893.819725088471	4697.6764962351
0	4208	219450.065448195783	2996.8042833318
0	4231	220340.083875995538	3473.6658867533
0	4246	220564.837315726334	5068.4585725823
0	4254	221038.719651941113	3187.4815438047
0	4268	221760.231722561031	3862.4979061037
0	4274	222124.406503704461	2384.9063808298
0	4300	224392.696804597086	3756.5289639836
0	4321	225518.222364895312	5298.452142203
0	4351	228111.388486371388	5563.8547900136
0	4365	228596.855119372008	5391.6507091488
0	4394	230403.044900897233	11451.409330384
0	4410	231128.068190542105	6412.0201735847
0	4415	231178.647487516163	4179.959505451
0	4423	231374.412240636163	5915.5294828168
0	4429	231623.13358688573	3332.15425114
0	4447	233479.791572889705	5043.9161003277
0	4462	234845.665357452871	4726.8512211515
0	4473	234873.640110843041	4614.9959882485
0	4485	236392.740660226116	3304.3440818649
0	4511	237586.507669838336	3210.8936384659
0	4519	237993.612011337666	2137.0370090467
0	4563	241260.494096575577	2381.1147017886
0	4649	243684.177307422229	4574.1122692168
0	4654	243819.519146331872	2640.6509256653
0	4665	243911.381620318834	6137.7430182959
0	4670	244061.816295915628	2253.7636387852
0	4685	244529.620487091355	2703.8762659964
0	4774	248207.425828626642	5974.4983297266
0	4785	248578.079210582726	11910.127346265
0	4793	248741.99645183778	4420.8301466435
0	4798	249000.578422860722	7499.3053796573
0	4803	249247.025677474231	6417.3062489817
0	4809	249437.743363198562	9432.021150065
0	4814	249966.663531641645	5158.1844995948
0	4819	249981.449131270915	7864.5962100184
0	4831	250481.245144826625	9056.6303828479
0	4841	250702.030678315931	6122.2030695796
0	4849	250780.349835969939	9452.1648176893
0	4861	251168.904222643035	5378.3525241896
0	4874	251678.636145744738	5428.2133147171
0	4879	251707.500245368071	6291.3663947254
0	4884	251819.824546717706	3668.9445265979
0	4894	253029.295333205788	8483.8576023495
0	4914	254117.986135209511	3972.9120929956
0	4919	254131.906745816229	3108.5475012404
0	4979	257297.860815329948	3317.3195680784
0	4987	257651.260135840095	1539.7570028731
0	4995	257857.029584685521	2378.4865769153
0	5042	260006.329064911915	5811.1491313602
0	5072	260925.362530740914	5905.9903170638
0	5077	260928.450252758331	4443.7866704495
0	5082	260947.274080439019	4494.8710224477
0	5090	261278.897098687414	3359.2648033742
0	5095	261307.443312420156	2216.1610775546
0	5105	262827.474794945161	3823.06436377
0	5117	263902.137981838535	5351.3765688056
0	5139	264680.654969022618	6323.2293378867
0	5156	265191.62063847306	840.00422701661
0	5189	265991.815023409865	2200.1335298073
0	5198	267117.022643379137	2348.8270514913
0	5210	267627.217130663249	2361.2171842873
0	5215	267829.344846709779	2430.4907431916
0	5223	268195.535698914952	7790.7824944964
0	5274	270521.975778643664	4574.6385453915
0	5289	271248.747933192148	1810.3709501746
0	5312	272195.313273580714	3200.9186665386
0	5333	272796.757698700052	3892.2737934647
0	5347	273037.113125100704	3331.7070473596
0	5353	273601.664540726814	2468.248885083
0	5368	274364.698042960845	2195.3016288855
0	5381	275028.327419584951	6829.7128684317
0	5392	275279.56123391037	3187.0326792938
0	5412	276186.872800977419	4010.1237000244
0	5433	276563.547416971884	2788.209226853
0	5462	278454.434853131656	2438.7696246517
0	5467	278474.379011862694	2136.6270407215
0	5476	278803.861350835088	1556.8471723334
0	5496	279588.315111525802	4632.3988177351
0	5518	280582.956370728577	1069.9288014447
0	5527	281816.071640066296	2878.9623367967
0	5568	284439.196331131834	2574.9627239208
0	5579	285058.669221300329	2707.5584176233
0	5592	286513.956095827953	8549.9661991518
0	5597	286531.015935120345	6618.3464818971
0	5605	286908.098683300162	4295.4304516254
0	5639	288558.474127621091	4119.3202253358
0	5656	289676.949933524551	14260.487231591
0	5669	290776.469902584164	3155.0474535518
0	5674	291374.611402017226	3791.968580296
0	5717	292897.90725417312	5644.8683584203
0	5750	293360.150009950683	4447.6397904197
0	5755	293808.029919483591	2396.0732944025
0	5760	293870.870756666917	1742.5067233821
0	5772	294344.330311513992	2363.4963121725
0	5807	295215.721325387617	2865.2890983222
0	5815	295303.274932473889	1334.602692279
0	5840	295908.597665501398	3172.3836192573
0	5848	296415.102780488347	3271.8739645007
0	5857	296834.928539468337	2767.9821757827
0	5865	297108.366988942605	1763.7221272552
0	5882	297515.356998596684	1805.8536857474
0	5890	297827.718998620958	3304.2317651
0	5909	300241.713831731066	5599.017287779
0	5927	301772.517669360205	4531.5063469339
0	5945	303586.435704002833	5512.7537883132
0	5956	304288.198189457966	3977.247305155
0	6007	308171.405505813299	5623.8317322665
0	6016	308916.424376575067	3295.3180487131
0	6026	309093.997971173845	4839.1710624594
0	6035	309868.783856931693	3612.3301607689
0	6040	309903.089832003383	3386.9421412535
0	6065	312097.290712235623	3644.0771036902
0	6173	315126.013418836373	3397.8215654124
0	6181	315416.661119969336	3512.7725305464
0	6187	316030.805362617897	5505.6670289902
0	6192	316047.681399065349	3725.9126275224
0	6200	316227.314235015822	3832.0661210176
0	6220	316582.02641543214	3999.8129488459
0	6237	317330.965799992174	4787.9470161137
0	6242	317355.739003791527	4203.8913003308
0	6247	317496.268373380396	4516.2478282019
0	6252	317748.905882447034	3240.7020410974
0	6257	317847.115502499654	3543.0676437466
0	6275	319249.655333497263	3141.4028125896
0	6295	320410.934164288332	5950.8944181379
0	6326	321600.443230123431	5112.8265238372
0	6346	322667.960611097237	3371.6879523403
0	6367	323311.176377485346	2316.2048518543
0	6396	324448.434884249583	3149.6431618011
0	6401	324497.271537096691	5699.4923556977
0	6412	324844.929467329181	1693.4844462571
0	6418	325194.058352274408	2413.5768847731
0	6435	326068.660457147501	2887.6241092345
0	6456	327851.142450892114	4622.810529233
0	6465	328303.215579335951	2688.0825333711
0	6478	328384.726994023714	6491.2423991587
0	6489	328906.046760669181	8617.0686280082
0	6558	331755.341024494841	3897.4611256588
0	6568	332069.146384945261	2941.3937436898
0	6580	332812.728179067613	5465.5208554639
0	6598	333196.04850966973	2945.4339704566
0	6609	333423.594846579595	4518.3081886649
0	6618	333592.019429053068	2450.1529092519
0	6626	333804.57202959669	3901.7851975429
0	6631	333887.558882892772	1429.3598632209
0	6639	334076.62489412612	4609.449380642
0	6673	335156.277665002866	4750.0993246638
0	6684	335503.348284246142	1452.2325199878
0	6697	335851.374012015475	1741.6703032726
0	6730	337748.850234215512	2346.1985835096
0	6755	339255.400639565999	5027.4455726819
0	6771	339436.76067663754	6492.077395243
0	6779	339523.545481155501	2073.2233535872
0	6790	339920.799733893839	3769.7118949182
0	6818	341149.549130987241	2210.535750063
0	6845	342187.812167827399	3326.4357251133
0	6968	345520.978375635365	9774.1961276056
0	7004	346986.030438580758	6855.3898025819
0	7009	347089.830470037916	7190.6827479946
0	7015	347176.643771687697	6127.9188244001
0	7030	348214.765759011808	5398.3121730771
0	7048	348669.632562192369	6426.4480798845
0	7063	349594.19182990837	12005.26684654
0	7088	350393.930743592756	7077.6504805124
0	7129	352495.486597429974	8066.9123240506
0	7134	352612.929541591657	8155.6643294598
0	7139	352633.775252899905	7990.2153396911
0	7144	352647.197612252205	10110.618294316
0	7149	353005.711778053839	7521.963307958
0	7174	354267.373913995694	12219.850128969
0	7209	355695.439879252352	9921.1821824235
0	7214	355706.849965994755	12324.13634345
0	7220	355849.61956346843	14310.905712283
0	7228	355994.417853808793	8166.9915047091
0	7239	356737.772019642504	15012.602254354
0	7253	356966.331676322888	8761.7545451475
0	7280	357907.959009573451	13850.505650269
0	7288	358050.993952480312	9343.0685948343
0	7294	358298.073503949641	9229.1737186688
0	7311	358987.201655368553	8248.5777157714
0	7326	359093.081484005061	8741.5718475388
0	7331	359099.197244185488	5859.4845737986
0	7343	359364.156033592571	5681.8803281893
0	7365	360455.117016620068	14340.728812822
0	7370	360494.863714020654	6074.4825927932
0	7382	361051.243910393385	9838.9153566681
0	7400	361388.191294361043	4635.4832855121
0	7405	361437.247689853081	7735.7232113923
0	7416	361620.573186833998	5684.5670825532
0	7433	361999.490164373371	3324.7693213503
0	7443	362182.773275013321	5420.7513747275
0	7455	362998.83693027775	3793.651664249
0	7463	363289.282619809345	2723.8136094144
0	7468	363290.006690774673	4599.4027730786
0	7477	363603.95209061768	6180.6325651693
0	7487	364274.317439999836	3282.4933310475
0	7525	365618.112747769668	2200.1601612293
0	7549	366533.535154783502	4545.8804602272
0	7563	366795.669313117047	1935.1406029135
0	7577	367136.483521423016	2665.1379800735
0	7585	367626.764572773888	3155.6989273202
0	7591	367956.078570590239	2790.7758211889
0	7599	368310.040871344979	8946.876249147
0	7604	368447.255639715806	3160.9226472166
0	7655	370673.479329873014	1801.7576036683
0	7663	370919.965369380188	2175.334302024
0	7694	371655.181867478017	2074.1573025937
0	7706	372012.764626765062	10411.557481171
0	7716	372690.679703591688	5897.9903995982
0	7725	373282.452642930603	4121.2879703107
0	7753	374393.59672753885	3135.1465375849
0	7773	375195.598888106799	4972.2347916721
0	7795	375866.213833249876	4000.3206704766
0	7800	376147.427104822984	3233.8217526683
0	7809	376361.767963363655	5148.2091546507
0	7814	376462.252831841682	3115.9737547186
0	7823	377173.571399900397	2344.2403833856
0	7865	379518.47740238759	5684.4159625398
0	7909	381623.678279790086	2954.0666036166
0	7992	385046.124248258853	10194.272077291
0	8004	385951.436124459574	7128.2235411371
0	8026	386800.208346961365	7649.9138575373
0	8031	386814.663120640935	6685.2850904827
0	8036	387119.949373878973	6329.9112139351
0	8048	387883.463847210671	6577.1181346284
0	8072	389253.811408165843	11745.5091609
0	8108	390202.97020884808	7794.1901438032
0	8126	390530.902721083133	7957.8106976459
0	8131	390666.103153048589	6803.5897749227
0	8136	390732.008159108075	7001.7294550357
0	8147	390812.633316073145	9130.5659135547
0	8164	392332.383840329413	10389.785917363
0	8175	392467.31393983849	6598.9962083068
0	8184	392593.279442186238	4072.8509231535
0	8189	392597.792527780047	12866.798015757
0	8194	393019.700376697614	4291.3566399452
0	8202	393268.45149416538	6137.4266867216
0	8207	393384.825874901632	3927.5265195259
0	8213	393545.125439066511	3917.8985894169
0	8221	393735.890178419889	3845.4214530033
0	8232	393919.298617922293	8546.711190295
0	8249	394555.794421140366	3757.8560956128
0	8289	397080.227352421805	6270.7680314468
0	8309	398226.310857157472	3963.4486469009
0	8317	398526.832376458842	4652.3786563004
0	8322	398552.426453845456	4014.21180198
0	8328	398645.184902697864	2333.4288565367
0	8336	399063.674085120308	4058.4771368906
0	8390	401269.171361199636	1726.9625983352
0	8395	401512.205536075676	4504.2131270954
0	8410	402262.03039713019	2549.5341659155
0	8420	402407.96918756063	2277.62829114
0	8444	402768.552238478256	869.40933077523
0	8453	403077.477123161608	638.1783239413
0	8471	404364.430366322633	4061.0856093262
0	8505	405598.702784521174	2191.2497927862
0	8524	406374.094887867431	2982.0014657516
0	8538	407121.768450381057	6451.146398717
0	8547	407688.165441764395	2428.3810059916
0	8561	408047.691116111102	5520.3498128758
0	8566	408205.325685173439	4133.7921270454
0	8571	408722.457960777943	2960.9395129827
0	8607	412090.932925066033	1869.8592445489
0	8625	413845.449201521763	3561.283423412
0	8634	414261.338367013511	3373.9488009161
0	8650	414612.917512329869	7170.2378758956
0	8676	416248.413011643865	3870.1113273076
0	8684	416330.150666476754	1875.6166397352
0	8693	416805.483765350609	1757.3188960263
0	8755	419429.603125272794	1991.4751298734
0	8770	420238.366876715455	4783.7972664075
0	8780	420408.52303781387	2138.830053671
0	8788	420600.3879593888	3075.2719854768
0	8796	420798.679429839875	3316.295107649
0	8819	421963.723511561962	3660.4026919187
0	8846	423806.188190277284	4096.2806140737
0	8854	423934.817578692358	5131.6528048405
0	8901	425579.550462201962	3859.4320421637
0	8906	425685.274744042529	5079.4474676657
0	8918	426155.146695951161	3855.8031714857
0	8928	426250.951912548272	2384.8667538807
0	8994	428580.716278487895	3878.8358254173
0	9005	429161.755218432132	4412.9003867182
0	9022	430079.883257557639	6115.4214115551
0	9041	430701.901018684337	3687.1133312584
0	9049	431097.152620510104	4383.4953079865
0	9054	431110.125912842053	3816.1623238807
0	9060	431199.265224796276	5222.8924035445
0	9074	431789.337139584146	6958.7955387561
0	9093	432718.935478650406	5292.400761186
0	9112	434039.783173460768	3960.9289511999
0	9122	434418.777251970989	5818.721043997
0	9137	434963.962783887836	8361.8519909487
0	9158	437369.542284113636	5681.029385338
0	9163	437450.923337099143	7124.9640010286
0	9168	437703.948642616535	5856.5699422869
0	9173	437836.814512494722	4457.1342951137
0	9229	440837.133099690286	6359.2142400201
0	9274	442733.432146190017	4416.6994447508
0	9279	443088.128834749771	8355.5940139356
0	9284	443122.471511399541	4894.7525870549
0	9306	444612.304519086921	5309.4915580762
0	9362	447228.621576175724	7786.7538558572
0	9384	447920.521007505295	6855.2836158088
0	9389	448046.516478832709	6507.3440881355
0	9397	448224.345283651043	8247.9348889012
0	9408	448944.024825928598	7009.620010933
0	9413	448977.630209969064	4785.7216987851
0	9425	449718.563180906071	6481.1846247387
0	9444	450391.077991836436	6011.5498667326
0	9453	451089.285113056126	3018.875409767
0	9461	451233.233944315411	4382.192644667
0	9472	451339.321567735543	7010.656268122
0	9498	452736.674108013226	5879.0690049536
0	9503	452856.504473323892	1578.4982014108
0	9530	454669.571769484826	9604.948345026
0	9606	457582.992094531275	7390.1704698403
0	9615	457727.545788624274	14507.099839882
0	9634	458129.916174831402	6488.8500411178
0	9639	458259.62704952011	9054.8837242541
0	9657	458772.589468007872	5634.5047853056
0	9724	461713.040546489708	7139.2776457678
0	9729	461752.070784461176	7910.3587058158
0	9735	462247.133445715668	6788.4441073774
0	9744	463001.802859544092	6194.9104486308
0	9755	463222.153973527411	6369.9972834679
0	9780	463920.026240630439	8761.9349239681
0	9785	464185.156779793849	5804.3902230117
0	9794	464847.925234014365	6313.2346464131
0	9803	465481.199645374855	7886.505080092
0	9813	465591.322667632062	7193.038019917
0	9818	465964.961653430644	6646.687491743
0	9823	466156.052512445593	9638.7014901488
0	9829	466412.255838187032	7444.2013729653
0	9840	466960.146859001844	6300.9932940205
0	9854	467330.434749428245	7404.5024919655
0	9859	467331.638739788458	4225.4750048364
0	9867	467805.651465536013	2575.7465999405
0	9889	468631.38322439709	1199.7653292717
0	9919	470591.69633763973	3935.1853987078
0	9927	470803.489104485849	7701.3997625265
0	9935	471027.852433799916	2106.0539084534
0	9949	471888.292892002322	3584.6843417391
0	9958	472865.060352418727	3817.6323913945
0	9976	474246.72048175169	3227.0506785891
0	10019	478574.724102525772	2215.2303645385
0	10040	479092.199146009733	947.14629962949
0	10046	479306.587991743204	2876.7331743111
0	10058	480453.86307726113	4038.6752278276
0	10072	480825.777338081175	7572.5673323553
0	10122	482640.974890449064	4392.5472338878
0	10130	483004.10711678294	2327.2760641952
0	10151	484705.713520082395	3430.869535082
0	10172	486255.531392069468	3831.5612767367
0	10182	486601.668201876936	6044.6625045105
0	10190	486646.081982058841	5737.5399463072
0	10199	487218.811823123265	6712.1473025975
0	10216	488158.155798525929	3883.9509036894
0	10234	489758.40579846737	6739.7797564522
0	10243	490593.073810883293	4721.4775637378
0	10268	491838.645861100357	4055.4076453595
0	10285	492224.278375902172	1149.918806309
0	10294	492984.578340565937	4354.6356347399
0	10305	493372.494391466466	2215.9380041311
0	10377	497924.153049885492	6039.2996086174
0	10382	497977.233885092084	3590.7060508792
0	10394	498087.85234761192	4962.7478492227
0	10410	498467.280458678672	2899.8257342811
0	10420	498609.751061054067	1970.3568897108
0	10437	499300.55980105135	4412.5036730858
0	10446	500026.059352559747	1677.7467805882
0	10483	501892.095622399781	4654.1505893465
0	10506	502401.222627980869	4378.2497330064
0	10516	502662.34589766602	7169.4167705372
0	10530	503091.495454120825	2574.4503437667
0	10541	503314.750240492002	4512.8054515962
0	10559	504338.739693282948	2699.7390548893
0	10583	505237.234723614311	4736.7900692567
0	10588	505283.87181034471	2896.744127207
0	10596	505721.778293592631	3031.5864582718
0	10605	505994.135902938375	2398.1245314308
0	10613	506424.071305671664	2813.4280407672
0	10622	507105.653676501791	5299.6396175775
0	10658	510539.670510103639	1663.0815298327
0	10667	511290.98189485649	6672.8559866218
0	10675	511299.487535695228	1746.2926848102
0	10780	517012.477158411393	7212.6375157167
0	10785	517041.602463770169	5610.5703708866
0	10791	517880.761710372103	5623.3580649477
0	10796	517968.923273312766	5643.1022460642
0	10805	518629.098162581086	6176.4539890171
0	10816	519552.848438302957	5863.9732886744
0	10821	519875.767937893836	6160.3786908746
0	10833	520499.232625257487	4109.2826173466
0	10838	520564.386824542938	4559.4680996051
0	10858	521873.210157757546	6553.8025889503
0	10863	521916.578595753883	3565.6567119273
0	10881	523520.167943274951	2641.8017091465
0	10908	526143.639061445132	2564.8332428357
0	10920	526377.756062825364	4451.2650806161
0	10948	527846.378771579138	1608.4154131849
0	10976	528951.01160947214	3155.1149603237
0	10984	529446.709562163577	1617.9929495058
0	11015	530100.26717879188	2970.1930076606
0	11020	530179.832527486984	2086.1994936535
0	11034	530510.827948294738	992.64277582808
0	11050	531234.970108565063	3175.0551144264
0	11058	531329.267295106588	1648.1049276508
0	11084	532484.486529812364	2175.3508663899
0	11092	532783.291973035566	2390.7400039562
0	11195	536700.249743556844	3911.1405711604
0	11221	537626.806673535471	6218.9686048536
0	11239	538253.698651984299	4693.8574342229
0	11245	538334.093733070824	5323.6197627762
0	11250	538677.440075303619	7306.7754208033
0	11270	539075.178012284738	5938.4810585151
0	11318	541634.744435996313	7737.0535527296
0	11324	541922.778234507248	7675.0970631343
0	11335	542042.015840303112	8396.6541198471
0	11343	542548.362097963852	6947.1335367131
0	11354	542864.682393192666	8264.5946499224
0	11362	543061.318203984229	6923.704564873
0	11367	543105.962607455697	5928.8763195618
0	11379	544286.01632236677	5460.9124437078
0	11390	544390.341030250084	5598.0646537835
0	11398	544630.22996604565	5786.8627326596
0	11423	545839.925609819996	8836.3280906759
0	11429	546693.988419306113	7793.9014685383
0	11435	547293.167334206509	6870.4163329899
0	11444	547747.164362126884	5229.2294981278
0	11449	547791.911981782315	3387.7571802979
0	11454	547891.814653933813	4317.7590632065
0	11470	548112.786431953132	3352.8980331195
0	11490	551896.19841950968	3975.7773243834
0	11522	552876.997222864835	1868.5519081384
0	11532	553316.532749838069	1283.4214404738
0	11541	553872.504383115161	1686.5628895126
0	11580	557504.413707949655	4737.0639729025
0	11588	557577.864250943981	351.67647240598
0	11617	559313.505374750404	1751.6620965869
0	11628	560126.811371345031	5610.3110971482
0	11655	561588.145774769155	4342.0823085895
0	11684	562118.616187987157	2819.8026263129
0	11696	562743.280400428796	4811.7677119711
0	11706	562923.614270472993	2153.8832066762
0	11711	562993.485806802636	1448.8584575005
0	11745	564127.378421947703	2445.1878582848
0	11757	564995.848089399109	1521.9758675618
0	11762	565127.11229660789	2058.561940871
0	11781	567216.467953065986	6929.7264393156
0	11859	570955.476308519467	7016.0838826551
0	11869	571323.602802431867	5325.7334282458
0	11878	571727.647900912336	9513.9221096528
0	11883	571811.058189962265	5357.785293767
0	11891	571942.982852238294	4530.6047504386
0	11920	573908.531514737702	5842.7626523276
0	11933	574283.327009577818	6459.1111757237
0	11953	574980.403914518549	8164.447248221
0	11958	575083.854003329731	3171.8315770885
0	11963	575127.072339092497	6244.8957252987
0	11969	575640.652485851276	5059.3073852263
0	11974	575662.425312651165	3576.9058868675
0	12021	576741.362058088826	2624.620201166
0	12030	577040.240848543982	1057.1764702507
0	12035	577094.961543892818	3559.3806701559
0	12043	577704.745463894016	1638.1130376906
0	12065	578166.167186173872	1997.1975194512
0	12077	578795.660584226051	2342.3001239891
0	12090	579046.499482305013	1769.9978675557
0	12117	580775.242309625779	2722.690073702
0	12156	582355.12238370901	3797.8801392691
0	12174	583377.933812696595	3986.025833333
0	12189	583572.28910616893	2795.3270609137
0	12195	583742.141839262125	3210.0499110201
0	12206	583801.40577386698	3060.9684391512
0	12225	584391.171702985826	1564.8325368321
0	12266	587114.059975316801	3858.0411628355
0	12282	587683.579484338571	6620.0569076683
0	12287	587710.794999323189	3546.4867479235
0	12292	587750.855481055342	3977.8912356416
0	12300	587956.032551977638	3764.6245652327
0	12323	590822.889403296643	5676.6012320842
0	12328	591199.34714380956	4740.0903464551
0	12346	592672.567333569728	6326.3608439574
0	12367	594537.319279821256	2782.710193479
0	12372	594689.661145542124	5724.8140343289
0	12407	596862.085993470186	3775.7521698712
0	12419	597482.234866213117	2560.6211192509
0	12430	597842.823601469416	2499.422081069
0	12473	600427.797858555969	2631.4681370109
0	12517	602056.498680576926	1926.3349377161
0	12525	602068.501263765615	4533.2094729823
0	12540	602748.93784029376	4443.2750684104
0	12557	603460.958013452731	2587.7398729388
0	12573	604274.983940863249	3812.6876027136
0	12579	604405.709768454428	3412.2296270023
0	12584	604441.009107354432	4317.6334919544
0	12612	605806.256912107034	7023.5971475505
0	12617	605820.058535972875	2563.0617083222
0	12626	606023.655660911623	10179.302037629
0	12634	606845.399129841659	4542.5981077511
0	12653	608277.93023512934	3563.9841598783
0	12701	610704.347761626453	5317.0775567448
0	12840	614934.090291974102	6418.0365379946
0	12856	615220.135466519295	6954.6336022681
0	12870	615459.026385862404	7664.6622275719
0	12884	615794.287553470389	5789.2876262932
0	12932	617426.347725490138	10066.67448005
0	12940	617953.501729445368	8199.9503044065
0	12965	618821.310443186937	8018.5719751618
0	12990	619445.140059931853	7717.7806408846
0	12999	619949.534778147315	7797.6659903165
0	13004	620015.744829147522	9139.9478361268
0	13015	620372.340750808708	9349.273775861
0	13025	620434.935697668044	7756.746188285
0	13034	620584.445972394519	7211.2286649982
0	13044	620801.109749726028	7629.6369081607
0	13049	620851.761671061149	7196.4454202044
0	13057	621297.941924772642	6091.2860676848
0	13072	622147.516154865367	6617.2682599559
0	13088	622418.469345029694	7716.9153074916
0	13093	622432.342619191244	9735.8559823679
0	13098	622503.492506293842	11775.883691693
0	13103	622534.440889744048	5042.8761835299
0	13108	622534.887669670228	6807.9553593824
0	13116	622864.016437315181	4677.9028814025
0	13121	622885.479370247589	6659.6487903481
0	13129	623123.958807039833	4535.9796440227
0	13145	624085.515533853746	3984.8859844171
0	13170	625864.412132510588	7150.4214881659
0	13178	626324.108532749865	4899.6973087805
0	13189	626607.733111981159	10969.49873986
0	13197	626818.42241480293	6272.6261108661
0	13211	628179.818862051399	2266.7276356955
0	13228	628471.089884360314	6437.1713163595
0	13244	628918.91428514385	5076.9295139706
0	13253	629368.937221646637	5301.4421724793
0	13269	629933.938508119122	5881.961664629
0	13298	631279.982520738118	3023.4345960454
0	13311	631576.627056237499	1352.2477594529
0	13320	631907.966123929659	5177.0081712049
0	13372	634387.367354330243	4922.3166643404
0	13380	634731.33311137307	3616.2903082744
0	13410	635427.923483047851	4925.3455297767
0	13415	635604.558247377597	2735.3230685703
0	13423	635962.050013646292	3934.8598534554
0	13432	636138.396129685835	3850.8290994223
0	13440	636258.276744236562	1391.869630704
0	13457	636764.946640446679	3537.8652342622
0	13473	637250.74732103985	2623.483921799
0	13478	637253.098726837625	8692.3053460734
0	13486	637515.869576960695	2429.8025110494
0	13504	638999.999928409571	2528.7341632892
0	13541	640822.58319497993	1766.0677643157
0	13549	640912.612997808454	2944.6818628974
0	13557	641138.400267173185	4717.4058754645
0	13571	641635.893159804124	2417.4227023474
0	13604	644300.622084512396	4720.035336892
0	13663	646730.571856564691	4518.4507125562
0	13668	646757.456172273325	5799.3827743026
0	13684	648053.986653219898	5553.1037568889
0	13710	649759.652231957727	4332.4209388987
0	13718	650013.075419609463	5016.1817992573
0	13728	650261.742367643964	4232.6008688189
0	13736	650358.292190841991	5769.5150385172
0	13750	650654.351448013172	3136.1931051107
0	13761	650893.18092161274	7077.4185732875
0	13769	650917.419652342999	5139.7436268592
0	13774	650985.958705977807	1107.6154167234
0	13785	651340.62408435388	4036.7905186317
0	13827	652497.347416990404	2156.0484710028
0	13832	652691.580224757492	988.77826418646
0	13841	653632.005240763936	1625.4281833208
0	13870	655679.390214479894	4381.7180549794
0	13876	655844.538528329522	3549.8111398089
0	13892	656310.801063451845	2373.2314952182
0	13904	657221.676302677504	1816.9689212297
0	13949	659109.747067510213	3202.8085665596
0	13964	660158.700708569672	2835.9670328262
0	13978	660543.02797088947	2884.7873984269
0	14000	661348.50256722766	4282.1148302816
0	14010	661481.08289473148	3500.887528278
0	14023	663002.453488731951	4036.3983346968
0	14047	665199.059675357756	5018.1764487256
0	14064	665957.895176955788	3293.5261888914
0	14078	666776.106188919546	5490.027453652
0	14126	669139.163258439309	8843.8877873826
0	14134	669327.46638145565	3895.1257158511
0	14139	669391.049364038534	4866.0285947338
0	14151	669864.747331154512	2968.1959910157
0	14156	669995.048867186394	2402.6499841386
0	14165	671059.238686517861	4710.1855900603
0	14229	674225.304446739949	6946.5272499869
0	14234	674311.689766415135	6040.497258103
0	14246	675415.39871081455	3961.4266077351
0	14257	675912.152504993819	3924.7011414812
0	14265	676088.645994174893	4221.7068471257
0	14276	676667.881717183111	3874.9574053569
0	14288	677258.86968060828	2765.7194401265
0	14333	679267.354661091272	2235.5470724697
0	14347	679735.836011742958	6554.6125134061
0	14358	679919.034586252835	1756.7500548351
0	14376	680466.637956614396	1260.0454704175
0	14388	680803.743586584574	4823.1090443357
0	14400	681932.746326783059	3538.8866356778
0	14410	682097.731151147921	2234.1614834001
0	14438	682866.687617589813	2960.3925309188
0	14443	683048.096397131951	4913.206416707
0	14452	683167.465089218664	1524.2292407721
0	14493	685614.383632898889	3384.3686406199
0	14530	687604.899595992872	5417.8358235014
0	14546	688089.673198833031	4823.5623010678
0	14560	688490.200122951323	3749.4845118516
0	14565	688605.27891048803	3234.2467662004
0	14577	689293.516932389988	5097.5602790388
0	14597	690218.631946235946	3940.4713544622
0	14659	693372.631711310678	8440.6805547706
0	14664	693380.423472499185	5630.0393109349
0	14670	693735.630385666531	4776.9881829241
0	14675	693742.304882793995	3597.4173690156
0	14683	694179.072503418598	6654.5660575678
0	14688	694247.958753359779	2370.6446296038
0	14697	694347.432763576395	3153.482448436
0	14745	696697.742925708762	4836.5522287877
0	14757	696985.328757909581	4488.1768485077
0	14794	699320.830083747951	4088.0993115101
0	14802	699391.473947616545	3852.4093946749
0	14811	699696.549318388035	5003.8158973247
0	14850	701486.761997537378	8892.3878316176
0	14858	701615.89400540851	5821.7222535749
0	14863	701623.454217622262	4365.0634486899
0	14868	701739.424099972418	3223.2106096593
0	14880	702320.873840267146	2830.4243678014
0	14885	702569.185293287795	5704.6869827229
0	14893	702728.50515140526	2118.765896257
0	14929	705571.500489441891	4789.9765239603
0	14943	706641.870700785304	3978.6807951301
0	14984	708409.821837876517	7650.4432724903
0	15091	712334.381637076905	6910.729068389
0	15099	712382.631569407319	8766.0476571637
0	15104	712471.975878155346	9684.855943571
0	15112	712587.705073085278	5784.9674997846
0	15120	712895.624274304673	4825.0019928176
0	15132	713514.290937676951	5879.6247583476
0	15137	713614.535817997933	4069.9525752239
0	15145	713900.621847930455	4226.2069304288
0	15150	713909.29389886052	6094.8621272049
0	15155	713979.758433321752	7328.203928826
0	15160	714006.676641892478	4320.0396836392
0	15170	715066.407142118744	4327.1916826667
0	15180	715250.644470663752	5632.3416860409
0	15188	715311.438286363227	5156.8788787287
0	15202	715864.003608177726	4278.082675609
0	15220	717631.8842988636	6350.472329834
0	15229	718896.262473572893	3604.9290600058
0	15250	720675.88276289074	5653.5365718674
0	15272	721002.569480303826	3911.1261519838
0	15317	723064.050837262543	2752.6569615502
0	15325	723220.778497304363	1764.8409417527
0	15351	724298.96713439303	1923.8397160679
0	15376	725258.270476310703	5964.0991640432
0	15381	725306.623457065348	4601.9037862317
0	15420	726430.418442327117	3330.5558955307
0	15438	727068.685954981361	3513.132680761
0	15466	728285.759301428502	6031.7150124456
0	15481	728953.844637491539	3316.4893126728
0	15507	729425.692292415841	5012.0219925872
0	15513	729469.112626435953	5813.8121946003
0	15518	729493.77781916137	4181.2183391699
0	15523	729738.070396765327	7986.3044789851
0	15528	729770.024924207398	3948.0587118983
0	15536	729904.507599984987	2823.3940989768
0	15556	731234.614862355803	2388.0764105516
0	15564	731623.04914034928	4959.8984341424
0	15576	732046.80410330209	3266.7472338705
0	15589	732229.822914050899	2239.3375872717
0	15597	732371.116137236294	2494.8620247636
0	15606	732883.415820998268	4007.4798419552
0	15624	735040.727284796121	3129.5934483093
0	15675	736666.798542464927	3389.7466695568
0	15708	737583.191254591024	2136.2976672537
0	15734	738672.729026740045	2693.6335698316
0	15928	746580.734873436211	10807.075805876
0	15934	746616.028688529706	10406.990292306
0	15945	747106.81177717569	10660.400835125
0	15970	747835.122226328144	11503.501347659
0	15975	747950.678574499731	11550.876098233
0	15993	748496.638460962057	9427.6234987528
0	16030	750331.48579860345	12440.944347157
0	16040	750584.915330631667	13018.805897346
0	16045	750666.814653800803	10910.091653046
0	16050	750867.202154812092	11314.52723539
0	16056	750933.516934416337	10970.078086279
0	16061	751176.890712151846	12954.20642274
0	16069	751696.676699695243	11143.048055657
0	16083	752066.04038277839	11183.004095928
0	16088	752093.135459246317	12056.026987719
0	16100	752597.075691545254	12041.520725949
0	16114	753759.137679854829	13253.855677379
0	16119	753855.045318069435	12754.944823559
0	16128	754372.112190055532	13223.972884078
0	16133	754568.427325702389	14907.286230458
0	16142	755396.266893450722	11600.246354662
0	16147	755846.630586551608	14731.494988632
0	16152	755923.019389123632	10950.364574572
0	16158	756048.878246445752	15181.341528451
0	16163	756252.342313320679	9388.7066428472
0	16168	756359.177203384059	8090.6639507933
0	16173	756683.5263935144	8255.597843541
0	16178	756799.78506924546	6662.3442873427
0	16184	757042.73699002582	9967.4897217371
0	16189	757511.693321051285	9147.5165654163
0	16194	757653.02852927336	6275.7466523651
0	16213	759990.87306330229	7718.8083130101
0	16243	762491.644676167767	2970.7442095071
0	16291	764592.451791899009	3538.3138337253
0	16302	764975.707547512998	1759.0305486073
0	16324	765925.233086399646	4458.3410038623
0	16347	766851.429952974553	2055.4248180636
0	16361	767973.937447924973	4470.3554239157
0	16395	769538.392980247853	1235.5086245024
0	16400	769559.057663610278	3625.4227082591
0	16424	770313.534686329966	6231.6663091641
0	16511	772996.615231928143	7932.0963781037
0	16525	773347.503993516683	9266.6583665223
0	16544	773968.773353366642	5270.3775365475
0	16553	774316.667146055782	4208.6826403404
0	16567	775005.045568396861	13017.455021715
0	16584	775843.774051563302	5548.6276619807
0	16589	775888.132389322674	4899.9155181857
0	16594	775927.228618208753	8460.8391339691
0	16599	775943.432037110612	9118.9533597601
0	16604	776576.701151893639	6125.7222959752
0	16613	776604.594844644709	5860.0433678551
0	16626	777108.713619690204	6911.0483081625
0	16639	777412.961860100625	3219.5125518011
0	16645	777554.474002980312	4223.9155693072
0	16650	777602.190642964621	6400.3581683836
0	16667	778908.79364765848	3906.8160071258
0	16684	779734.95710268351	9166.2982206966
0	16692	779796.872297824703	2883.271285832
0	16709	780150.613866307882	3552.6147480891
0	16721	781175.270989631377	1645.9152315966
0	16734	781366.86086935659	8379.2420731458
0	16758	783190.58262579649	4895.5722920702
0	16763	783243.100136062896	2298.1547983283
0	16768	783291.074689612345	3345.8029594775
0	16803	785562.724371669053	732.70893754636
0	16820	786520.61398962795	1532.023840878
0	16829	787168.319510540175	5749.5895326774
0	16845	787661.70126326882	2693.4063617764
0	16854	788048.738960758353	1729.9506974399
0	16916	794377.969118240123	6875.7960227856
0	16949	795683.593607753756	6484.1408606739
0	16964	796480.01082019992	6094.4352672503
0	16985	796934.737379458735	5836.0538907549
0	16999	797256.12807204106	3546.9601495009
0	17004	797591.61839114751	2766.5408177263
0	17009	797686.773803424052	6006.6217144392
0	17029	798840.717087320125	2134.3022481266
0	17039	799908.388442132779	5896.0760118194
0	17044	799966.925451839265	6376.2412396025
0	17053	801308.073163138228	5561.8190722972
0	17115	803750.065462054754	5357.89199101
0	17123	803888.654164705227	2292.8749115724
0	17138	804350.250320023577	1691.027933008
0	17148	804603.098397919286	8428.6013813893
0	17153	804605.095106262135	2413.5243617633
0	17230	807109.764573339663	3119.5698681801
0	17249	807694.665464249712	5339.8524951329
0	17257	808248.231809801198	3594.6187272548
0	17289	809404.160355122961	5990.8889747553
0	17314	810183.797209594233	8548.5204595775
0	17319	810346.651512964059	4869.5779702639
0	17324	810540.53418423231	4699.9948105062
0	17333	810882.348608104919	5363.14683414
0	17345	812069.413509490876	5246.8509643492
0	17350	812127.239003068618	3831.9866761948
0	17361	812580.197740049965	5736.8565084334
0	17406	814727.50728412429	9974.1543876867
0	17414	815158.228932665413	5916.9604139994
0	17420	815249.636499122732	7107.4053627981
0	17428	815433.714137855601	6010.0197873274
0	17460	817088.784338518926	4345.8696376248
0	17465	817229.056853334149	4850.6756826719
0	17471	818078.294839585989	13245.682682005
0	17479	818322.191814697002	6018.0614696978
0	17504	819063.333560764575	5854.2803210389
0	17509	819357.797723640897	3549.6103603157
0	17518	819864.860527656448	4443.4236509618
0	17532	820353.249858257752	2235.9850084656
0	17549	821509.67210208235	3133.4784160363
0	17578	823116.733946401179	3392.6257561556
0	17586	823510.036339730286	2574.6757684353
0	17600	823924.656728506575	2153.0894390672
0	17680	827792.339557372916	4392.593817678
0	17701	828732.906119501174	6546.2928817798
0	17728	829466.10609008427	5034.8990206429
0	17733	829614.76048572155	5324.5932138381
0	17739	829753.957601662237	4906.3626311044
0	17744	829834.066851959654	4856.9146068588
0	17749	829936.097797658476	15722.365909831
0	17766	830454.600437871654	2363.1401059592
0	17787	831258.53038389746	6137.913763524
0	17792	831270.403931559754	4636.1748260953
0	17800	831309.944145332649	1359.8881557376
0	17817	831877.156011228771	3257.3893436863
0	17837	832588.973433434362	2242.7335934686
0	17846	833244.767685842335	3192.7885223293
0	17851	833268.015867483417	5119.4584226571
0	17859	833555.041541213106	8969.2825602927
0	17909	835425.782942087426	1239.3001431889
0	17926	836175.28944471316	4794.6880645103
0	17947	836770.043335697141	1847.731946518
0	17964	837992.131865270427	3583.9257813832
0	17973	838403.673925366664	4265.5668998554
0	17992	839168.820952955255	7281.1607186423
0	17997	839170.440895976939	3388.0561190122
0	18002	839252.360980211365	4554.506261054
0	18019	840480.845812274061	2483.4292619703
0	18028	841316.693578098691	4730.0175769006
0	18052	845492.325506768373	6205.5630681802
0	18101	848506.627916872562	6480.209864479
0	18120	848713.562393149119	3520.4795079146
0	18125	848903.697803039824	2970.6932267919
0	18143	849782.17033989844	11141.66861787
0	18156	850144.508542374471	2039.4678093878
0	18166	850202.616948876502	4219.5811382403
0	18174	850247.851405864761	3986.1255783298
0	18219	851725.259498274844	3209.4902918611
0	18224	851743.823595384631	2049.8747078788
0	18236	852721.414558728267	1840.1392792258
0	18242	853293.685521979341	3185.9057462862
0	18258	853612.126550950782	2577.2776049644
0	18306	855083.292333296043	1424.9198496846
0	18344	856117.889584420446	2753.5625450862
0	18352	856170.695815328534	5136.825979021
0	18357	856245.559833764601	5302.5538811388
0	18366	856981.441788263729	3022.4977642859
0	18381	857304.649795354192	2096.5418383216
0	18386	857439.984633875091	3629.4756842361
0	18391	857454.293103073268	2443.2856133908
0	18440	859876.178014264295	5741.4183792849
0	18457	860890.223887981165	5318.3566437714
0	18467	861066.256235265083	5935.9603394364
0	18478	861323.716067453182	1499.3622781134
0	18492	861791.211417722564	3034.3127868134
0	18500	861945.978808157064	1519.5050416654
0	18509	862531.577158073107	4291.9516796209
0	18527	864460.687072407914	3164.3777661619
0	18543	864764.991001541472	6002.6254107003
0	18563	864934.193391700964	6787.5174788514
0	18568	864987.106649573538	1178.1256558642
0	18576	865710.688632229962	1082.8727041416
0	18604	868438.287687762848	832.22364161677
0	18673	872337.179898758928	2232.628561534
0	18706	873008.84553411543	2977.5760870924
0	18711	873047.765563936176	3110.3134556239
0	18719	873292.572491763388	8481.6489152671
0	18728	873562.40787847473	1725.9489852082
0	18736	873668.294420834975	1405.6579995527
0	18744	873733.353044527401	6104.0153138756
0	18763	874275.78958769644	2083.614221374
0	18777	874409.290310283116	3868.4013881789
0	18794	875635.189634908564	4448.5036660508
0	18813	876058.814447806739	2045.2865892746
0	18827	876451.221747572376	2101.4190854816
0	18859	878416.464768315757	3076.6469187665
0	18939	882770.442962430406	6543.4695399978
0	18954	883530.947927478817	10814.440080927
0	18971	883930.054682673344	8438.8605303992
0	18994	885345.205617493697	11658.651208598
0	19006	885856.917484289209	9462.9554888407
0	19016	886216.719987249264	8524.4372077434
0	19022	886336.594012212387	8369.4027682444
0	19027	886409.649728178391	8002.0444313769
0	19033	887416.634515128355	8629.8006287492
0	19038	888007.375971192606	7208.4204923019
0	19047	888360.656819337276	8573.5126417727
0	19057	888443.936925594826	8873.2956330516
0	19065	888580.882806150637	5591.1852300206
0	19070	888863.173002511404	9975.0138711436
0	19079	889446.787517902217	3697.4185349411
0	19119	890812.685240165935	2595.5365381668
0	19132	891420.566596281456	2492.5482712173
0	19146	891745.821839215238	7837.4484488985
0	19151	892188.800681845534	2485.2576500798
0	19177	893509.989313882005	2098.6143250609
0	19186	894152.665676399093	1926.4938020833
0	19194	894852.794112338715	4636.0958283713
0	19215	895917.678525016549	6446.8657089595
0	19220	896099.579546991333	3693.6425726303
0	19251	899513.774388585068	4642.7350515375
0	19263	900263.900886312967	2857.4425814996
0	19320	902814.491303474443	5113.6852238154
0	19345	904275.680332304123	4665.5558882648
0	19351	904496.965735095909	3336.7807004202
0	19359	905032.232211066081	5247.2491983809
0	19376	905783.747162573141	5291.9254288458
0	19410	907105.73424743592	4928.6221152833
0	19415	907241.29555455974	4102.0281397192
0	19420	907241.425159090887	5935.0528987176
0	19429	908482.901220894372	3698.5894097927
0	19451	909355.597949521627	3510.8321177698
0	19463	909529.09118751929	2092.5001471318
0	19469	910445.993202217159	5206.6361056613
0	19482	912023.451884790574	5684.2903386373
0	19505	913951.254838988989	4821.8868698801
0	19519	914231.533336155944	2763.1850582749
0	19563	915947.965482848681	1797.6765519125
0	19574	916125.973640167294	1959.4077129436
0	19579	916175.519772907161	1827.8870734854
0	19588	916512.180318299946	1347.6652348455
0	19598	918162.531748123662	4614.8538899693
0	19624	919755.338500445052	4465.9222835679
0	19652	921283.726743383034	2593.6266268238
0	19657	921387.845879791121	2568.3889650025
0	19677	924522.053804537536	3666.2047802834
0	19725	925918.249826272979	3034.206919722
0	19740	926843.43600238621	2241.0633776668
0	19768	928633.861621433713	3722.6720729249
0	19776	928965.068262491468	9002.6124297409
0	19799	930124.477383324003	5095.0708008685
0	19813	931030.298803598617	4126.6213416107
0	19821	931179.992404681492	4240.3960986466
0	19829	931362.930408972245	4572.8047730061
0	19838	932043.955063501945	2833.0268051453
0	19847	932753.743131360104	7282.9879319667
0	19881	934672.633749883741	5863.2684276527
0	19893	935215.38766299314	5245.3189563863
0	19898	935223.920141256602	1763.6901612615
0	19915	936645.640791205624	3160.0074735198
0	19928	938581.042256455222	5386.1230147039
0	19970	939827.87554065587	4040.1803234794
0	19975	939889.448016333062	1309.6262618736
0	20001	941510.075691287464	2345.9463061462
0	20009	941570.796116909969	2461.6550795284
0	20018	942105.009201095388	2797.9175387262
0	20029	942322.092917252309	2153.3113156083
0	20059	942899.538968722958	499.03471989414
0	20068	943772.738824182723	3155.3878237411
0	20079	944404.368858586436	2097.633846353
0	20118	945885.659313344175	1015.7099570593
0	20126	946174.013484156371	1798.385606394
0	20135	946323.408879952302	1636.8682361804
0	20173	949009.051241225168	1571.6149132369
0	20187	949987.52515167598	2748.7229055573
0	20223	951356.207201963395	2350.6984037861
0	20229	951676.288632222435	1676.2934691252
0	20243	952117.323463546719	6621.3270107834
0	20260	952431.418138196759	1935.7524373162
0	20307	953963.830777995163	5405.242500679
0	20313	954312.155316820307	2045.4483262243
0	20318	954417.612248196854	2375.1252585596
0	20333	955206.418077172704	12547.243351066
0	20348	955611.71433032792	3343.8749352505
0	20354	955786.598069550441	3332.1284910788
0	20363	956730.926495540305	6232.8375855616
0	20397	958430.349391249455	3256.9301759583
0	20408	958739.578999642387	5676.3615493742
0	20413	958776.743468581362	3916.3020605446
0	20430	959373.91043851789	1213.7280259259
0	20438	960010.656521372205	1746.0066537083
0	20450	960535.668644002934	2438.7125271129
0	20485	963002.018609008912	2506.4926996123
0	20490	963007.093501827387	4122.3915609885
0	20510	964176.409159382291	2197.468422194
0	20561	966443.753553940296	3358.0764659288
0	20567	967032.404813342127	2921.69148693
0	20590	967928.346006039344	2865.7846554989
0	20600	968154.728015317226	3885.2746777337
0	20635	970207.587218618012	4644.5305170731
0	20651	970685.223639833976	1264.0416144136
0	20659	971013.244406912489	3149.4661742802
0	20677	972390.20977591015	8159.2192650742
0	20685	972705.470885351909	3158.637156354
0	20695	973998.780905636065	6808.3488725731
0	20706	974535.820015462997	4689.5183775516
0	20715	975143.821383024899	14143.034853687
0	20746	976906.276037269287	4585.6154854522
0	20754	977126.525845630368	1886.5466185342
0	20770	978221.265597476957	3124.7422820321
0	20780	978500.511026883332	8380.3895787486
0	20798	984109.166032247889	8112.4270837846
0	20899	988064.431307893326	2259.1846390352
0	20907	988285.27765346626	4304.069246073
0	20916	988354.738269729216	3744.4194146838
0	20921	988356.858763208592	10274.915169341
0	20926	988598.229183154003	1793.4444219519
0	20931	988890.740289616623	2651.8827324148
0	20943	989526.78379324448	4290.2601401067
0	20948	989598.863640054888	4571.1077373774
0	20953	989645.420240840722	3206.5633023066
0	21015	992284.907481405255	4650.6714471324
0	21030	993022.991799883988	6933.8077654262
0	21087	995205.912489136799	5098.6876998163
0	21095	995395.53673770604	5211.1492005941
0	21112	996064.352159541855	5508.3814673535
0	21123	996646.423022598816	6839.0732793113
0	21137	997121.109662687616	5538.9151515547
0	21150	997332.508585186455	4953.5827710967
0	21158	997554.42026175932	3168.8808204004
0	21163	997617.664139893149	5165.1794909084
0	21179	999080.445787565962	6216.155933576
0	21203	999777.195875743471	8536.5283180015
0	21214	999889.515212572611	4494.9728762342
0	21231	1000493.550498108747	3407.0776326388
0	21269	1003657.405484875222	5246.2445492537
0	21288	1004924.600437172291	10348.762362288
0	21318	1005652.62421594732	6945.3306111238
0	21328	1005898.88793891188	9461.3624009062
0	21333	1006002.95286360104	8197.4225722794
0	21342	1006653.313902443735	6297.5150930451
0	21347	1006758.137322702253	3056.3514096477
0	21355	1006939.762150066407	6444.5420926928
0	21369	1007629.259148477009	5504.1069444895
0	21377	1007958.751043882372	3975.4941436639
0	21386	1008192.226062338594	8329.0799264571
0	21399	1008644.561978685679	4222.8711936938
0	21407	1008850.267088951986	2070.1992789972
0	21416	1009039.704861114994	3416.6033693107
0	21432	1009650.211519970118	1684.2379913794
0	21458	1011155.878446170006	2097.2249797925
0	21471	1012679.426657855086	2400.1661043614
0	21519	1015477.388558318719	988.53589248284
0	21528	1015815.172774168496	3660.4658443788
0	21536	1016334.409719200065	5887.5551882687
0	21545	1016889.456774275167	2220.8738432093
0	21584	1018193.339039142477	5255.4816955985
0	21590	1018349.810032431992	3629.5725928765
0	21598	1018825.328799572256	1350.9312370089
0	21629	1019658.062996199673	2417.3831064626
0	21660	1020468.132851817387	2892.596707913
0	21690	1021463.422992512451	2942.1797736384
0	21698	1021707.123951226998	2774.0353828548
0	21709	1022101.150353578661	2413.9060214481
0	21714	1022247.457044757314	2063.1161484696
0	21719	1022335.317743195044	2159.9527740547
0	21745	1023557.0134679313	1909.4808685117
0	21753	1023652.379345466244	4145.3633501149
0	21761	1023950.27789850819	1580.8478158818
0	21778	1025046.667860202896	2075.5337517279
0	21787	1025179.445882912137	4820.625562617
0	21823	1026673.214304792117	626.37580264643
0	21831	1026797.162797892852	1410.4428971408
0	21854	1028392.200564818282	1645.0028520423
0	21863	1028794.770828195411	4599.6240825507
0	21883	1029491.683329400766	1985.1851373949
0	21920	1031665.871781100059	5470.3732301387
0	21926	1032114.855170460636	3146.0679246519
0	21937	1032843.246588921516	3432.5865921934
0	21965	1034064.752507620004	3939.5094831883
0	21973	1034162.165043915335	1450.1467677852
1	1826	101534.167119999102	0
1	1838	102362.136658933932	273.47553738747
1	1850	102984.847895075329	793.01214957387
1	1855	103185.938733324526	741.63032079104
1	1863	103531.184745408999	224.71367078087
1	1885	104554.340133798503	0
1	1894	104680.573177476171	0
1	1902	104727.013653376379	0
1	1945	106766.216741786883	851.54408886714
1	1950	106775.817514847018	451.27261040927
1	2002	108731.717580105915	0
1	2011	109407.475107755629	0
1	2028	109939.227447198758	0
1	2040	110822.655176257871	671.76251824188
1	2045	110839.89084831451	599.40907543517
1	2056	111247.455202516326	2.468921906294
1	2078	111891.105864229301	0
1	2113	114233.172966662283	0
1	2121	114460.618428070756	130.80490497672
1	2137	115722.897167699596	1017.3224261967
1	2158	116778.391590668491	922.5546476335
1	2163	116963.551669071973	936.88252302378
1	2172	118051.91201946025	1609.456943729
1	2190	118362.309009127741	1649.8655885462
1	2195	118461.629494774035	201.81653300683
1	2200	118516.673571159191	200.77276925854
1	2221	119935.016903005145	633.87888487475
1	2230	120300.53586954692	810.40707588996
1	2235	120358.176492090462	291.50978684375
1	2250	120921.994298295107	540.91945308594
1	2285	122310.509520218931	210.88879350459
1	2294	122621.457166692457	8.7610960976
1	2302	122664.451420416063	2.182257952977
1	2328	123654.994275265254	625.62572612114
1	2333	123833.098110704405	744.28998182132
1	2395	125475.139248010681	563.13740692204
1	2400	125874.438883290601	805.12329320793
1	2405	125910.709589672798	803.93021697936
1	2414	126029.658161107582	11.343991629202
1	2437	126263.284715457224	31.526260283864
1	2454	127069.364386515666	513.53881173341
1	2462	127566.643178504558	287.57842907774
1	2509	129257.311102466774	161.39675918448
1	2548	130756.377121305577	155.38730060701
1	2575	132960.670071992168	0
1	2583	133051.304892830744	71.005855727351
1	2595	133962.984135510935	909.16400373242
1	2607	134611.710154233422	980.75054020602
1	2612	134776.745430435994	430.35846606681
1	2617	134933.718550476129	367.65957009091
1	2625	135054.119840947761	0
1	2676	137315.989053673996	0
1	2684	137813.630391566191	335.43669128
1	2701	138464.253125010432	0
1	2735	140188.674122331418	0
1	2744	140917.317871705901	0
1	2772	144078.719423498858	267.38315977665
1	2780	144330.342259872042	0
1	2788	144610.222812975586	119.01628819208
1	2826	147303.289771186628	336.69616391439
1	2835	147623.940222933042	291.12406674913
1	2843	148002.532635898037	202.50971174308
1	2866	149736.074293648877	0
1	2875	150338.823996753024	0
1	2883	150678.743421733647	285.70085115729
1	2899	151913.140043603422	1055.8492632522
1	2912	152408.890942610809	222.46953138126
1	2934	153082.228996430475	0
1	2959	153980.098508130181	0
1	2974	154793.4204663552	754.72583189344
1	2979	154800.115060208861	361.3358541289
1	2993	155404.452353828299	0
1	3018	156836.784704149408	127.8490410594
1	3038	157118.282199446188	154.5538404256
1	3049	157553.73262359031	509.81945610663
1	3063	157980.80220124873	45.455277766259
1	3111	160400.58662616291	288.58023095445
1	3129	162389.338928127223	0
1	3146	163441.148096695278	0
1	3155	164132.224718512451	259.73052953255
1	3167	164771.482245751938	112.90866832077
1	3198	166708.740999566236	0
1	3207	167511.273141352795	0
1	3215	167921.988615796089	80.038353108264
1	3233	168901.784323565062	0
1	3262	170274.870485882278	507.77948673926
1	3267	170393.271555766445	422.80975322247
1	3272	170512.406849387628	309.92065867829
1	3286	171066.59264171464	68.049993140504
1	3320	172626.277913666094	370.08185463945
1	3360	175288.913954474528	0
1	3381	179168.025603176767	0
1	3398	180404.614205873678	0
1	3417	182838.370189327985	0
1	3437	186738.201199441507	0
1	3457	189565.492469248598	0
1	3465	189947.846973812888	0
1	3483	191464.817710006949	0
1	3491	191667.387773718659	0
1	3508	192519.68124448119	159.69037363443
1	3520	192934.515681886057	365.84574882691
1	3535	194890.808096533596	0
1	3543	195218.562338953281	206.260446072
1	3552	195778.378414022201	0
1	3570	196433.787401947691	583.49392257333
1	3575	196509.373644596918	654.07238458396
1	3586	196894.99714669573	966.09161658402
1	3592	197256.268264681987	567.50849650657
1	3608	197387.392082751344	38.608911135314
1	3619	197773.023398940091	137.09881955961
1	3701	200276.620142563887	540.42612100213
1	3716	201290.993932528445	474.92141325448
1	3724	201417.310909041764	444.1544638746
1	3736	201644.502457551452	204.45569259356
1	3741	201739.658818390655	131.64151241701
1	3761	202654.94080469526	126.35187152121
1	3791	203860.228901081434	9.350503631914
1	3811	204285.594063820911	297.00188039443
1	3816	204383.209144507559	154.56092867882
1	3851	205523.133045471166	16.910833255707
1	3860	205739.336434034173	211.58559917427
1	3884	206251.140752825896	168.90203314711
1	3893	206602.419879880269	129.18136415264
1	3918	207514.391749580723	0
1	3926	207906.817876685013	386.61364186737
1	3938	208503.68435804256	571.09650887684
1	3968	209369.049423155458	22.300195482287
1	3976	209455.959398189924	0
1	4017	211235.647128366817	1004.5383378335
1	4023	211793.654116979418	1316.5723350246
1	4029	212629.934302418548	2053.8643336095
1	4037	212829.474651561772	2057.6066116624
1	4042	212913.378780527306	1845.0519964071
1	4053	213334.671790458221	557.5632054078
1	4058	213342.312721233089	146.16949237974
1	4107	215849.515343773625	353.13660062958
1	4129	216488.807284457057	35.546119593047
1	4138	216940.62469180537	482.50006880672
1	4143	216944.196965524169	77.778976281901
1	4181	217893.819725088471	42.581616952099
1	4189	218022.824569253035	125.09075279571
1	4210	219450.065448195783	498.42987768225
1	4233	220340.083875995538	600.58375312092
1	4238	220501.199115128141	281.42889243579
1	4256	221038.719651941113	402.55181132763
1	4279	222547.53369635783	0
1	4288	223205.204410223257	0
1	4306	224716.048016957438	0
1	4323	225518.222364895312	59.339607075979
1	4332	226998.687982065176	0
1	4367	228596.855119372008	305.87578362629
1	4372	228732.959602519889	297.08412995785
1	4396	230403.044900897233	284.23076459586
1	4402	230621.779366741956	363.13524414742
1	4435	233088.39657836123	0
1	4464	234845.665357452871	470.05132608043
1	4487	236392.740660226116	536.16565793518
1	4496	236717.554595432271	49.602731114159
1	4521	237993.612011337666	219.97340931475
1	4530	238879.379394786944	0
1	4539	239319.766722779336	209.70168457394
1	4548	240005.722213133552	0
1	4565	241260.494096575577	81.625875908974
1	4576	241441.986719575736	113.80170129506
1	4581	241468.725454562638	44.110692583916
1	4592	241680.338988286189	179.06594508277
1	4604	241844.485992382969	36.433335252591
1	4609	241983.409366741399	157.66514564641
1	4624	242732.309991158054	615.45706990557
1	4635	243356.126958717171	1123.1994598171
1	4640	243372.150564601451	542.43113610888
1	4687	244529.620487091355	208.45418189712
1	4701	244970.553408336545	425.11567748029
1	4707	245343.456167580412	763.62855884411
1	4732	247003.925371203104	2195.4463391562
1	4740	247203.677940885815	1787.5440902432
1	4745	247376.307307932404	1585.755609479
1	4753	247637.411443452608	1386.988612425
1	4776	248207.425828626642	56.545808506823
1	4833	250481.245144826625	336.17110261266
1	4863	251168.904222643035	145.54497806724
1	4900	253980.541247251521	0
1	4924	254195.179933551757	0
1	4933	255019.372213677154	0
1	4942	255478.543007770256	0
1	4960	256869.188412791885	757.68527982488
1	4965	256881.737170231571	429.33411224026
1	4970	256881.955513449264	397.2919311404
1	5000	257919.632295313233	0
1	5015	258715.58048064538	358.15484950943
1	5020	258772.045073988919	221.28366095596
1	5044	260006.329064911915	1001.9186337368
1	5056	260593.342631729369	1502.0603968638
1	5061	260700.650126735368	295.89692231685
1	5119	263902.137981838535	110.45648823592
1	5128	264351.616411456454	0
1	5144	264768.195591887807	0
1	5161	265265.99994637598	0
1	5169	265695.373499871107	296.51939635293
1	5181	265985.813965804828	38.476732552652
1	5228	268198.614551153292	0
1	5240	269039.068097850128	134.58419261478
1	5255	269910.525855008551	916.13124796649
1	5261	270101.730335988684	663.35335297111
1	5266	270359.077518903924	653.67144116286
1	5291	271248.747933192148	115.33227754835
1	5314	272195.313273580714	102.78471896415
1	5319	272246.107992636331	76.711578561034
1	5324	272353.872701448056	177.12360049506
1	5370	274364.698042960845	589.35985284192
1	5383	275028.327419584951	72.411125794263
1	5397	275416.462701933889	0
1	5414	276186.872800977419	171.20757249749
1	5422	276337.75197114115	0
1	5439	277247.014178501732	0
1	5451	278031.216993815513	67.22709713941
1	5481	278937.109303269586	0
1	5498	279588.315111525802	75.287542241913
1	5506	280097.882394759076	185.21294153586
1	5532	281864.233607211032	0
1	5541	282506.390600346325	155.27979666932
1	5549	282612.668231674753	0
1	5570	284439.196331131834	0.042428846552
1	5611	287253.038895752824	0
1	5619	287582.642821721242	0
1	5628	288474.653504401417	853.23105536906
1	5645	288912.51021953102	0
1	5679	291411.956625081107	0
1	5688	291980.833999341451	0
1	5696	292128.364033284785	0
1	5719	292897.90725417312	547.47502710773
1	5727	293044.065279098732	307.85123285466
1	5739	293190.866283338994	47.637467351328
1	5774	294344.330311513992	375.65807131914
1	5779	294438.210568665845	371.26420498019
1	5790	294683.067348900661	159.58011537965
1	5795	294695.690575565544	52.994031613468
1	5820	295344.644861687384	0
1	5832	295826.365476897754	116.86216404844
1	5870	297241.011322426331	0
1	5895	298073.681915689603	0
1	5914	300310.950884302944	0
1	5932	302547.573773546794	0
1	5958	304288.198189457966	33.371280743481
1	5968	305621.106327861971	0
1	5977	306256.45369616276	0
1	5988	306740.818066946553	224.67037619671
1	6018	308916.424376575067	463.2107680296
1	6046	310525.138333627725	0
1	6067	312097.290712235623	369.09885881162
1	6072	312249.107221467224	345.21863204426
1	6080	312321.768771542961	0
1	6101	313040.257993397496	645.0098793993
1	6109	313248.002411850963	704.98362797247
1	6124	313959.10273867717	1376.8892720909
1	6132	314336.045463416098	1356.0249182376
1	6137	314412.160357585915	1260.3126541252
1	6142	314418.07399002595	114.02613127291
1	6154	314579.331764373608	119.29201822314
1	6159	314739.220816427351	231.01697507768
1	6202	316227.314235015822	119.06171410818
1	6222	316582.02641543214	94.409709145923
1	6263	318797.779181398966	0
1	6280	319296.272658756929	0
1	6297	320410.934164288332	121.95603162736
1	6306	320994.971525631015	0
1	6314	321298.791722448522	0
1	6331	321893.484594865055	0
1	6369	323311.176377485346	530.69490998402
1	6374	323758.954821198656	607.50980012654
1	6383	324245.938840375951	1064.902492463
1	6388	324268.979077497473	1040.6471558383
1	6423	325615.133045964898	0
1	6441	327347.207323603692	0
1	6467	328303.215579335951	445.33568049993
1	6491	328906.046760669181	0.760102754451
1	6499	329127.7526412555	0
1	6508	329467.17551348409	0
1	6517	330108.69022524272	205.90339318895
1	6531	330577.535150586413	326.92061137331
1	6536	330704.091857348596	297.91351700957
1	6560	331755.341024494841	613.47450469367
1	6582	332812.728179067613	354.52915939573
1	6590	333020.262477869292	75.579196474716
1	6641	334076.62489412612	25.509129867821
1	6653	334322.918183655319	213.21447491243
1	6661	334662.151625636055	434.19655875191
1	6686	335503.348284246142	100.69663354028
1	6699	335851.374012015475	104.59176398573
1	6708	336297.645027114967	146.55718813933
1	6732	337748.850234215512	298.52810664721
1	6737	337856.130969439991	267.20598607184
1	6757	339255.400639565999	394.0241968519
1	6762	339257.032381090702	318.01900016648
1	6792	339920.799733893839	21.65201185056
1	6800	340158.837581705188	28.196945706341
1	6820	341149.549130987241	100.82418369969
1	6847	342187.812167827399	649.09831664168
1	6855	342427.409834941055	702.24006965298
1	6863	342591.264671175533	543.74088614848
1	6875	342957.689053188629	714.50457088079
1	6883	343225.734891289848	689.1555733539
1	6891	343367.50310419853	551.04951826385
1	6900	343847.021792602306	530.74152952196
1	6905	343905.57565768886	522.86203514377
1	6929	344829.923433327527	772.47007402329
1	6934	344969.916038356257	541.3417649769
1	6942	345138.14618279844	680.88097066654
1	6950	345257.487004167409	613.92709095859
1	6970	345520.978375635365	37.229905539503
1	6978	345801.384480408221	27.126783579349
1	6993	346487.028060089642	372.63985629164
1	7032	348214.765759011808	387.33940991215
1	7037	348293.097740113989	88.520608938566
1	7065	349594.19182990837	886.26647226236
1	7071	349730.519504146642	661.61971886582
1	7090	350393.930743592756	42.421107126535
1	7112	352034.191361109825	1295.5674215127
1	7120	352102.190383525505	889.86182980026
1	7176	354267.373913995694	1027.6612436088
1	7181	354384.041955932066	701.76625052882
1	7186	354395.600475169356	694.07599670856
1	7194	354613.321311706551	192.94019047913
1	7230	355994.417853808793	58.411749527986
1	7255	356966.331676322888	213.62366747393
1	7267	357529.433943005796	767.41204271998
1	7272	357534.42260926194	111.10308381356
1	7313	358987.201655368553	312.48081234545
1	7318	359057.006841976126	366.40292428006
1	7345	359364.156033592571	158.9707675638
1	7354	360218.666365665819	855.5017434678
1	7384	361051.243910393385	485.77489999843
1	7392	361325.777669514699	333.95356056233
1	7418	361620.573186833998	19.366041239572
1	7435	361999.490164373371	11.835469817109
1	7479	363603.95209061768	185.99950407731
1	7493	364471.065645453688	0
1	7501	364492.500894370628	21.155353021106
1	7527	365618.112747769668	757.58403756613
1	7532	365743.870227645786	578.56747824441
1	7538	366228.291466954417	941.95847445519
1	7565	366795.669313117047	2.980009123555
1	7610	368744.631067356162	0
1	7621	369235.133518062263	363.41179185756
1	7626	369286.520649723892	125.355977104
1	7635	370106.577595223399	525.55303033909
1	7647	370399.446911045329	176.08281461059
1	7669	371213.558808712956	0
1	7680	371477.879914662378	219.42972470844
1	7708	372012.764626765062	146.8714639918
1	7727	373282.452642930603	368.8472907759
1	7739	373789.076691728567	442.79761460547
1	7755	374393.59672753885	559.53528769109
1	7775	375195.598888106799	366.267871592
1	7786	375389.263146009468	537.41097504114
1	7828	377508.302247265836	0
1	7837	378669.611676173462	0
1	7852	379322.989974524155	499.77739120173
1	7857	379345.496668864381	195.20217944029
1	7871	379730.994512023291	0
1	7892	380865.841241310839	736.46321115262
1	7897	381090.700459368601	300.6622994247
1	7911	381623.678279790086	317.33256720783
1	7926	382445.51053397496	763.44313145655
1	7941	383479.712605160865	1537.1146821941
1	7946	383544.033614313239	1135.2535492684
1	7964	384246.189753839348	1673.0977304021
1	7969	384455.11420784236	724.83550376997
1	7977	384582.30152764849	719.78814952257
1	8006	385951.436124459574	578.84869683233
1	8011	386147.908607714688	279.59087618297
1	8050	387883.463847210671	752.43903976688
1	8074	389253.811408165843	733.3828891331
1	8079	389417.597183514966	689.25344676259
1	8087	389470.79655578218	13.497200406466
1	8110	390202.97020884808	575.74335919847
1	8118	390439.696879899658	549.22815448306
1	8149	390812.633316073145	14.69499054557
1	8155	391584.825428852373	775.3661078774
1	8234	393919.298617922293	44.844897763832
1	8251	394555.794421140366	292.9322108838
1	8260	395299.911903855204	761.69725198978
1	8265	395744.017879983779	738.82093175407
1	8274	396311.756046161201	0
1	8291	397080.227352421805	72.234943441539
1	8342	399542.208762864397	0
1	8350	399712.496231214736	0
1	8358	400130.340896420658	0
1	8367	400303.344756996483	0
1	8375	400670.62205166407	0
1	8412	402262.03039713019	362.88748942717
1	8425	402439.29879922031	0
1	8433	402546.089386425317	18.748083189969
1	8473	404364.430366322633	972.33694420685
1	8478	404529.226442281515	1121.7734505466
1	8484	404983.95027614823	912.41671802017
1	8507	405598.702784521174	338.91834874838
1	8515	406083.351085767024	321.83263797178
1	8549	407688.165441764395	245.48580533009
1	8578	410221.073680517114	0
1	8586	410284.165778109776	0
1	8595	410887.389566097442	0
1	8613	412378.301684336266	0
1	8639	414454.534026741563	0
1	8656	415048.164869324304	0
1	8664	415454.569610308002	0
1	8699	417438.127995399354	0
1	8707	417482.384322190833	0
1	8715	417525.115973912	0
1	8723	418269.6929841429	0
1	8735	418502.528050903866	199.20723126056
1	8746	418911.357783248533	108.19300939669
1	8772	420238.366876715455	528.45930051183
1	8798	420798.679429839875	192.85215346306
1	8807	421720.118420038244	0
1	8824	422299.343524465495	0
1	8856	423934.817578692358	68.73242002481
1	8865	424632.570779050536	668.10893304795
1	8879	424973.389284900881	271.50883183027
1	8884	425037.925923078366	289.07109136447
1	8890	425252.859840534744	422.31823970667
1	8920	426155.146695951161	178.77387469937
1	8933	426602.110792939098	0
1	8948	427262.448839828706	548.7915273051
1	8956	427304.643750006622	289.85606258065
1	8961	427370.366649600466	76.403060639082
1	8972	427713.588741677291	287.05402421289
1	9007	429161.755218432132	561.69901045816
1	9024	430079.883257557639	1.029035296774
1	9033	430376.025752956507	50.066416885914
1	9076	431789.337139584146	100.82424080855
1	9085	432084.028808973874	236.65010864422
1	9114	434039.783173460768	660.10295607975
1	9139	434963.962783887836	486.04392421765
1	9144	435341.61193307563	609.07711226143
1	9179	438227.718924344645	0
1	9188	439090.488286534019	773.75558509476
1	9199	439452.76046771169	149.947506701
1	9204	439463.352370552084	21.484650233519
1	9231	440837.133099690286	860.72270494044
1	9239	441143.819134258773	78.581742562239
1	9251	441867.959399858709	328.78700916153
1	9259	442058.011270763928	123.60645576836
1	9308	444612.304519086921	1391.8585703445
1	9313	444620.001945254996	1382.6233890876
1	9318	444709.447506434055	517.53899525011
1	9327	445402.524194713634	1073.8588951001
1	9336	445784.869067569252	1405.3409424654
1	9344	445935.290080470499	870.66665601168
1	9364	447228.621576175724	377.58027652735
1	9369	447375.261029477454	517.6559264178
1	9399	448224.345283651043	153.93558036192
1	9427	449718.563180906071	513.81985564008
1	9436	450199.968413501704	7.146788810778
1	9474	451339.321567735543	61.315295822446
1	9486	452006.043754882308	364.97762116867
1	9508	453138.08468270224	0
1	9532	454669.571769484826	827.85969083947
1	9544	455228.943067488214	655.18016676634
1	9558	455885.500512350844	727.40919568852
1	9566	455905.371329376398	446.68199103816
1	9581	456697.521135564717	180.17011326792
1	9593	457084.353704294301	277.46129338101
1	9598	457440.07582262967	587.91913257012
1	9617	457727.545788624274	132.85122334143
1	9659	458772.589468007872	391.82291122574
1	9667	459228.809194089081	830.52454637399
1	9675	459434.169286496503	899.47869889526
1	9681	459805.18241233085	837.12794710916
1	9686	459869.729259952636	551.45509826502
1	9694	459971.294673153033	45.362415690303
1	9712	460914.243327716886	255.08976273556
1	9757	463222.153973527411	120.06463156808
1	9768	463626.807419994548	520.64368504248
1	9805	465481.199645374855	251.29477977938
1	9842	466960.146859001844	303.63592006987
1	9869	467805.651465536013	374.03357041067
1	9878	468303.608550263203	0
1	9895	468921.798525346565	0
1	9906	469569.112590320451	521.68462929625
1	9937	471027.852433799916	8.182630637283
1	9964	473253.210005725888	0
1	9983	476359.493737987236	0
1	9995	476695.012864586032	279.82501515254
1	10001	477479.420787615585	1049.5659701835
1	10021	478574.724102525772	429.67125614553
1	10026	478575.81268223521	327.38502567394
1	10074	480825.777338081175	319.11281755543
1	10083	481097.252161219399	540.24646385297
1	10088	481253.204347341326	576.37329475359
1	10096	481399.159667739684	490.61763198808
1	10101	481588.182960212263	313.3389752119
1	10110	482423.970115332727	0
1	10135	483018.626042015173	0
1	10153	484705.713520082395	431.5086252459
1	10174	486255.531392069468	383.93514492395
1	10205	487783.238215740876	0
1	10222	488629.942705826004	0
1	10248	491074.359569593188	0
1	10260	491456.362623535455	299.80623620006
1	10273	491884.85344126806	0
1	10307	493372.494391466466	247.38989307726
1	10316	494386.527834212909	0
1	10325	494888.056127965558	0
1	10334	495492.929127128771	0
1	10349	496654.848407988813	1087.3936835913
1	10364	497603.644512664949	964.25034132169
1	10369	497687.651238332861	449.70620527957
1	10396	498087.85234761192	64.879452637415
1	10412	498467.280458678672	118.96788670715
1	10425	498801.944788895755	0
1	10451	500500.4446543576	0
1	10467	501657.962946403031	1140.9178360489
1	10472	501683.03948438708	44.038845993471
1	10485	501892.095622399781	86.081563475496
1	10508	502401.222627980869	14.094944843161
1	10532	503091.495454120825	401.30361880004
1	10561	504338.739693282948	742.72832177541
1	10566	504487.682863523116	877.03959861863
1	10574	504806.911275078147	188.78536684343
1	10629	508876.588980270923	0
1	10638	509553.194850884994	0
1	10646	509799.8396426947	0
1	10680	511431.032092883619	0
1	10689	512257.403645424417	0
1	10712	514433.786430591718	2107.9654033431
1	10717	514469.352591172619	2016.7084176087
1	10729	515517.701047025611	1828.8258973971
1	10740	515802.389375215255	2087.000128196
1	10745	515860.481631937427	541.07406313017
1	10760	516361.620204405306	356.70147946749
1	10771	516623.88936666187	233.93935875102
1	10807	518629.098162581086	278.17627875452
1	10843	520878.366234128498	0
1	10868	521926.490982209228	0
1	10886	523578.805818609442	0
1	10897	525795.896649148432	0
1	10922	526377.756062825364	139.79270443116
1	10930	527130.074171131267	0
1	10950	527846.378771579138	17.662158921351
1	10962	528438.76427225953	378.84927812091
1	10967	528560.845009917021	467.21197608355
1	10989	529518.185172466653	0
1	10997	529681.162367455815	0
1	11036	530510.827948294738	201.69228487231
1	11042	530851.194530497241	458.64256141785
1	11063	531370.664654500356	0
1	11072	531449.321822975761	41.483754293919
1	11097	532789.10917239646	0
1	11105	533010.473970294655	0
1	11114	533423.040304386937	286.34335061727
1	11139	534909.847865307941	1350.0066475465
1	11147	535247.779059177835	1602.4173387218
1	11152	535379.318500651419	1481.6276173847
1	11166	535654.505584603688	1406.8244132308
1	11171	535697.308472772967	1097.2207295027
1	11177	535844.446124439792	243.21756318905
1	11197	536700.249743556844	562.63610444561
1	11223	537626.806673535471	623.20915439135
1	11231	537859.133422055694	682.04713416182
1	11272	539075.178012284738	282.90163581815
1	11281	539897.792402118099	1072.6885234591
1	11286	539955.912403676987	1112.5451702909
1	11295	540435.292107869403	1535.2051571016
1	11300	540490.143927040479	67.39292582382
1	11345	542548.362097963852	30.427233964724
1	11381	544286.01632236677	711.96073163948
1	11400	544630.22996604565	226.07516456125
1	11408	544809.012466584941	49.124067751337
1	11459	547920.421095126286	0
1	11478	551008.445314726408	0
1	11496	552033.111309364252	0
1	11504	552185.941493602527	0
1	11524	552876.997222864835	109.64748781763
1	11546	554516.50027419683	0
1	11558	557226.187778538003	0
1	11569	557331.761932516103	85.698466336417
1	11590	557577.864250943981	16.020972780436
1	11598	557931.512688457705	0
1	11619	559313.505374750404	14.691813076098
1	11633	560286.741513750428	0
1	11657	561588.145774769155	818.41471097241
1	11662	561667.291157883769	122.66380858167
1	11670	561843.061027793679	160.87046413079
1	11698	562743.280400428796	529.55460916926
1	11716	563068.550355736933	0
1	11725	563473.872221837296	0
1	11737	564028.852026137935	89.459600273569
1	11783	567216.467953065986	1218.5985788799
1	11792	567639.506187416981	1186.2332912217
1	11804	568380.925853431676	1564.9691871341
1	11822	569457.898717091946	2045.5206152923
1	11827	569642.77429504903	1818.5584611949
1	11836	570283.192114764121	2217.423252354
1	11841	570369.798410609794	1487.621796816
1	11861	570955.476308519467	374.13120789453
1	11893	571942.982852238294	30.960425997084
1	11905	572968.872834996296	883.35340921262
1	11922	573908.531514737702	372.95064100075
1	11935	574283.327009577818	166.58515265501
1	11979	575983.064378293298	0
1	11988	576066.63242620345	0
1	11996	576315.528751128103	146.55908440538
1	12004	576489.488656646107	36.128196409171
1	12045	577704.745463894016	428.24384914466
1	12054	578052.552235923788	0
1	12079	578795.660584226051	238.4183397861
1	12095	579391.907979363596	0
1	12119	580775.242309625779	243.15038138375
1	12131	581597.574645153225	857.13731043743
1	12140	582049.604638837959	1272.6425935828
1	12145	582244.902995670776	1181.3804190005
1	12176	583377.933812696595	551.59464654292
1	12181	583489.204125573287	233.18531309197
1	12208	583801.40577386698	28.441528453284
1	12227	584391.171702985826	226.86345158612
1	12232	584528.487490011874	337.07950326696
1	12245	585466.452534025711	320.16436281327
1	12268	587114.059975316801	767.85348570451
1	12274	587254.080827566579	794.82403021212
1	12307	588964.847111213268	0
1	12334	591754.609086342303	0
1	12351	593086.333823598988	0
1	12378	594921.613746962255	0
1	12386	595702.208024144953	358.80650374453
1	12395	595844.353623282807	0
1	12432	597842.823601469416	307.53181068611
1	12437	598296.587577885886	500.25785634081
1	12446	598446.654181359974	140.99140947659
1	12455	599186.415280968093	403.75551641151
1	12475	600427.797858555969	304.42224315597
1	12483	600636.606858599939	506.44311573914
1	12495	601072.1143199439	609.81798179425
1	12500	601158.241115786199	285.02297527226
1	12505	601224.815685118721	231.33554366662
1	12542	602748.93784029376	446.13681820321
1	12559	603460.958013452731	203.96118580208
1	12589	604713.946075251056	0
1	12598	605387.270204881682	0
1	12655	608277.93023512934	918.25698968901
1	12660	608421.195727133129	626.83156884265
1	12669	609273.92766399039	1008.4257997392
1	12675	609651.778792447384	1135.7250384679
1	12686	609921.558208740674	168.00678370181
1	12703	610704.347761626453	699.34783444923
1	12714	610862.851075248132	135.24226064778
1	12726	611163.347212652636	360.60874462752
1	12740	611584.979897547547	709.18290452686
1	12754	612002.125008914124	979.05803396646
1	12763	612306.611446564566	579.25202751733
1	12774	612709.580122566046	557.71133473524
1	12780	613037.59500785154	359.40549846853
1	12797	613543.798837566972	847.31220074366
1	12812	614441.81841143193	1270.3455698666
1	12817	614519.901540876295	1146.68423348
1	12823	614611.529044353237	956.21279349649
1	12842	614934.090291974102	232.53625443599
1	12858	615220.135466519295	13.479609431423
1	12886	615794.287553470389	264.03965856094
1	12894	615993.594500645024	355.3601285234
1	12899	616126.093625298998	399.16131501112
1	12920	616906.552496839031	680.72191693953
1	12942	617953.501729445368	461.93702323126
1	12951	618187.091020163626	0.977464250927
1	12967	618821.310443186937	233.33128016978
1	12973	619004.374376521991	290.38373217729
1	13017	620372.340750808708	271.7112013721
1	13036	620584.445972394519	38.649668457669
1	13074	622147.516154865367	723.10493089604
1	13080	622299.521646075144	265.60307807429
1	13147	624085.515533853746	243.53076268049
1	13155	624638.55542245997	586.57857896984
1	13161	624998.646904409125	931.15185524183
1	13180	626324.108532749865	411.01730639395
1	13199	626818.42241480293	87.464462078214
1	13216	628256.547924692725	0
1	13233	628560.793380764271	0
[...]
7	16384	769109.456928545864	8
7	16386	769185.186598361272	7
7	16391	769380.172179900286	6
7	16403	769892.364029851275	5
7	16408	770024.671868321515	4
7	16411	770067.064186601216	3
7	16439	770779.667654957323	4
7	16447	771029.550543234746	5
7	16451	771067.246473572882	4
7	16458	771266.574109579532	5
7	16462	771406.805482608354	4
7	16466	771422.69783394965	5
7	16472	771493.80092045437	6
7	16476	771635.084347998627	5
7	16480	771974.458130779119	6
7	16485	771975.096318708408	7
7	16489	771990.433497124949	6
7	16494	772430.765166003543	7
7	16498	772666.624891373263	6
7	16501	772805.671690371725	5
7	16504	772910.585083858355	4
7	16516	773109.511909849786	5
7	16529	773361.850827724424	4
7	16532	773544.100011503272	3
7	16535	773705.254525210323	2
7	16539	773950.63750418406	3
7	16558	774502.01997894644	4
7	16572	775214.974830950127	5
7	16576	775395.02008509793	4
7	16579	775632.898910576585	3
7	16618	776801.991693388403	4
7	16630	777221.419928996232	3
7	16634	777399.482546381395	4
7	16659	778436.260980872839	5
7	16661	778707.346708573452	4
7	16675	779583.136551404495	3
7	16679	779621.516118562677	4
7	16686	779760.545426714182	3
7	16699	779946.247418978104	2
7	16704	780051.838861696449	3
7	16711	780489.411917679312	2
7	16725	781258.99611110616	1
7	16729	781361.034682477859	2
7	16741	781588.916084797414	1
7	16745	781704.008265889979	2
7	16750	781743.905596788403	1
7	16753	782095.6427462954	0
7	16778	784897.902528709461	1
7	16789	785060.536601911193	2
7	16795	785167.668432587761	3
7	16797	785329.730253710403	2
7	16812	786352.944945232343	3
7	16814	786438.290051539444	2
7	16822	786794.243184418565	1
7	16836	787552.586324679072	0
7	16840	787576.470082128275	1
7	16847	787727.729835127938	0
7	16864	789732.539913106352	1
7	16873	790698.696588364868	2
7	16882	791673.233612306334	3
7	16889	791951.577540320308	2
7	16893	792421.630624682045	1
7	16897	792792.781785342606	2
7	16908	793727.989071112039	1
7	16925	795200.032779905811	2
7	16930	795226.424539054926	3
7	16934	795232.885509477926	2
7	16938	795315.206091960211	3
7	16943	795441.025066374504	4
7	16959	796286.720636836952	3
7	16969	796511.19605876687	4
7	16974	796527.834343329575	5
7	16978	796569.35369541539	4
7	16989	797008.586845598619	3
7	16993	797085.89579705631	4
7	17018	798402.446182656581	5
7	17020	798527.637923822025	4
7	17025	798596.049625509445	3
7	17034	799021.017319601073	2
7	17047	801020.661281604603	1
7	17065	802166.37179349746	2
7	17073	802323.720638562906	1
7	17077	802344.749164136572	2
7	17084	802405.773064633773	1
7	17088	802530.136590237749	2
7	17096	802749.471528275391	3
7	17105	803492.94131979087	4
7	17110	803504.521032180965	5
7	17119	803864.134173772124	4
7	17127	803932.801367955726	3
7	17134	804072.473045174028	2
7	17143	804549.946660639017	3
7	17164	804757.716472370871	4
7	17168	804801.329104543826	3
7	17176	805006.277487488155	4
7	17180	805067.972975206592	3
7	17183	805383.11243019877	2
7	17193	805593.759306492801	3
7	17199	805753.657385491922	4
7	17203	805781.432861515139	3
7	17209	806368.36913363109	2
7	17214	806625.695411017459	3
7	17219	806767.875978346722	4
7	17234	807181.396090153843	3
7	17238	807377.338614219453	4
7	17243	807428.496122347937	5
7	17261	808251.610781518532	4
7	17268	808490.555944194777	3
7	17272	808711.079547563585	4
7	17276	808761.081968979921	3
7	17280	809056.450048741945	4
7	17297	809647.695942752227	5
7	17302	809679.828435399794	6
7	17306	809737.037122328988	5
7	17309	809918.969388989347	4
7	17328	810807.090337844113	3
7	17337	810897.80773091864	2
7	17340	811021.521457792053	1
7	17370	813114.558733767181	2
7	17379	813690.915086743035	3
7	17383	813891.548406158254	2
7	17391	814423.614075810204	3
7	17396	814581.134383970463	4
7	17401	814698.046661355209	5
7	17410	815011.082412325564	4
7	17436	816024.096177863487	3
7	17439	816096.948700878344	2
7	17443	816166.214763567339	3
7	17447	816263.098047799981	2
7	17450	816594.195272252497	1
7	17454	816657.708581472158	2
7	17487	818471.532445414471	3
7	17492	818664.77601060695	2
7	17496	818876.804555264989	3
7	17500	819015.03887152159	2
7	17522	820007.786297413388	1
7	17527	820340.961299782371	2
7	17540	821208.669094906387	1
7	17544	821295.433833532339	2
7	17561	822350.294793266802	3
7	17565	822660.758740655667	2
7	17569	822856.893626460364	3
7	17574	822983.734026050771	2
7	17590	823518.062220372601	1
7	17594	823646.156444673938	2
7	17608	824347.608613138911	3
7	17619	824723.873745526631	2
7	17632	825147.429903032652	3
7	17637	825563.179231498489	2
7	17641	825618.770766214936	3
7	17646	825901.539904804898	4
7	17650	825994.379613980801	3
7	17654	826539.365999336503	2
7	17662	827469.276613594369	3
7	17667	827611.50322878044	4
7	17671	827618.34364511741	3
7	17675	827652.760816658519	4
7	17684	827845.362224381591	3
7	17694	828166.680656050233	2
7	17706	828738.776753369378	3
7	17711	828827.621298687877	4
7	17716	828928.296589678434	3
7	17719	828980.200427420208	2
7	17723	829198.348002230949	3
7	17759	830070.462375187742	2
7	17772	830626.264371971393	3
7	17777	830839.42903209201	4
7	17782	831135.479479800442	5
7	17794	831304.922928510798	4
7	17808	831397.75812378463	5
7	17811	831728.921286824173	4
7	17824	831934.45297177872	3
7	17827	832264.319705951037	2
7	17832	832498.89638746131	3
7	17841	832641.160121763024	2
7	17853	833335.302855302134	1
7	17868	834158.73971186317	2
7	17879	834462.579487853784	3
7	17884	834529.050671357618	4
7	17896	834966.942891376379	5
7	17901	835069.642117291665	6
7	17903	835146.623096830353	5
7	17917	835860.091576383239	4
7	17921	835898.623425796173	5
7	17928	836180.379946972284	4
7	17933	836506.321755064752	3
7	17936	836546.622534215201	2
7	17943	836680.267207902001	1
7	17952	837232.140849773903	2
7	17957	837707.220089150694	1
7	17960	837775.666045212479	0
7	17981	838649.251009502405	1
7	17986	839112.665433130819	2
7	18010	839518.241459090953	3
7	18012	839741.956908720709	2
7	18021	840713.159139498914	1
7	18037	842391.806707120452	2
7	18041	843691.208251177739	1
7	18057	845586.530458949837	2
7	18068	846138.140143829655	1
7	18072	846255.696417175135	2
7	18079	846396.720736161358	1
7	18083	846425.953782392784	2
7	18088	846730.555256197725	3
7	18092	846840.134508164654	2
7	18110	848657.348665439437	3
7	18115	848712.47389826443	4
7	18128	849593.453416950721	3
7	18133	849614.008617703528	2
7	18139	849746.193623991741	1
7	18148	849976.337646122926	2
7	18161	850161.788293444721	3
7	18168	850225.109328902316	2
7	18183	850939.307210733722	3
7	18190	850967.894356478032	2
7	18201	851244.851415012374	3
7	18206	851332.947010566877	4
7	18211	851601.025118049127	5
7	18215	851659.583338010036	4
7	18227	852026.355303800938	3
7	18232	852671.028931257915	2
7	18250	853435.828903515121	3
7	18252	853540.855543161126	2
7	18267	853808.303803244117	3
7	18278	854045.038593612312	4
7	18286	854394.795659157838	5
7	18290	854491.164111643301	4
7	18294	854912.838194363965	3
7	18298	854994.945918810163	4
7	18316	855286.473627186898	3
7	18321	855478.819373756027	4
7	18326	855571.322978735025	5
7	18334	855741.014755662264	6
7	18339	856089.539498880231	7
7	18348	856153.446492350849	6
7	18360	856899.194680805673	5
7	18368	856983.186568661805	4
7	18374	857183.980572414113	3
7	18377	857245.364221863739	2
7	18403	858447.063520815419	3
7	18414	858917.285502497014	2
7	18418	859092.341716227268	3
7	18422	859324.973448380738	2
7	18426	859400.043356140507	3
7	18431	859450.532351074932	4
7	18444	860089.104042853084	3
7	18448	860185.118154401834	4
7	18462	861027.560723508556	5
7	18469	861166.096585477826	4
7	18482	861378.077936253197	3
7	18487	861514.032718479428	4
7	18494	861906.09696613816	3
7	18503	862493.802585317915	2
7	18518	863872.952005260591	3
7	18521	864065.105464021943	2
7	18535	864718.190876761502	3
7	18537	864727.881108843676	2
7	18550	864838.059432449768	1
7	18553	864867.406751904747	0
7	18558	864916.681870804482	1
7	18570	865260.196095295512	0
7	18590	868029.936519844857	1
7	18596	868312.278499802645	2
7	18598	868340.624146745654	1
7	18613	870002.245315168344	2
7	18625	870233.665825343377	3
7	18630	870294.833856256997	4
7	18638	870632.443301273103	5
7	18647	871507.12595127618	6
7	18656	872036.069967631347	7
7	18658	872107.889779233375	6
7	18663	872157.583805833825	5
7	18677	872443.826211369525	4
7	18685	872738.740482080512	5
7	18690	872792.016486192984	6
7	18694	872821.020248460585	5
7	18698	872862.886389596897	6
7	18702	872888.270531179853	5
7	18715	873253.119782949034	4
7	18723	873409.415426761658	3
7	18732	873564.404778853225	2
7	18748	873839.113470117358	1
7	18752	873904.91934432933	2
7	18759	874177.934083440981	1
7	18768	874298.922828577939	2
7	18783	875195.805912766234	3
7	18798	875748.18937353781	2
7	18802	875993.061349213661	3
7	18807	876006.752870365499	4
7	18815	876126.229353321511	3
7	18831	876465.058159505231	2
7	18835	876797.66331000097	3
7	18841	876989.402595783519	4
7	18852	878261.23485108883	3
7	18863	878572.873422608446	2
7	18867	878593.39579518292	1
7	18876	879067.683292036249	0
7	18884	879611.793385483346	1
7	18892	880092.400007139669	2
7	18901	881096.637472530332	3
7	18905	881104.100229618178	2
7	18910	881270.393555609413	3
7	18915	881457.890759143526	4
7	18920	881591.887373874197	5
7	18926	882078.516809598045	6
7	18930	882322.999675402285	5
7	18934	882396.194278297865	6
7	18947	883028.943342129368	5
7	18950	883057.112553574722	4
7	18959	883647.09801429229	5
7	18963	883678.046866534786	4
7	18975	884124.360418953615	3
7	18978	884305.101758575636	2
7	18982	884405.242464730027	3
7	18986	884424.973990904343	2
7	18990	884777.401092257764	1
7	18999	885561.796294414196	0
7	19011	885972.501104977663	1
7	19052	888381.805138596506	2
7	19061	888463.974747339422	1
7	19087	889522.224846485924	2
7	19092	889595.540766163203	3
7	19100	889780.117334974437	2
7	19103	889977.368359498481	1
7	19107	890213.264474161294	2
7	19114	890288.405474919147	1
7	19124	891315.006473570847	2
7	19138	891513.697298692807	3
7	19142	891525.792957129637	2
7	19160	892369.247440327535	3
7	19167	893027.638844821216	2
7	19172	893455.001949926803	3
7	19179	893965.97962267372	2
7	19188	894796.33780480384	1
7	19203	895174.003465549991	2
7	19205	895538.169863864582	1
7	19210	895616.202063960301	0
7	19233	897846.886775599234	1
7	19239	898475.219265578402	2
7	19241	899057.872103942811	1
7	19247	899482.932579931099	0
7	19268	900415.679252614545	1
7	19276	900883.729546021629	0
7	19280	900921.070769194151	1
7	19284	900975.080693390493	0
7	19295	901804.710864780812	1
7	19300	901877.515739174119	2
7	19305	902009.270244032951	3
7	19309	902026.338648724287	2
7	19312	902097.8956521991	1
7	19327	903289.467996153807	0
7	19331	903382.779300673965	1
7	19337	903594.091913310647	2
7	19341	903692.466521420708	1
7	19365	905212.98347378494	2
7	19372	905499.256800234492	1
7	19384	906033.137782730781	0
7	19391	906393.630330835555	1
7	19396	906449.930407377175	2
7	19401	907041.32101820968	1
7	19405	907047.194939250957	2
7	19434	908518.991485745368	3
7	19443	909227.089721500905	4
7	19445	909335.421291936613	3
7	19453	909411.351598179137	2
7	19459	909515.39356005473	1
7	19472	911427.525583322341	0
7	19487	912026.446072018915	1
7	19496	913726.091482081006	2
7	19499	913901.962886800801	1
7	19507	913981.839587017206	0
7	19527	914349.212701162463	1
7	19533	914746.951252761459	2
7	19538	914995.561600244777	3
7	19546	915288.187268713806	4
7	19554	915302.985163981451	5
7	19557	915787.733303359305	4
7	19565	916026.193179045311	3
7	19570	916060.051647519936	2
7	19582	916512.021346082883	1
7	19591	917685.845864750929	0
7	19606	918725.280491010605	1
7	19615	919121.9906497297	2
7	19618	919752.370911154848	1
7	19633	920609.065649372152	2
7	19641	920857.121310433126	3
7	19643	921111.17095778326	2
7	19648	921210.214702158691	1
7	19667	922903.003472903886	2
7	19671	924420.531063795731	1
7	19685	924708.307227393342	2
7	19700	925606.855259332971	3
7	19704	925616.910683924005	2
7	19708	925776.72889777994	1
7	19712	925788.485531133636	2
7	19717	925835.704876647201	3
7	19721	925841.208404828082	2
7	19730	926687.654468110986	1
7	19733	926773.96551925032	0
7	19751	927247.274962386374	1
7	19757	927551.40637147775	2
7	19763	928465.534733463502	3
7	19785	929781.685287286223	4
7	19790	929837.647514817233	5
7	19804	930476.807409623895	6
7	19806	930825.723293256784	5
7	19815	931152.97048880175	4
7	19823	931249.594562694273	3
7	19832	931748.055916784793	2
7	19840	932510.719602309886	1
7	19855	933290.421682927532	2
7	19866	933806.16553117438	1
7	19870	934273.686781355773	2
7	19876	934532.544016402047	3
7	19883	934734.024395785194	2
7	19888	934745.691783376604	1
7	19906	935969.699151051016	2
7	19909	936460.607553998917	1
7	19919	938395.8515434715	0
7	19934	938704.864394441853	1
7	19941	939148.654862724966	0
7	19948	939177.333520776363	1
7	19956	939341.809352092135	2
7	19961	939637.891030227733	1
7	19965	939750.401722062211	2
7	19987	940647.954213779251	3
7	19992	941267.178042434465	2
7	19996	941492.24503183719	3
7	20003	941550.45218703066	2
7	20011	941916.110496200957	1
7	20020	942180.163292253728	0
7	20034	942363.498489983586	1
7	20042	942641.828181578925	2
7	20050	942761.528123959267	3
7	20052	942857.865386970144	2
7	20061	943460.721932336616	1
7	20070	944150.279556396092	0
7	20091	945037.947060694259	1
7	20096	945296.451949206773	2
7	20105	945697.401431253674	3
7	20110	945787.328964681461	4
7	20112	945871.783610201733	3
7	20120	946119.889464189606	2
7	20128	946245.961876591416	1
7	20144	947412.242369686549	2
7	20152	947457.585796118918	3
7	20161	948568.438952195173	4
7	20163	948867.020080656644	3
7	20178	949091.716514120621	4
7	20180	949443.370069950367	3
7	20195	950472.046391340101	4
7	20207	950798.683218173832	5
7	20211	950883.027022551299	4
7	20214	950893.371349176238	3
7	20218	951067.883076602185	4
7	20231	951980.663249069309	3
7	20236	952032.048353496258	2
7	20248	952129.819014209428	3
7	20267	952496.210414714199	2
7	20271	952837.411492556133	3
7	20276	952849.982014492858	4
7	20280	952994.693818099867	3
7	20283	953029.959757450115	2
7	20291	953334.381236318041	3
7	20296	953761.043443073046	4
7	20300	953774.195490700253	3
7	20303	953910.379951157088	2
7	20322	954609.006781056302	1
7	20338	955227.434524317526	2
7	20343	955494.387737569086	3
7	20356	955948.962242874645	2
7	20375	958198.574182008641	3
7	20380	958245.252808936844	4
7	20388	958268.60114273726	5
7	20391	958365.265623896383	4
7	20399	958672.901068682907	3
7	20404	958715.881791087376	2
7	20420	959093.969482369375	1
7	20424	959136.612892837522	2
7	20432	959691.683958327868	1
7	20440	960013.290096893726	0
7	20456	960890.436984132642	1
7	20464	961017.016667804371	2
7	20472	961999.219915183903	1
7	20475	962358.582563023221	0
7	20480	962690.60340042749	1
7	20499	963762.502252458179	2
7	20501	964002.94635076472	1
7	20522	964541.945682044287	2
7	20526	964896.415054813017	1
7	20533	965154.026072968592	2
7	20538	965461.09728681668	1
7	20545	965772.833185962707	2
7	20550	965806.271364867695	3
7	20555	965919.701912115536	4
7	20574	967253.342418841467	3
7	20578	967294.379657934801	4
7	20583	967770.282649934423	3
7	20595	967995.264956340303	4
7	20609	969441.589932204534	5
7	20618	969720.557450685271	6
7	20620	969810.128994819616	5
7	20631	970142.759043590242	4
7	20641	970571.342905183361	5
7	20646	970586.150531635711	6
7	20653	970934.609231793671	5
7	20669	972340.278621103978	6
7	20671	972346.187911462707	5
7	20679	972574.085824875613	4
7	20689	973952.732068076765	3
7	20697	974061.477776108331	2
7	20702	974149.281617053914	1
7	20728	976451.659550978919	2
7	20733	976615.388284214813	3
7	20738	976659.174290559298	4
7	20740	976884.321211790623	3
7	20748	977087.05653696044	2
7	20757	977813.359172194515	1
7	20762	977833.154611283888	0
7	20775	978368.930519095349	1
7	20788	983783.194819765327	0
7	20803	984185.008208737125	1
7	20811	984711.946029608404	2
7	20820	985152.248401222382	3
7	20828	985383.018765908683	4
7	20837	985906.980712234168	5
7	20848	986420.381904857472	6
7	20855	986531.939682424486	5
7	20859	986609.295053947436	4
7	20862	986619.624267003666	3
7	20869	987380.182029526634	4
7	20874	987633.605700992153	3
7	20881	987644.104907061695	4
7	20886	987734.269767983297	5
7	20891	987815.07752793219	6
7	20895	987849.311145554404	5
7	20903	988178.977768804005	4
7	20912	988349.875101373223	3
7	20935	988947.022086133691	2
7	20939	989325.771981923857	1
7	20965	990163.449797706817	2
7	20973	990301.434959958405	3
7	20982	990971.736556791138	4
7	20987	991043.100007141883	5
7	20998	991589.751178922351	6
7	21003	991959.2334884363	5
7	21007	992007.776917606662	6
7	21011	992215.8157255732	5
7	21034	993431.831052787508	4
7	21039	993705.857980765388	5
7	21044	993810.250339687438	6
7	21048	993811.896515531812	5
7	21051	993879.277556184737	4
7	21054	994029.995823167323	3
7	21058	994312.329503782549	2
7	21068	994793.172545509813	3
7	21073	994858.783040897908	4
7	21077	994898.925959491528	3
7	21082	995173.529995702716	4
7	21099	995548.07447933688	3
7	21103	995688.444589206828	4
7	21107	995795.337797120063	3
7	21116	996383.605603813914	2
7	21129	997067.299256874998	3
7	21142	997169.705831350063	4
7	21146	997225.08716997256	3
7	21154	997467.892576738183	2
7	21184	999100.09843174421	3
7	21188	999264.672302492794	2
7	21193	999643.869853035745	3
7	21198	999760.093672882036	4
7	21207	999822.33423463153	3
7	21219	1000115.702910394874	4
7	21223	1000276.280913142244	3
7	21239	1000616.43253597454	4
7	21248	1002444.822854815805	3
7	21251	1002570.538854534761	2
7	21255	1003347.024778234573	1
7	21259	1003591.739491558438	2
7	21264	1003591.914523918155	3
7	21277	1003865.647529458668	2
7	21293	1004979.875640002083	3
7	21298	1005032.955340227397	4
7	21302	1005038.202711060324	3
7	21306	1005383.623455169334	4
7	21311	1005468.676729877184	3
7	21323	1005741.78027523394	4
7	21337	1006117.753202739195	3
7	21360	1007281.778818829265	2
7	21364	1007581.097282520739	3
7	21373	1007882.24493579606	2
7	21391	1008574.371682877899	3
7	21393	1008585.365839773993	2
7	21401	1008661.487894335126	1
7	21409	1008861.461146437413	0
7	21424	1009096.040830585038	1
7	21426	1009481.680934480236	0
7	21441	1010408.37318269174	1
7	21449	1010481.961925898312	2
7	21452	1011135.828907471149	1
7	21461	1012015.727712583031	0
7	21476	1012897.608088694515	1
7	21485	1013391.056026821274	2
7	21494	1014559.640380142795	3
7	21505	1014781.854965777729	4
7	21511	1014877.774513080144	5
7	21513	1015321.67088001262	4
7	21522	1015810.408983200315	3
7	21530	1016266.401144019537	2
7	21539	1016706.923943861541	1
7	21552	1017294.252798123915	0
7	21560	1017486.240140019285	1
7	21568	1017585.389060187366	2
7	21573	1017649.07025784161	3
7	21577	1017703.789103414401	2
7	21580	1017841.094636458027	1
7	21603	1018902.428565999522	2
7	21610	1019017.592026982906	1
7	21613	1019130.028740801423	0
7	21618	1019204.662682588899	1
7	21622	1019289.868418243651	0
7	21637	1019705.38490133108	1
7	21642	1019995.164052351059	2
7	21653	1020267.632840900777	1
7	21665	1020537.731280512392	2
7	21669	1020648.322567481627	1
7	21673	1020705.940535332022	2
7	21679	1021129.57604308057	3
7	21683	1021286.58217913424	2
7	21686	1021407.136584961936	1
7	21704	1021891.052470811938	2
7	21728	1022726.431338291593	3
7	21735	1023109.508326734575	2
7	21739	1023287.912312071749	3
7	21747	1023638.238294335885	2
7	21755	1023830.185161485974	1
7	21770	1024448.828309147529	2
7	21772	1024630.378573162123	1
7	21780	1025069.609993746676	0
7	21795	1025527.819257728631	1
7	21804	1026073.90816700983	2
7	21812	1026381.689147901366	3
7	21814	1026519.281385818395	2
7	21819	1026673.091857365343	1
7	21840	1027728.776041262717	2
7	21846	1027801.513062026223	3
7	21848	1027982.342877146921	2
7	21857	1028722.134704550912	1
7	21871	1029061.13198290784	2
7	21873	1029404.944263748931	1
7	21888	1029919.292632555109	2
7	21900	1030665.416864797564	3
7	21904	1030699.208846567108	2
7	21907	1030846.363454454673	1
7	21912	1031290.297050266685	2
7	21916	1031302.897662209649	1
7	21943	1033089.566765960216	2
7	21950	1033285.445670470291	1
7	21954	1033463.911132284286	2
7	21959	1033569.186213025103	3
7	21967	1034113.469692547049	2
7	21985	1035144.810911241889	3
7	21990	1035343.647295445668	4
7	21998	1035854.902684046142	3
7	22001	1036148.090510762421	2
7	22009	1036602.999878007892	3
