version 2
run ParkingMeasurement-49-20170108-17:27:39-3667
attr configname ParkingMeasurement
attr datetime 20170108-17:27:39
attr experiment ParkingMeasurement
attr inifile parkingStudy.ini
attr iterationvars ""
attr iterationvars2 $repetition=49
attr measurement ""
attr network controltower.SimNetwork
attr processid 3667
attr repetition 49
attr replication #49
attr resultdir results
attr runnumber 49
attr seedset 49
param SimNetwork.a.parkingLot.parkingDelay exponential(30min)
param SimNetwork.a.runway.landingTime exponential(5min)
param SimNetwork.a.runway.takeoffTime exponential(5min)
param SimNetwork.a.runway.throughputCheckInterval 14.286min
param SimNetwork.wg.interArrivalTime exponential(14.286min)

vector 5  SimNetwork.a.runway  landedThroughput:vector  ETV
attr source  landedThroughputSignal
vector 6  SimNetwork.a.runway  tookoffThroughput:vector  ETV
attr source  tookoffThroughputSignal
vector 2  SimNetwork.a.landingQueue  queueLength:vector  ETV
attr source  queueLengthSignal
vector 7  SimNetwork.a.parkingLot  parkingOccupancy:vector  ETV
attr source  parkingOccupancy
vector 1  SimNetwork.a.landingQueue  queueTime:vector  ETV
attr source  queueTimeSignal
vector 4  SimNetwork.a.takeoffQueue  queueLength:vector  ETV
attr source  queueLengthSignal
vector 3  SimNetwork.a.takeoffQueue  queueTime:vector  ETV
attr source  queueTimeSignal
vector 0  SimNetwork.wg  responseTime:vector  ETV
attr source  responseTimeSignal
0	1919	101113.847977665	1331.1663566306
0	1928	101283.013836985766	1297.8170089618
0	1940	102392.76384110873	5361.0814331916
0	1959	103205.788886973368	3368.9842744802
0	1977	105178.825180431598	4767.2913774833
0	2002	107992.666394436274	5858.7942271754
0	2030	108557.191375695639	1645.6681510581
0	2043	108835.341180554097	3590.3920201011
0	2093	111598.264879432393	9021.9569254214
0	2101	112209.408695545925	3220.3562150504
0	2107	112444.30523885807	3987.3345621869
0	2112	112485.23524524468	3715.3468938856
0	2117	112647.725932637086	9255.2847048888
0	2122	112818.053218387733	3170.3648571146
0	2164	115977.79345609828	8887.8956172364
0	2172	116481.639769778037	6601.4446852086
0	2187	117389.66239724408	3612.7533167273
0	2213	119334.301802650675	4813.4110945241
0	2218	119541.378537454921	3966.0560711669
0	2243	120270.545694315953	2963.7174899693
0	2254	120595.054957285812	3570.2165042767
0	2271	121081.436105589349	1365.8066676025
0	2297	123186.38240753631	3548.9590033315
0	2303	123572.737093132723	3078.950532444
0	2337	125417.407972355405	730.59215761218
0	2345	125534.85677233125	741.25654193812
0	2353	125612.02626134963	4562.3023404479
0	2363	126961.730034229584	9806.2264186111
0	2371	127462.358672570977	5345.1297811169
0	2388	128562.776315985624	3458.4009795634
0	2415	130361.842110820504	1650.2931978136
0	2476	134031.977824297434	5829.5064232252
0	2485	134980.802585917994	5592.415304953
0	2491	135456.551572397943	3820.4233718731
0	2496	135590.772449441268	5105.9343274289
0	2501	136125.98273485885	3704.5535779382
0	2528	138398.752148371028	6532.6741063771
0	2543	138982.70421958369	2476.4174395134
0	2557	139732.49167688597	6505.4917906416
0	2579	140637.042331905764	1842.3572079743
0	2587	140967.334635254592	3738.7921411533
0	2613	142806.280495068288	3454.1987696177
0	2621	142869.054861882893	2798.3182663761
0	2676	145700.744787927646	3510.9153686092
0	2690	146325.774299057436	3375.1780216634
0	2701	147218.540724647013	4861.0738318056
0	2706	147231.715944300007	3222.4697008118
0	2715	147743.510003167341	2202.9708013789
0	2756	149046.419595031262	4731.395320001
0	2766	150178.689172983747	3998.5335035002
0	2781	150940.803678495852	2634.5858093366
0	2786	151214.88454931599	3205.3594845609
0	2791	151540.718515084827	3348.5800705923
0	2799	151656.348050922249	7102.4205662822
0	2829	156750.709789849898	8156.8959196388
0	2858	158520.327759305236	2544.6625803454
0	2864	158861.993924070627	2866.3709745432
0	2876	159881.905594210061	3110.0631963377
0	2890	160896.365110271941	3069.6061614079
0	2940	164039.205783291737	4184.8014321504
0	2945	164090.583974127344	1580.3851482385
0	2950	164223.900373582216	1685.7909966544
0	2988	167029.833610438664	1909.8452474133
0	2993	167037.035917011568	4048.6373921682
0	3005	169938.726901484473	4638.4306910444
0	3013	170540.219745855409	8017.568085516
0	3048	173004.878266435707	7199.7249508043
0	3064	174029.620564848822	1644.3087923952
0	3083	175320.260598959342	2791.0692201905
0	3118	176946.586541680456	1425.6263647275
0	3173	178207.627869656287	4732.6592247726
0	3182	178828.532109159925	2859.7876521909
0	3188	179160.858583247487	2322.5842484806
0	3193	179290.96981896865	2481.407379502
0	3198	179549.468179483837	7966.1964375485
0	3206	179777.241626970124	6330.8208196124
0	3216	179864.441725542944	2783.8880776385
0	3235	181390.130469392888	3681.3672082597
0	3304	185178.129489835367	4216.2513549186
0	3312	185607.475162652165	4224.5777573217
0	3317	185621.622966838361	6003.2515827438
0	3329	186614.683885237671	3856.7169735368
0	3351	187346.788244001983	6498.512488724
0	3359	187514.871013587968	10537.754709564
0	3368	187725.42429879465	5289.4227569999
0	3373	187793.902197074307	4734.1517267362
0	3378	188059.718597185221	4260.6316092832
0	3456	189836.922356397089	2783.448139537
0	3476	190440.898415275462	1733.0711349542
0	3512	193265.158043302367	4490.2209553756
0	3526	194515.144251434963	5810.3121109196
0	3537	194599.222677173362	8834.6979341889
0	3545	195026.292480085897	6623.5899314015
0	3574	196567.451821713394	7326.4814494175
0	3579	196685.547798532316	8554.5497701124
0	3584	197046.663627415035	6666.3830806737
0	3593	197428.147510507374	7665.542159804
0	3603	197772.472741982515	8554.420506893
0	3615	198261.089310971999	7702.067262976
0	3620	198622.993492091525	6621.1368349364
0	3631	198741.487846244685	3737.2478165831
0	3650	199201.228697312775	5278.7287700775
0	3655	199254.806729145448	1861.1295313124
0	3845	206067.31187471913	7409.6466181072
0	3854	206589.366213381763	7862.8692583232
0	3862	207184.251299216994	7267.311401269
0	3877	207858.297947936556	7182.4603954381
0	3890	208262.011153902498	7828.2274252437
0	3902	208611.022088876166	8066.3649184764
0	3912	208897.969766835616	8002.3366074546
0	3917	209011.305259779594	6882.7560431466
0	3926	209157.957775859415	7670.0002997082
0	3939	209585.354806372157	8706.9727639878
0	3955	209944.306477802513	7648.9820411433
0	3973	210340.779665120328	14432.233764026
0	4055	213272.684462468715	8349.2573196695
0	4060	213301.433264436814	9882.2402057953
0	4065	213307.66886970293	10690.757027206
0	4074	213711.279300229729	11851.701033844
0	4084	214045.635252125311	8902.7301631219
0	4089	214058.199434148131	11215.818246992
0	4098	214298.861455246868	6804.6589307401
0	4154	216240.570263328973	12302.936769629
0	4159	216369.378163284836	14068.110724332
0	4167	216788.280405053765	6623.4908385868
0	4173	217149.612751052052	13913.220408373
0	4181	217643.024913430184	8096.5406529474
0	4193	218588.934598910076	9486.9183087435
0	4205	219479.741767099682	8820.8993931288
0	4263	222139.411335886203	11516.246827067
0	4276	222642.279575016891	14199.036748376
0	4287	223241.237910456108	12239.961947831
0	4295	223439.688681291143	11586.559364341
0	4303	223539.654189757275	13268.158101451
0	4308	223556.908193730666	12912.305676515
0	4313	223596.941459443665	10096.210765079
0	4318	223688.849217799467	9336.9251685516
0	4324	223769.547278160025	9377.2944691466
0	4329	223804.187462504435	9685.5109848774
0	4356	225070.941864777528	9296.0179845352
0	4423	226960.063001464826	7063.6015236304
0	4441	227523.974852207211	7598.9330884857
0	4449	227745.164853965214	10307.851462083
0	4460	227992.043826477158	13497.551242958
0	4471	228126.771649774031	6657.5459602041
0	4479	228379.01383441817	7623.0765904965
0	4489	228571.665887205225	9272.3290028636
0	4497	228755.514576409522	4237.1921424475
0	4511	229010.994070157446	4901.232837703
0	4516	229069.844387383079	4175.2632158037
0	4522	229745.566676099952	7233.4525827193
0	4527	230200.444358405013	5443.2567714455
0	4532	230310.125759654198	4778.7734611789
0	4544	230874.401857353205	5650.5651254668
0	4568	232456.926732668839	7600.6386889125
0	4581	233004.266073863741	5078.534083513
0	4595	233252.053738156348	8861.4498913885
0	4600	233775.633903974162	5602.2470623254
0	4605	233806.277052798727	5095.4340176359
0	4610	233819.660244752735	8011.7145871941
0	4615	233844.410607449769	2260.7079389342
0	4633	235544.621493549775	2852.1358054717
0	4660	237956.847161037638	7494.5315503208
0	4677	238561.950130944504	3178.3233046485
0	4686	239294.322962278215	2632.7870486712
0	4736	243302.345285061386	7603.8669276822
0	4741	243370.919656185045	1312.1074502974
0	4747	243886.423128040272	1607.0980106488
0	4764	244990.659245718251	2259.9697480604
0	4809	246412.562135738107	1261.2886507106
0	4835	248258.612062508851	2847.6353776827
0	4840	248266.190249472859	2882.1495006221
0	4850	249741.68155820566	11765.409906487
0	4861	249845.090548796045	5328.747128528
0	4895	251230.225023703317	8103.0407370675
0	4916	251583.087883562866	5311.5462447963
0	4927	251852.024098576494	4575.439997827
0	4935	251941.628289927665	2014.6441089319
0	4944	252624.175801307293	1931.3034820051
0	4949	252633.49873697405	7570.5388178652
0	4982	254995.023949988571	3654.2743866755
0	4992	255093.176198140641	4061.390680689
0	5001	256019.842573756825	6206.6795309658
0	5030	257882.015236044228	1806.6111986816
0	5035	257949.684694961806	3089.0338099369
0	5064	259316.326349809708	1331.5124944159
0	5121	261656.911971840335	5086.3456126972
0	5129	262039.032072007872	8932.6845544668
0	5134	262133.898462417821	3474.9676849456
0	5143	262555.284235791563	3057.7786189636
0	5204	264096.89760986478	4185.778430616
0	5223	265887.614636410882	6031.8259577879
0	5234	266203.836423605457	6955.702413566
0	5244	266573.493835621932	12867.256418123
0	5250	266640.736872382376	3998.8107087243
0	5255	266898.30788538127	4184.241149898
0	5263	267319.890262616246	4192.8678181283
0	5274	267717.357983167387	5301.6530562106
0	5282	267793.596109007508	4285.7556309836
0	5290	267871.173439947631	4216.106331076
0	5316	269049.96164909647	8578.4861327119
0	5383	270754.950631731784	3587.4059579106
0	5393	270807.639665010146	2987.1238056002
0	5399	270910.648067423376	1577.0237876739
0	5404	271328.652310306422	2802.8662984525
0	5413	271787.010564509597	3292.0416916374
0	5424	272671.613111244131	6512.1140897069
0	5429	272937.982088786462	3515.3443560904
0	5437	273304.528630193503	4869.4961992087
0	5455	274723.72356427508	4976.9811725344
0	5475	275318.682624294293	4791.117381603
0	5480	275392.429051389606	3609.7139447419
0	5497	276589.153794096081	2394.1734547818
0	5574	280287.077577097356	5185.0516387728
0	5595	281638.632230669897	5867.5773151402
0	5620	282315.259313071032	5051.6951088177
0	5625	282475.536807751086	4078.3932696956
0	5633	282799.860678447143	4871.0697687528
0	5638	282832.338050458635	3984.4463316738
0	5644	282938.740570723717	4978.6806116387
0	5661	283200.060687860312	3031.8404555313
0	5700	284924.145836905612	5402.3897673262
0	5705	285001.444542846379	5325.5355525896
0	5713	285310.925397954129	3594.0299265301
0	5725	285572.690563053662	4433.3520594051
0	5730	285855.642427576053	2798.2710440477
0	5736	286508.382718640758	3205.3363609664
0	5742	287175.722407507487	4121.8299786741
0	5777	290220.108958914338	6207.3196861824
0	5810	292066.374770463457	2937.2792792572
0	5840	293598.353720769687	4502.8795209826
0	5855	294096.279161096552	4146.6107017835
0	5870	294474.651468757073	2485.2285353116
0	5879	295132.191949890349	4092.5800862693
0	5894	296456.159948728798	5167.3089122127
0	5903	296847.491844843538	6363.5858072947
0	5916	297326.126027295458	4499.7955493122
0	5948	298575.258709869725	4714.5705380305
0	5971	299115.999764042394	5081.4936801669
0	5991	299756.665490245364	1396.4419915964
0	6006	300680.98206315513	2196.9501053227
0	6037	302182.267645311547	4750.0776110749
0	6042	302200.110756431164	3708.9956598552
0	6047	302416.452233583757	2078.942989348
0	6074	303745.135237066966	3699.7917584155
0	6084	303809.155564756485	4522.2248121509
0	6089	303847.852767783044	2691.1006182274
0	6107	304834.046909983916	2150.6034999179
0	6150	305254.21159020543	8242.0459563607
0	6155	305952.178365666799	9158.137838163
0	6164	306334.218445372338	1324.3581311384
0	6172	306452.130203435825	2836.4603672029
0	6185	307826.536855602004	3505.6845986739
0	6190	308182.29582285176	3707.3363392952
0	6198	308353.590393664219	3479.7256473846
0	6227	309569.469069537453	4421.4290289027
0	6260	310629.064136650283	1112.6227108275
0	6273	311022.2795642568	1181.3226760553
0	6282	311291.404576638669	2532.4739811537
0	6381	315294.712815770785	4669.7142014812
0	6393	315461.950203423573	5478.4007305762
0	6411	316201.018239222873	4403.3674768878
0	6416	316258.092164542216	4504.0877368522
0	6422	316440.507875777001	7533.2772757163
0	6430	316536.639353912908	3903.9989065937
0	6438	316714.196687652874	4153.0856184474
0	6459	317974.754599527	5489.5792682943
0	6541	321346.531850662314	6351.6157153211
0	6556	321474.889079997665	6075.753095577
0	6569	322039.127206872033	10007.957213385
0	6578	322848.685567791704	9119.0904898464
0	6587	323185.77609634332	7668.11758561
0	6597	323574.399121831657	11028.617657761
0	6602	323661.849549718805	6134.0801858293
0	6607	323752.149949841502	6031.0547997316
0	6613	324126.152863742119	5336.1837310456
0	6625	324897.178692103515	7006.4320713324
0	6671	327671.867939936142	8300.6670159762
0	6676	327803.291912144308	9083.3524392245
0	6686	329264.401074357128	9898.3677046297
0	6696	329540.401861098119	9854.9275839568
0	6704	329566.867392044102	8156.7004920986
0	6715	329845.0605429134	5488.4211173335
0	6735	330404.340931090582	7534.6269278611
0	6759	330908.440129601003	4791.0737276548
0	6767	331491.706052818936	5185.4774933894
0	6782	332031.138097759144	6927.4585300908
0	6816	333705.102211634336	3886.633736678
0	6832	334433.207947265996	4064.5803308633
0	6843	334610.313104940707	5816.3068273417
0	6853	334677.764795913605	1221.5641390959
0	6872	335106.01021909472	3175.7874262694
0	6884	335265.97474654093	1593.3069144661
0	6897	335536.419726983238	3267.3184442764
0	6902	335606.188277711965	1004.6801556059
0	6910	335722.559292271685	1024.9969475684
0	6918	335901.054344137593	4128.067123113
0	6927	336782.127860823312	6236.6569888779
0	6944	337418.930003741473	7028.4905232279
0	6966	339883.919069451948	4656.1026299998
0	6971	339991.16773753365	3203.1148225495
0	6994	343439.747122428188	4631.1773253115
0	7079	348907.700890991457	6040.2494837868
0	7084	348927.133982626704	5555.7380109292
0	7089	349016.906685062446	4962.3018855518
0	7097	349342.804216500064	4698.7762517747
0	7102	349439.262030250752	3587.6942584523
0	7117	350017.963695331342	3510.1448562364
0	7143	350275.074997035725	4981.0431734485
0	7152	350863.591921981733	4496.8006701407
0	7178	352426.616391924088	5651.1266899079
0	7186	353008.916060950262	3090.4031209757
0	7195	353318.513977634865	2142.8322905324
0	7204	354078.056724624496	4199.8356142424
0	7212	354632.346542594784	4482.3373462571
0	7273	357648.11176281432	2043.7423377919
0	7281	357666.789142036091	2958.9078824871
0	7295	358569.402432334305	7047.0978760032
0	7344	361560.212675525116	6684.0765969242
0	7361	362135.524807176277	5871.6683662647
0	7372	362666.935860039749	6052.917221337
0	7381	363686.591270891371	6037.9881211088
0	7406	364336.898339543131	4934.4044158246
0	7411	364431.107950910892	2491.6927187326
0	7422	364599.351755619159	5912.0777123826
0	7427	364705.19053163059	6159.8327946794
0	7432	364836.700527420326	2004.0019382835
0	7444	365717.205364343762	6393.3661177546
0	7458	366460.571360859425	2601.3994712562
0	7475	367649.63830349745	1945.6339106329
0	7507	368818.174447851721	1931.8886702871
0	7520	369031.689550876425	930.76578064798
0	7525	369073.460687954382	923.77027909374
0	7534	369461.075439703346	8679.5428765593
0	7608	373660.363168242292	3315.6696514448
0	7617	373733.831255565239	4952.8683936441
0	7622	374225.430996720496	3182.7102474646
0	7630	374541.629772465028	2649.2648474166
0	7644	374842.860854024784	3618.7652052559
0	7684	378356.085830945486	6244.8370281711
0	7694	378657.427958977479	5291.9079597362
0	7700	378913.954519209015	6190.3258025719
0	7711	379210.039645544147	3750.5427285114
0	7725	380030.944039273446	4401.6790756833
0	7730	380172.731328648548	5862.7314804905
0	7747	380821.470573272615	1639.1220501371
0	7766	383271.833959759511	5753.883937856
0	7798	385474.835471441417	5047.8372587708
0	7809	385830.11649809984	1179.1031857344
0	7837	387046.653171646959	5795.5436074682
0	7845	387050.213296331399	2342.6172010695
0	7850	387065.532096795446	841.05270930275
0	7862	387810.777231036699	2484.7703302812
0	7877	389154.163761957225	2409.54955692
0	7929	392740.945680245859	5160.5449522005
0	7946	393490.60053459601	2098.7096200639
0	7957	394120.925395043371	2708.5454024204
0	7966	394969.071266049366	3003.3883592429
0	7983	395811.741856368932	2785.8120898436
0	7992	396495.019015906871	5148.7843729598
0	8029	398566.078027354206	1272.1412990544
0	8038	399394.454404612867	3267.3561707099
0	8047	399912.130390844059	5171.5371720718
0	8057	400059.421467531718	9922.3781758287
0	8113	401681.086900232534	4253.0131771338
0	8128	402332.235197650199	1915.4644062427
0	8146	402680.866298578961	2442.2366326603
0	8151	402708.458944964379	3131.172675348
0	8160	403234.851490593381	1136.2486147999
0	8165	403247.893257838873	2327.2960462955
0	8190	404261.419332995924	3219.7652005076
0	8212	406007.152226837477	3881.4071336256
0	8235	407155.014099131809	3865.9363424783
0	8312	409222.468639185022	8624.18129756
0	8339	410005.969188399035	6141.4927429173
0	8373	411684.176209733349	7187.227625423
0	8378	412169.107737263596	6283.2958139939
0	8391	413907.712588544276	6575.8086771516
0	8402	414256.238743151267	5851.8621579432
0	8407	414448.221070590926	5948.7496980963
0	8412	414505.343223761143	7061.2466439237
0	8421	415152.666852964928	7436.604374772
0	8427	415737.318761409591	6652.9105866464
0	8435	416205.146992299021	8327.691103029
0	8517	419127.145184947403	12144.04301931
0	8523	419447.078758135497	9662.710259263
0	8535	420347.322225882608	10925.348636307
0	8550	420686.880268616429	10869.609880772
0	8555	420690.831138006255	4426.5109694675
0	8561	420984.609014527208	4374.5600142917
0	8566	421142.503512825332	8869.1529354869
0	8571	421267.328319955284	5307.1626477812
0	8579	421403.176949952065	4034.2640379212
0	8584	421499.980135435915	4117.3302234223
0	8593	422024.147982991511	4614.8452248754
0	8598	422059.183290183538	4210.4940136079
0	8614	424003.381485240482	4209.0664776909
0	8650	425303.909070522015	2839.2256621675
0	8666	425463.256389585726	1945.4165901494
0	8671	425556.029732002558	5349.8477358437
0	8679	425864.398802228733	2406.5953943462
0	8736	427936.53276725608	1169.2842251398
0	8746	428143.092183383025	3407.179326399
0	8769	429310.536907464606	3216.5741465671
0	8775	429769.952436945816	4564.2906811566
0	8783	429906.445014399145	2628.7037152972
0	8791	430007.53562867882	2635.9742388224
0	8796	430084.887127699254	2161.0850414373
0	8805	430820.942264124897	3938.2915353808
0	8837	434881.178082887245	6325.1611884754
0	8851	435508.279137412272	3913.4446706264
0	8859	435740.67732114132	4077.4894526859
0	9003	443467.132909711983	9433.6899713741
0	9011	443561.177790268798	7161.6013235094
0	9022	443772.45555388855	6809.4230009944
0	9027	443818.536081229254	5338.0936920497
0	9042	444572.942784331776	6693.778368174
0	9057	445248.607483057796	6135.6599437504
0	9085	446801.808596609153	4758.05488228
0	9093	446968.300168229735	6554.7694822109
0	9105	447824.934316232033	9993.6980374541
0	9110	447833.482106373667	7574.9450187766
0	9121	447956.880985339283	6153.9288885706
0	9213	453122.33915014041	11580.954623679
0	9235	453700.00607252322	11017.431910055
0	9256	455022.137532563238	10410.481715074
0	9299	457234.059935251419	12280.763777985
0	9304	457241.728536228758	17977.583572005
0	9309	457275.126489095135	16077.476271022
0	9324	457912.391607958142	10074.78093493
0	9338	458585.115161029618	9469.2882954009
0	9343	458820.781698451394	7308.0904099504
0	9348	458971.359156512691	11017.705384002
0	9353	459032.900071932387	6483.6003239977
0	9362	459835.905205622523	6751.3202530215
0	9368	460437.166467904195	11068.117266744
0	9373	460843.869395317965	11595.761879513
0	9381	460915.908506205307	9375.8685915095
0	9398	461752.166151676351	16668.971121383
0	9403	461803.177672077699	8665.5850380882
0	9409	462163.140420750211	7593.2560109944
0	9414	462222.98669025667	7161.6947679432
0	9429	462913.207367341613	10385.862806233
0	9473	464789.149018725076	9231.8316702468
0	9478	464867.939805040065	7468.6866220382
0	9483	465060.977471563627	10508.150805909
0	9488	465302.417092000594	2809.085944257
0	9493	465318.916913379468	3067.9077546298
0	9509	466430.593678035275	5520.82772977
0	9539	467496.283962781445	3629.4170610383
0	9544	467615.109297895255	1222.7959718911
0	9565	469251.706472145889	3079.7323097087
0	9573	469499.271232805843	6554.4357917015
0	9587	469783.480493902036	1171.5718005132
0	9596	470767.572853017538	3818.0465787797
0	9605	472043.440929049371	9464.3191484164
0	9631	473198.128750834511	844.28246895559
0	9659	474365.990207306373	5092.3637699395
0	9667	474619.87896375014	1325.6508182985
0	9684	475624.920175831474	3236.7693212521
0	9721	477249.105687384683	2751.6990536189
0	9726	477290.185987829605	1953.0764916772
0	9735	478285.793232657111	4622.0550586913
0	9741	478388.05957712299	2645.6508585182
0	9767	480044.906986893744	3961.2648996653
0	9806	481458.898355535438	2480.2046028209
0	9812	481993.576613851755	2610.9593851866
0	9820	482105.649896496753	1613.0501933409
0	9834	483198.699526739729	3056.8294619824
0	9867	485607.518235433559	4922.276500448
0	9872	485677.48258131076	3609.0371367474
0	9877	485886.908844119752	2149.3925019602
0	9919	487475.612421437956	1534.063707738
0	9941	489398.460466878208	3015.4523690709
0	9957	489632.772005768142	3158.6915762479
0	9962	489709.225900349364	5303.2722409655
0	9971	490833.236896468632	2224.9912210018
0	10001	493071.086909911271	1483.7832933115
0	10009	493363.075920340656	6561.3129895211
0	10023	494313.3533185194	5320.8522278253
0	10040	494916.361081023314	2672.8805425545
0	10074	496751.331244779378	1976.2803074226
0	10118	497890.560925571279	2798.0696948364
0	10127	498012.38161561683	662.73386704881
0	10132	498087.368504160264	907.71096408666
0	10145	499859.795384465465	3681.2123833839
0	10153	500159.288810443611	3329.7433199836
0	10158	500284.838091318795	3964.9023855934
0	10176	501707.840644776141	8478.2790440516
0	10201	502648.384397815456	5260.726514279
0	10210	503299.575141116858	1563.4215167179
0	10218	503621.177429120748	3325.9546812684
0	10260	505659.144727265709	1905.4804473334
0	10281	506908.717875086027	3268.2747620532
0	10286	506977.282240965295	2041.6662084344
0	10303	507589.94775362336	3101.0744862536
0	10311	508269.648226048033	1843.76342394
0	10328	508745.650570133918	6377.9186551934
0	10357	510435.482683270252	3323.092633215
0	10362	510728.151936857453	2175.0151790478
0	10380	512080.748073989979	2808.2528847842
0	10417	516151.795905102129	6814.2804970333
0	10428	516498.68699384397	5176.5109059786
0	10465	517736.839873254374	4398.6873507965
0	10486	518528.689309405596	1251.1874571931
0	10495	518666.850819884197	1073.0334951112
0	10500	518691.405803948028	2381.3429488297
0	10511	519163.422739722401	4329.1035453506
0	10525	519909.845701826629	2195.8537953364
0	10543	521208.201546050567	8053.5183727223
0	10588	523025.208385987686	1380.1130333547
0	10593	523033.601449079525	6198.7922345378
0	10609	523543.645116855462	2077.6356149364
0	10637	524991.392925590372	2726.1720757327
0	10706	528364.737995110323	9262.8123098233
0	10747	529447.676819379032	5222.2475506737
0	10775	531990.524142095808	7110.1416449623
0	10786	532297.72113701849	7507.7637202165
0	10791	532702.723174052755	10258.35461571
0	10800	533612.24859918826	9219.0959095736
0	10819	534197.099453904755	6296.755658081
0	10827	534423.050370994932	13588.105727985
0	10832	534655.01701658888	8831.7738874422
0	10844	535346.891202598966	12259.453924706
0	10855	535777.229124808735	10913.112280673
0	10860	536036.530883457103	7800.6088152043
0	10866	536744.923444128112	9607.7586036241
0	10874	536956.753251430479	9251.0002449362
0	10882	537277.642657180139	8148.6461754968
0	10900	538332.522969377125	6729.1117714385
0	10905	538360.324842172332	4993.4438695212
0	10910	538711.205709069692	3648.2776518974
0	10916	539321.59394517956	5499.4393816053
0	10942	541411.458375882434	4367.0895294171
0	10976	542656.663265585917	2662.2157613376
0	10996	543628.814908511698	2774.6000758317
0	11004	543793.382836271172	1829.963208824
0	11126	548519.571273747817	6190.5396645267
0	11138	549103.818346646127	4813.8797564972
0	11144	549604.016031077141	5544.076450402
0	11149	549660.578255248011	6929.6065779707
0	11166	549992.634518774065	3423.4535880698
0	11190	550862.73754183179	8756.7299853943
0	11195	551006.773636857585	4163.6683248492
0	11211	552223.945108587129	8320.3880310009
0	11245	554022.742011704066	7416.4054391171
0	11250	554101.243145261911	10042.250770402
0	11258	554139.115488006968	9205.0356196339
0	11270	555271.011805898211	7515.9881462309
0	11289	556100.873916985231	12436.559750683
0	11294	556110.10555964897	6287.7910936472
0	11303	556314.051964191022	6564.3984161993
0	11334	558186.563160970811	10278.62244096
0	11339	558332.220156213331	8340.1263572797
0	11350	558658.645292253304	6810.7754122889
0	11359	559576.482420833388	4861.3435460492
0	11365	560017.325343424847	8141.194492476
0	11373	560308.511350698778	8565.0196588893
0	11379	560604.539307810152	4477.4005850124
0	11384	560701.826801941683	4099.7685058904
0	11389	560795.199858551792	5820.181051937
0	11406	562216.284260251203	4967.6926745098
0	11448	563242.156229378317	1681.0593872954
0	11467	563959.5097548495	1385.537809187
0	11473	564172.69021315626	1523.7583395019
0	11548	567862.140210507992	4800.2264755891
0	11553	567880.236080970879	2830.7588995625
0	11561	568162.033392873838	5499.3953246033
0	11579	569396.45264281483	6025.6427851669
0	11584	569575.41302153303	4261.6729797231
0	11590	570103.39503595254	4979.6075010202
0	11595	570844.556141089801	5012.1333835558
0	11604	571401.720594254322	6181.7824642878
0	11609	571439.015697370927	5188.568526357
0	11673	575386.059349313413	2243.0546981585
0	11685	576062.227489443386	7914.424287971
0	11707	576978.761457067377	4388.9971969543
0	11728	577755.910736681867	4925.8220886562
0	11754	578201.762470551701	4441.7109922064
0	11759	578296.321321478298	2869.2011967709
0	11768	578705.244478386093	4510.0027149588
0	11773	578881.573368271005	1483.785782273
0	11781	579137.408125458172	5900.2342046643
0	11812	580518.327402562376	3088.7729097895
0	11820	580658.753172091155	2963.8804914233
0	11841	582456.992747215811	2489.5354549686
0	11858	582879.207971611194	3254.8044703532
0	11871	583127.1856314433	7395.3062347815
0	11879	583322.668713769272	2197.3116345104
0	11887	583591.633034123311	4570.4267481221
0	11913	585047.979633165079	2745.828723636
0	11938	587610.15886570582	5062.0785020581
0	11957	588034.77644284929	3884.9964663178
0	11965	588202.485741700209	4339.9990777555
0	11980	589518.068254338777	3361.890053663
0	12014	590779.458903551403	3031.9820268339
0	12019	591160.101771665144	3812.7436223676
0	12024	591409.730129882816	1937.499871018
0	12044	594092.814989867077	3910.3053752142
0	12075	597980.957348658659	8889.1650827261
0	12089	598835.854427014583	5807.427572194
0	12098	599225.60446014767	2504.9962000053
0	12110	600069.516899550854	2478.4156298615
0	12132	601553.123029128688	3672.2788967623
0	12169	602835.72215734072	2133.6856959534
0	12177	602928.789752373453	884.49316227052
0	12194	604238.320633260558	2665.4544162125
0	12200	604418.670282151826	4920.8600661504
0	12216	604742.542033378487	2682.6057689808
0	12231	605166.20795249926	2256.3389953304
0	12270	607263.66894806395	2254.5024777962
0	12278	607498.238512297355	3029.8234217556
0	12296	609152.689723549566	3256.3666135208
0	12314	610442.721358867573	3108.070858873
0	12330	611111.874567985655	5807.4813846433
0	12362	612405.36973982621	2341.5397599617
0	12373	613123.046295955764	2351.6476423621
0	12388	614009.40390775963	5216.7719417168
0	12399	615148.654208398182	3851.4217308215
0	12407	615312.842057415422	10313.366001622
0	12421	615460.188056379271	2212.8209236667
0	12437	617343.398488975531	5078.9401553792
0	12460	619197.986981780093	3977.4409224971
0	12473	619565.396797482055	3085.8557924674
0	12498	620522.452034041791	1598.3791560226
0	12515	621116.033105801262	3782.0564819269
0	12535	622070.815073205931	2391.7318441699
0	12543	622259.155446524374	2190.4147987768
0	12549	622473.683112442569	1903.253823927
0	12578	624473.022163744619	3015.0293853193
0	12583	624829.232071742495	1318.3658341743
0	12618	626974.695005259436	1682.5700665711
0	12671	628250.179347691192	4394.74034359
0	12782	631915.179460260469	4589.8998106993
0	12790	632021.777259250887	4955.4766899708
0	12806	632332.643090474654	4191.3853692283
0	12815	632692.713899005496	6149.2264049206
0	12831	633304.387483760943	5925.8364608103
0	12840	634072.020789995703	5824.5860354187
0	12858	635171.234954723804	7753.3386369176
0	12866	635398.671185474258	10003.172046996
0	12871	635918.583345650418	7162.7427712283
0	12877	636120.991548443212	6641.0004534784
0	12882	636285.37316066585	7576.5602699606
0	12887	636347.635429600521	7114.7711487131
0	12892	636403.957946696005	6641.7492369784
0	12900	636812.920747695277	5502.3844737709
0	12919	637138.887090978032	6812.3613022828
0	12924	637209.711431135938	6047.6919228946
0	12929	637221.031549761347	4577.4192507991
0	12934	637339.088560515699	5321.1575954292
0	12943	637936.930076569016	1410.4116370457
0	12953	639650.77328661084	6190.3704193467
0	12997	642934.720767776944	6036.8654942605
0	13014	644042.144707841631	1874.009035448
0	13032	644735.153315562963	3554.2957237813
0	13050	645238.053192992491	2665.1856789226
0	13059	646042.129338240196	6268.3718516941
0	13064	646077.805485198924	2631.7336499593
0	13090	647614.09791987768	3283.4276835325
0	13116	649566.241624124035	5206.9401033208
0	13136	650200.548365598123	1944.7003656892
0	13161	651176.15152211101	1564.4099099903
0	13178	652010.727857720025	1430.5444315658
0	13190	652569.508548809385	4941.5637262864
0	13200	652825.382328633703	5890.9813827045
0	13213	654038.659491126188	3892.273785693
0	13235	655306.912138269375	4445.2356522072
0	13244	655955.417585915726	3866.8651451486
0	13257	658198.629471515863	4526.9794850462
0	13263	658375.938569095502	11435.707281605
0	13288	659889.477832934879	5699.7042723022
0	13309	661054.646666345405	1513.0441432591
0	13314	661295.293017147048	2810.8871942791
0	13359	667488.930482729223	2450.2337231975
0	13373	668167.526530235591	7709.6679295095
0	13391	669309.167433649446	3671.1500436475
0	13422	670516.576561942753	4715.6402674158
0	13438	670899.479592288598	3760.1112474891
0	13455	671479.543166184605	2795.7075973984
0	13468	671994.897095780449	3351.8251838385
0	13482	672489.752357249981	3755.7790903793
0	13490	672688.442530433804	1934.9044718804
0	13512	673469.976536372497	3246.8795554313
0	13534	675110.051506035066	2495.7972617025
0	13559	675893.641768624138	4157.7119244846
0	13582	677756.924791572151	6664.4928267326
0	13599	678378.348024028587	5631.9463471439
0	13604	678400.421809437267	3837.5170870328
0	13609	678855.9957332133	3203.608718169
0	13615	678992.386868175643	2304.7610787538
0	13635	682502.247558157401	7548.7172961394
0	13664	684091.775485444428	6855.0018369074
0	13684	685492.409853178332	5206.3724542917
0	13714	686218.761835043914	2204.1141070171
0	13728	687430.627476356284	1835.9327473521
0	13737	687925.632696371206	2721.9220119025
0	13755	689653.816611166354	6634.4114618178
0	13799	691838.064871749797	5766.6730619274
0	13809	692208.595377333344	1531.6224517357
0	13814	692240.392765154523	4126.1484348235
0	13823	692847.269774653775	2114.7327188394
0	13831	693345.782002789855	8208.9201274389
0	13840	693720.047494200353	11145.978473576
0	13859	696760.915560243325	5006.7384541458
0	13877	698354.172500835574	8462.4244254814
0	13898	700010.756473316248	1928.1197355224
0	13913	701674.578746510428	2572.3599600351
0	13938	702420.22702485967	531.0179471246
0	13993	704785.713966672052	4789.0219188942
0	14003	705025.740642243339	10501.069376063
0	14008	705088.969009123872	2111.085132479
0	14013	705164.575841123057	2446.0298387042
0	14022	706065.560548302329	2747.4436480214
0	14064	707520.271680827909	4042.0656484886
0	14073	708452.987606078364	1861.9411111782
0	14096	709061.431948280969	7025.6417751173
0	14101	709093.746571768064	2163.5923199857
0	14106	709145.219360451928	2844.7883838795
0	14126	710559.089940355944	6008.8516250492
0	14155	712151.237111303832	5463.045477007
0	14161	712391.36188207575	2062.2947999766
0	14166	712568.386162770266	3202.0694690071
0	14176	714571.640882346311	5924.8608426821
0	14194	716059.045039308244	5079.2527680717
0	14211	717190.184996964827	1930.5595350475
0	14229	718615.104684383545	1728.2215776181
0	14274	723391.29777350937	5019.8681218457
0	14295	725117.849977710196	2831.2190934422
0	14320	725652.422979880342	815.63101808301
0	14335	726731.954796616154	4859.5297497275
0	14367	727998.828120568597	2915.123173004
0	14415	730099.040766528984	4721.6297633897
0	14505	733707.104143903417	12080.317741044
0	14517	734207.38193140292	8299.6220355403
0	14539	735483.320230442261	12871.396072028
0	14560	735893.235179220338	9792.2680952506
0	14570	736267.377853796016	8169.3526411436
0	14579	736411.507624135161	7991.0595890792
0	14584	736531.369486802076	6526.614207003
0	14589	736915.868677431153	6763.257930496
0	14601	737258.850805509334	6980.3676199718
0	14617	737834.450240841499	6858.6533986635
0	14626	738365.186950239557	10616.827699271
0	14643	738967.737584362125	11414.99996283
0	14662	739500.063044298896	9972.2297835572
0	14709	742219.817706297267	11118.810956704
0	14714	742265.546140994996	10722.338953926
0	14723	742317.692950850262	8948.4346946313
0	14728	742759.112009697955	7582.2810276719
0	14733	743017.781423456592	8238.8289514217
0	14741	743088.698981778392	9725.0226818719
0	14746	743113.099461572825	7475.4896218167
0	14770	743961.16956816799	6981.2191539712
0	14823	745158.593579500732	5910.0769654473
0	14837	745996.540480296147	4926.3847022443
0	14845	746288.979644002125	8053.7277537756
0	14858	746422.18247066898	6403.4166692553
0	14863	746429.241776334315	7103.6566620261
0	14868	746455.250543466069	7924.0662513714
0	14873	746462.542114592923	7155.1301613111
0	14878	746572.156869423378	3033.3939078581
0	14887	746708.604970808919	2758.9451662304
0	14895	746846.957597905307	2948.7962671516
0	14904	748240.567518646447	4413.2440567533
0	14921	749000.069208475441	7290.8177066576
0	14944	749100.572243832243	3967.1130977872
0	14956	749249.167703718317	1562.6480702048
0	14995	750792.369083675885	1889.792023661
0	15004	751130.79976254407	2071.8861286213
0	15009	751301.904416266021	6990.5689183527
0	15014	751523.774520721748	2305.1926315319
0	15022	751597.423484041239	2304.227818445
0	15031	751736.266562677929	5458.1144742935
0	15056	753193.059871048412	1462.4773421634
0	15068	753445.862310386365	4457.924020678
0	15086	753931.336922118492	3792.9390162977
0	15095	754884.923771360249	1608.1232419389
0	15105	756616.024818518	4381.2570860504
0	15123	758154.996146114512	4645.342008582
0	15161	761046.777170233605	2554.2914482091
0	15195	762199.49988873594	5291.8229454738
0	15206	762709.746626069016	2968.8311911529
0	15252	764921.72207887464	5084.8308643033
0	15257	765333.983426755791	3805.0467884402
0	15263	765655.136410422974	4115.3540306182
0	15271	765830.638219629273	3444.4271773427
0	15301	766894.217086139582	1115.8710024598
0	15310	767227.374376601655	4376.0740060656
0	15318	767632.222584215372	1381.6416372932
0	15330	768043.132836220888	5696.1243438372
0	15354	768567.218046879578	7634.7336900786
0	15366	769167.388093763452	2647.1778806811
0	15376	769427.232802459353	1564.4654998185
0	15393	770427.834096920613	1565.8119614358
0	15410	771286.901851446969	3210.2593565131
0	15470	773624.911075471685	9225.8462457935
0	15487	774800.161164772045	4368.4475595733
0	15492	774808.43563865769	4922.0895205889
0	15501	775119.710024875657	3760.1553400775
0	15506	775308.006656858375	3681.6347189716
0	15512	775763.530469558312	4364.9088936447
0	15523	776285.351382835642	4032.8070938975
0	15540	777009.668043163734	3570.8522016336
0	15545	777270.919755220452	4907.1298026064
0	15584	782817.916910443354	2700.3939612785
0	15592	782997.86923822243	3258.5055168743
0	15626	784761.640328163889	3195.9832359829
0	15658	786860.565416606441	2578.1479762102
0	15768	793467.155802123305	10221.515473792
0	15848	797034.061067592652	10978.81151803
0	15873	797501.488300521897	13972.431200574
0	15898	798523.173050945285	11268.623531963
0	15906	798724.49134173565	11935.952077451
0	15943	801515.889601823256	13588.755456174
0	16001	803872.594079734018	27685.745644545
0	16011	805116.820453292058	18879.236392982
0	16025	805229.397447095628	15870.648107554
0	16035	805354.957004532579	16053.365523521
0	16041	805974.823631872718	15873.590796617
0	16046	806022.633294437046	15724.501049431
0	16051	806151.791895733751	18420.498875249
0	16062	806520.125835192779	13447.035569531
0	16079	806947.909567966563	13266.850490276
0	16095	807750.414244686647	13519.277729649
0	16103	808111.377662451061	14836.131200982
0	16112	808368.480128411118	14797.387214931
0	16117	808446.446210039027	10994.548179353
0	16135	809585.952389063953	13231.481196851
0	16157	810513.785095919298	16666.775456514
0	16170	810785.946482423119	16357.039825946
0	16176	810936.285682210382	12235.995203053
0	16181	811041.02737731604	13072.732660282
0	16186	811547.745663706265	12138.001015089
0	16194	811593.47091094669	10799.821929728
0	16214	812191.305227946968	15400.727525515
0	16257	813086.267792301966	12986.42153714
0	16265	813423.5660457927	10328.71812322
0	16271	813596.130468553285	11155.149578942
0	16279	813627.842653517362	7351.9753327135
0	16331	815259.119611755592	10139.786858283
0	16341	815403.120158425611	8683.7382441666
0	16346	815440.551964585568	15296.94905064
0	16354	815495.9650995951	11957.067570994
0	16410	817602.722139007154	8800.5816216893
0	16430	817834.320456070599	10959.692569491
0	16446	818634.392192713049	8188.1265971278
0	16454	818995.691152620926	6688.1217670541
0	16465	819375.816460370251	7069.7206176708
0	16493	820022.790817020246	9992.9338578964
0	16498	820118.116448818081	6512.2563996089
0	16503	820227.293179130248	8672.4254538338
0	16509	820573.00739311107	8633.8299653735
0	16514	820727.52627883069	6756.7125861258
0	16519	820842.770235277366	8843.4321740721
0	16525	821265.788462260559	6313.4969541959
0	16533	821571.98583902801	7418.367606333
0	16538	821667.212346468875	6186.5469255136
0	16543	821670.870709798265	4687.406421006
0	16552	822360.028999462745	6731.6137559351
0	16566	822907.640397130489	5251.7349912388
0	16574	823533.332166758288	6399.9738602737
0	16580	824483.340940497714	7102.0801630326
0	16586	824634.783461681142	12289.023696404
0	16591	824647.356126379109	5359.4987106851
0	16599	824940.544741049375	7195.6773920668
0	16633	826919.904151881863	11218.535641665
0	16667	828467.571834625572	8917.2817421003
0	16715	830548.954793143395	8816.5714566024
0	16727	831190.315945748405	4395.1283786347
0	16733	831456.366615404847	6209.1431108798
0	16744	831664.640073073423	6911.1421687661
0	16796	834168.375416176538	7240.8402603341
0	16801	834308.663357930842	6120.7304098827
0	16806	834465.286610068095	4867.3665758082
0	16814	834645.476944063726	5372.9451144204
0	16837	835836.381545056462	10645.769085248
0	16842	835840.514038983542	5636.1611264682
0	16847	835915.015040463631	8152.6280943029
0	16852	835954.348424214276	4483.9075406951
0	16857	836340.412646261436	3960.2258105685
0	16862	836353.366674835436	3382.8945681625
0	16877	836757.100801548155	3326.2771504738
0	16896	837662.58991653911	3064.6369100396
0	16904	837971.727964041617	2429.1481664505
0	16913	838805.665826017729	2307.9867853447
0	16945	840039.174746550283	3304.8588865834
0	16980	841127.208842902716	2103.3695309155
0	16998	841740.632405914083	1998.0622145587
0	17026	843579.191793161604	3349.8251918792
0	17031	843708.848682662544	2267.0376046774
0	17039	843846.626300135569	2430.2836117927
0	17056	844393.369020835548	4433.7094690219
0	17073	845623.482924985324	3756.777518779
0	17098	846338.345209775422	5763.1308443929
0	17117	848240.875199945412	2961.7353374101
0	17253	853057.900342119293	7316.2242419917
0	17261	853363.865743706493	14161.33806121
0	17266	853474.706020067525	9414.6604683775
0	17275	853923.794036625041	6133.3614959205
0	17280	854045.307520472189	8083.2068446895
0	17285	854088.474679610005	5443.3221213458
0	17290	854143.720791780077	4365.6276439
0	17295	854168.006854309599	3593.898837286
0	17300	854291.480984666437	5418.0257247299
0	17305	854373.214483723362	2604.2780847965
0	17310	854394.280872475632	4551.5800861446
0	17319	854872.717344581362	6685.0163863968
0	17336	855579.271966368417	3514.3621921345
0	17347	855701.144970378215	3433.7578164497
0	17352	855786.115445300886	4933.4752771892
0	17357	855957.983759984672	3443.0547670343
0	17403	858140.193412864138	1879.0380470144
0	17408	858200.499586832586	1881.58870704
0	17417	858965.030039110046	4467.6064279381
0	17442	860286.32029858186	2527.475875894
0	17450	860332.842804320154	3736.6820595726
0	17487	862184.933761904162	1649.6174258097
0	17527	863596.512832619524	4480.6285271996
0	17539	864133.52419354775	2199.873657334
0	17564	865080.859785161519	4663.1410320658
0	17574	865312.583726806098	3666.765296999
0	17582	865667.619130622552	6521.3181946691
0	17591	865753.871973522095	3025.8669491428
0	17596	865773.489861455959	2052.1421147827
0	17601	865956.148874521938	13290.869740365
0	17609	866090.620052471694	1397.2865179357
0	17634	868425.757131280453	5751.0437009
0	17647	869133.89717298284	4148.9057362754
0	17656	869319.268647461833	2716.3732696294
0	17670	870096.059663245035	2130.0048278478
0	17709	871612.029595148652	1219.8852896955
0	17720	872267.434572281643	3079.1616691652
0	17728	872460.677011151861	1277.4799994193
0	17758	874797.666124468131	4208.6579428869
0	17763	875102.592366564567	2204.4095402693
0	17775	878452.71163152117	6982.298449483
0	17797	880857.165606598584	7676.1722287173
0	17819	881977.657504473777	1208.694133832
0	17836	882487.053591295419	888.25785095135
0	17854	883930.648692271813	1800.4035660821
0	17871	884959.17227016544	1465.1644146091
0	17897	886546.454754436063	1455.4120142354
0	17928	890586.06850442605	6339.3294035307
0	17940	890793.196915456651	3189.6208349179
0	17950	891060.762316983187	5963.8369844423
0	17966	891195.914212672854	11858.407920628
0	17974	891410.248568768942	3389.2142997142
0	18003	894158.997318744465	3524.3085099557
0	18026	894791.8720840605	3679.1474201525
0	18035	895356.173507945667	3566.7684994765
0	18052	896227.543003871272	1997.376583307
0	18060	896407.185829743425	2310.563089774
0	18078	897711.206236545301	4074.423951879
0	18101	898748.778202780178	3269.5040094489
0	18120	899706.479014856504	3055.0695243299
0	18129	900298.213475687374	2557.2411746816
0	18155	901863.215124302625	923.27349954756
0	18178	903113.572871468265	3831.3371080597
0	18195	903783.312271249306	5251.7867976146
0	18222	904780.769724192304	2883.0500619305
0	18230	904981.983216322772	1697.3239954777
0	18250	905965.893231532431	3186.1616415964
0	18256	906157.110692746004	5148.8255092643
0	18268	907377.182743401455	3896.2590147559
0	18273	907525.361839540407	3427.5408876057
0	18298	908560.756186496383	3418.5701590283
0	18316	909459.431568212008	1042.7393896102
0	18336	910981.993594226619	3346.9035043274
0	18371	913174.533870566726	2214.1968766672
0	18384	913515.693772388904	1850.5628052883
0	18399	914244.75330409168	4182.1970341519
0	18419	914899.503936230027	2607.8292914417
0	18443	915604.152148979804	2613.4367120459
0	18451	915942.327904770358	1374.8507729095
0	18462	916295.862556443801	7494.3742518466
0	18505	917281.166995112754	2136.983237865
0	18528	917741.886462735609	1410.8130877775
0	18540	918230.758389164785	1358.5946506836
0	18550	918353.694511737259	4474.0839039329
0	18567	919149.735138039802	2043.2486981309
0	18579	919825.577139960914	1607.6583218426
0	18584	920095.970401675916	3573.0953455359
0	18593	920942.332817661287	3978.8513949979
0	18608	922020.832831194462	6023.8844579233
0	18647	923415.288442331203	8852.5251792179
0	18652	923447.22493096916	2097.5646409911
0	18663	923819.043370413917	5071.8229543667
0	18677	924657.786960906862	2085.6531299792
0	18686	925463.042864007422	3008.1232939539
0	18695	926282.426460631241	4782.3386894448
0	18720	926927.732125277731	3359.1627542749
0	18779	929899.635007478748	3323.6256717759
0	18791	930268.878190778043	1062.8025747151
0	18828	931494.387789530336	3488.1374654376
0	18839	931914.909721517202	1737.4687417283
0	18844	932518.086986217455	6075.168807691
0	18862	933070.808792236523	3999.8343773727
0	18878	934117.649893467465	5850.3669313995
0	18886	934129.092556070921	4922.6743158644
0	18898	934410.273174039801	3963.0635530077
0	18903	934574.526917214704	3317.127474421
0	18908	934658.627028854735	2001.4634383773
0	18913	935066.242283899924	7203.7906261173
0	18939	936193.517976959715	1022.1561612928
0	18947	936866.348485050934	3865.1406269572
0	18964	937591.230943965079	2129.2258948093
0	18981	938142.967038072774	1192.2601579815
0	19007	940092.897108687413	1596.8071215805
0	19037	942500.449834047325	2286.3108979423
0	19043	942885.894240246744	5170.0020715828
0	19066	944252.437068911054	5063.0045315131
0	19077	944659.688481327907	3640.6394634118
0	19097	946209.27674596345	2026.2490359129
0	19103	946508.184890801909	3156.5275447647
0	19136	947492.825025796136	617.80900433365
0	19153	948847.396997573557	3690.1036679691
0	19162	948944.199334389135	1822.9144195367
0	19171	950067.930173789818	2741.9042972381
0	19197	951878.590673940869	3978.9050909168
0	19214	952908.255048575355	1484.2977865872
0	19226	953224.107179047531	1772.5354924281
0	19249	955049.906648530285	1942.356960011
0	19260	955399.971235699013	3057.5250444804
0	19300	958008.536073113269	2696.936611795
0	19312	958390.230864337679	4833.9031177148
0	19317	958515.822982993322	1282.0477202958
0	19356	961924.042499438673	1954.527792691
0	19361	962031.645673206177	2045.668853332
0	19371	963707.791174820487	5814.1356163404
0	19382	963847.152748608349	7477.1241264933
0	19445	966903.803451945624	3056.6523367778
0	19450	966933.742218059501	2432.1604396082
0	19455	967163.989908725928	2668.0015924974
0	19464	968256.017372989429	3609.3354803071
0	19474	969919.888272367628	9541.4266504195
0	19502	973256.031948357724	9111.2855965279
0	19538	974503.496370367274	9555.8315032241
0	19570	975581.944332174775	4314.893246488
0	19578	975979.987100815732	2651.9660548979
0	19587	976574.307579748012	3254.6914063059
0	19597	976798.06752057573	2318.3981305856
0	19615	977501.976502584445	5004.0096311001
0	19641	977934.815662021377	4447.1363956409
0	19658	978474.806119830209	3824.0001986847
0	19671	978581.461299560275	2215.8631922677
0	19676	978586.758826365855	1734.0957309983
0	19705	979992.329935895897	1866.2296661941
0	19710	980050.479160357319	2601.2718619947
0	19741	981371.805581413837	2155.5964415201
0	19770	982701.496872334168	4783.6872503245
0	19802	984745.146924904772	3502.5335106566
0	19817	986489.735582377913	5674.4139264538
0	19826	986636.402889277114	8908.8382496834
0	19867	987955.106842228549	7330.5553920608
0	19872	988266.891499656795	6420.9101925796
0	19878	988448.413117426094	5862.5601644875
0	19899	989778.877510879148	6884.2649302624
0	19938	991093.245949965631	6521.0805741705
0	19943	991206.313654534558	4680.6276052868
0	19951	991282.132783545594	4620.110369849
0	19965	991624.592088582409	4840.3406266281
0	19993	992974.920814228296	13823.984596038
0	19998	993298.927095356305	6337.1172974903
0	20003	993318.705134712181	3073.487775783
0	20015	993707.878307965435	4049.9254917762
0	20029	994351.958920008692	4601.3215509684
0	20046	995297.571837352228	3948.8415888073
0	20062	995718.642755546302	4370.2192862122
0	20076	996069.442703214997	1944.9092149281
0	20084	996834.290711947616	6447.5431593025
0	20096	997091.606997101633	3660.8941967865
0	20157	999658.767781857265	3971.0799398687
0	20229	1002264.400032733473	7013.8581948285
0	20243	1002517.114907410928	5633.4964268694
0	20253	1002782.914689804946	5680.0060388928
0	20265	1003094.442699979665	6243.9950368663
0	20288	1004481.932685398154	6059.7388986936
0	20347	1006301.126275582655	6122.0777058264
0	20358	1006828.176700693086	7794.6192846084
0	20363	1007033.497389456988	15235.530255717
0	20384	1007861.89647183979	10672.413168649
0	20437	1009594.423680105667	8418.4643098314
0	20453	1010184.695255696634	9442.4599868782
0	20459	1010627.942659209657	11359.138251147
0	20464	1010974.057275002527	8614.8842850882
0	20485	1011664.871813836524	9527.5672502935
0	20578	1014983.303356947357	10448.636457813
0	20589	1015500.884941809905	12128.482224198
0	20603	1015785.606783196523	11719.213806052
0	20611	1016185.8177807883	17752.158523588
0	20625	1016944.744154175863	11914.001579506
0	20633	1017003.928452539795	14194.55767254
0	20641	1017268.826977684697	10055.951934247
0	20652	1017684.929921408881	10619.970044617
0	20660	1018124.34610647226	13809.647642932
0	20681	1019170.603555312336	11776.530359723
0	20692	1019943.696865404739	10786.722786005
0	20720	1021597.827354839067	12121.606592024
0	20725	1021614.606128426202	14346.054337954
0	20730	1021664.040702020278	15414.487495963
0	20742	1022217.956484197457	12746.392394825
0	20770	1023102.685226211846	11982.313377645
0	20793	1023520.010448604869	12098.635855701
0	20811	1023943.625345344263	10881.988776054
0	20823	1025130.281171472721	12377.604205636
0	20892	1027851.311335830391	14425.409793008
0	20897	1028017.410026365455	16329.816172786
0	20908	1028410.3865819026	14130.725718428
0	20922	1028976.405895215528	17821.255086626
0	20954	1030446.543357778373	14621.326221151
0	20959	1030490.264109923199	15156.848381302
0	20967	1030810.386133616348	11113.469437506
0	21000	1031928.06613189245	11859.895315984
0	21006	1032070.634804358914	14888.276269464
0	21015	1033127.250424681033	15210.653261534
0	21020	1033158.070971941814	11288.705943943
0	21029	1033957.138574219016	11784.361444167
0	21056	1034360.252510770519	14952.95002802
1	1905	100450.337354826628	38.803551878311
1	1942	102392.76384110873	258.89167384782
1	1951	102896.509134603673	320.20118059272
1	1964	103392.44122774826	0
1	1982	105244.949160453026	0
1	2004	107992.666394436274	1081.1431697987
1	2009	108001.943932423455	912.04609356155
1	2032	108557.191375695639	100.22069902448
1	2045	108835.341180554097	65.452829194977
1	2058	109723.126220249943	734.07373975438
1	2066	109933.459064975127	285.770703702
1	2071	110170.687527828039	290.49244325857
1	2128	113776.909080516793	0
1	2137	114520.890708126593	0
1	2146	115575.322466288025	0
1	2189	117389.66239724408	364.82394423501
1	2195	118262.007655700505	1106.504040082
1	2201	118336.064297387874	1029.2360930412
1	2223	119637.423404204839	0
1	2231	119899.148420656752	183.51898266988
1	2256	120595.054957285812	101.26839659711
1	2273	121081.436105589349	31.712184687617
1	2282	122117.228891454067	0
1	2309	124686.815814743225	0
1	2317	125033.156875281904	239.55664488877
1	2325	125104.375336422222	0
1	2377	128202.471401072247	0
1	2394	128711.548913006952	0
1	2402	129388.387280965022	0
1	2420	130484.838122012318	0
1	2429	131636.128200524846	0
1	2437	131866.078041993932	0
1	2452	132858.10059102854	436.67143410787
1	2464	133388.138325611886	161.13843936752
1	2507	136506.286780070329	0
1	2516	137228.542494101291	0
1	2545	138982.70421958369	188.01909565223
1	2559	139732.49167688597	380.40995143534
1	2567	140070.736595506786	0
1	2593	142189.829419318421	0
1	2605	142465.302422388909	107.83552954748
1	2626	142950.596277394044	0
1	2639	144202.406720683314	193.16047719507
1	2650	144720.05568611726	405.03141108698
1	2659	144990.323977409114	436.39649276904
1	2678	145700.744787927646	160.20558613918
1	2692	146325.774299057436	145.61862957388
1	2720	148009.525064755137	0
1	2728	148192.138444492502	0
1	2740	148825.693367233954	519.47549807467
1	2745	148869.567653938419	275.75378372729
1	2809	155975.665178959814	0
1	2818	156285.370379509119	289.74742998166
1	2834	156771.842397872359	0
1	2844	157826.758948864003	0
1	2878	159881.905594210061	27.501243068684
1	2897	162510.198825888861	0
1	2912	163153.849403534736	631.19774319531
1	2920	163308.680720975153	770.57134404737
1	2929	163800.374333185118	811.9758083418
1	2956	165119.988363025407	0
1	2964	165352.997776511809	52.701566071724
1	2973	165805.153315631422	0
1	3020	171583.271741935386	0
1	3029	172461.250046684171	75.93827423058
1	3037	172582.118131663633	52.926752894771
1	3066	174029.620564848822	583.19975749107
1	3071	174370.287179828726	895.31853494504
1	3088	175520.960176952929	0
1	3097	175968.744456969024	0
1	3120	176946.586541680456	137.02410221381
1	3125	176968.973022988228	130.69868822135
1	3143	177723.001533328246	745.88522930448
1	3148	177735.577076261276	655.02342835679
1	3165	177888.782317130167	180.01905599702
1	3208	179777.241626970124	158.8702428756
1	3237	181390.130469392888	541.85471411489
1	3243	181735.109880479512	773.23174556277
1	3248	181847.360917430588	464.46351210012
1	3256	182436.001541794778	0
1	3268	183067.463316501877	309.49640480101
1	3277	183628.60515295295	568.85468261482
1	3285	184287.535521181786	488.44853327976
1	3331	186614.683885237671	850.15914225318
1	3343	187255.741201201544	202.26698434146
1	3383	188130.998028419953	0
1	3401	188913.396421199371	510.69387251498
1	3406	188926.248112670892	221.41597215549
1	3411	189038.34490464766	330.51762432636
1	3416	189088.585548143575	313.6484602168
1	3424	189218.052235089471	0
1	3432	189249.742879317733	8.772507021817
1	3458	189836.922356397089	74.317005693735
1	3478	190440.898415275462	60.617868534115
1	3490	191166.10979171915	607.08774372318
1	3514	193265.158043302367	1263.3013861473
1	3528	194515.144251434963	592.64432419965
1	3547	195026.292480085897	22.052450424288
1	3565	196042.462426404979	133.91652531089
1	3595	197428.147510507374	34.470312674311
1	3633	198741.487846244685	83.822589632725
1	3638	198825.256465872211	98.759510813611
1	3661	199916.939897948004	0
1	3669	200433.783728658751	0
1	3690	201374.16695337286	829.50978297308
1	3705	201555.070999592334	879.23344709392
1	3710	201668.175014115801	789.79297173147
1	3715	201711.694904423623	816.06174504259
1	3729	202110.295231358579	622.33775520732
1	3754	203235.085316374889	1375.5070499891
1	3768	203851.031255058616	1722.4820384256
1	3777	204068.321067386963	1772.9966307277
1	3782	204210.873886594746	1909.606447642
1	3787	204221.37100799787	1604.4591655008
1	3795	204682.679861926516	1840.2986747701
1	3807	205050.517311999915	1814.1249693206
1	3818	205243.19426214899	1824.0012035075
1	3826	205471.255877055759	1533.6223833555
1	3831	205562.284929625644	638.85778682638
1	3837	205765.182453986166	622.27736498279
1	3879	207858.297947936556	364.09542342981
1	3904	208611.022088876166	167.77926223576
1	3928	209157.957775859415	55.941485692812
1	3941	209585.354806372157	38.87054588937
1	3975	210340.779665120328	175.9900986534
1	3980	210566.773314202157	295.27722589574
1	3994	210836.536019943011	213.37151112339
1	4000	210862.171370273515	217.56885305741
1	4011	211701.067925440736	1042.2255514699
1	4017	211747.229270646482	745.95330802134
1	4028	211906.191221476061	53.061904525987
1	4076	213711.279300229729	210.54860586492
1	4100	214298.861455246868	180.1849776198
1	4120	214881.578399198892	529.65434995107
1	4125	214949.805675013267	557.55286599985
1	4130	215049.104486639393	554.61190311981
1	4145	215897.082121938821	122.15824169645
1	4183	217643.024913430184	205.71152154819
1	4207	219479.741767099682	180.40488275806
1	4222	220355.99739038303	459.5359125486
1	4230	220772.916191499294	847.8744277778
1	4235	220773.506967480034	17.569723558328
1	4265	222139.411335886203	670.18564631624
1	4278	222642.279575016891	130.16548163628
1	4358	225070.941864777528	961.18063232313
1	4366	225248.746498843997	858.14265207617
1	4371	225329.040217239629	810.71778327757
1	4377	225471.015297370072	713.82771041059
1	4382	225506.415085319416	650.12704156306
1	4387	225515.209562952867	620.62839137346
1	4401	226206.319162637175	982.48243075076
1	4410	226558.707258447741	1027.3549599724
1	4415	226631.155258347887	823.20960078921
1	4462	227992.043826477158	66.311836126437
1	4481	228379.01383441817	205.62699276936
1	4499	228755.514576409522	44.671541246656
1	4546	230874.401857353205	412.08624663639
1	4570	232456.926732668839	873.22406415325
1	4583	233004.266073863741	311.78038578569
1	4622	235383.626826295966	0
1	4638	235698.478357379151	0
1	4648	236661.535913606968	0
1	4665	237976.271651718353	0
1	4694	242058.812205887632	0
1	4706	242594.218839968811	314.8937225773
1	4714	242767.258191518611	36.568693860713
1	4725	243261.25365564166	134.06936900583
1	4753	244516.343420268079	0
1	4769	245062.959919108896	0
1	4778	245151.724705385936	0.451220358385
1	4789	245659.611488800446	275.57073994971
1	4794	245937.380919812624	526.40423498648
1	4811	246412.562135738107	141.02049697152
1	4820	247276.584100749447	0
1	4863	249845.090548796045	31.927506005011
1	4872	250588.252550657812	661.26836966204
1	4880	250692.872319302158	0
1	4897	251230.225023703317	198.43950625169
1	4905	251340.749563313094	0
1	4955	253106.347517541075	0
1	4963	253706.237417498692	0
1	4984	254995.023949988571	134.37306496363
1	5006	256075.4040373626	0
1	5015	256570.566359143102	0
1	5040	257984.813855393813	0
1	5049	258783.915499435219	124.98472196302
1	5066	259316.326349809708	68.192339770252
1	5087	260160.80666230611	663.30104547812
1	5099	260897.538449840162	1041.7497712172
1	5105	261468.340497928685	1557.2213186799
1	5110	261501.922869128398	1030.4473527438
1	5145	262555.284235791563	139.57930883481
1	5159	262973.222218955102	331.29605529705
1	5164	262984.53007836301	270.46334287976
1	5173	263448.382685276945	321.36024078899
1	5181	263627.813422730588	119.97294470664
1	5192	263722.260498358579	67.193389486927
1	5236	266203.836423605457	44.337402068206
1	5265	267319.890262616246	152.34558879508
1	5292	267871.173439947631	50.657580537681
1	5318	269049.96164909647	614.92921811164
1	5324	269162.940212676103	667.97133980387
1	5332	269397.879678189842	872.09366633591
1	5343	269444.615994031207	110.99171428176
1	5351	269863.342289290158	440.7045565941
1	5356	269985.674057270474	238.93166552975
1	5385	270754.950631731784	227.38538904048
1	5415	271787.010564509597	4.295457861931
1	5443	274194.980339314249	0
1	5460	275102.025938324578	0
1	5485	275771.054915529688	0
1	5503	277263.564204253382	0
1	5521	278405.226943452523	476.43603375817
1	5530	279049.094411470705	1089.0344523857
1	5541	279382.612633989425	985.46909593396
1	5550	279627.665755615601	779.77403683073
1	5555	279657.358186762401	135.602117183
1	5563	280038.487754787066	362.57876453027
1	5576	280287.077577097356	118.85734476837
1	5597	281638.632230669897	499.29372702138
1	5605	281782.376218503489	65.4807470795
1	5663	283200.060687860312	146.16825902695
1	5675	284188.122171904829	1130.7507883764
1	5680	284195.77796090331	892.73160322891
1	5692	284673.83418070233	661.04490797036
1	5749	289095.474199787054	0
1	5757	289129.87971969686	0.784228490612
1	5769	289962.462764826533	12.794305513439
1	5782	290483.906037548886	0
1	5812	292066.374770463457	1026.7629068424
1	5818	292397.476063866363	1108.6250273502
1	5823	292433.448249755804	444.02531631035
1	5831	292866.093054404808	39.762576421505
1	5857	294096.279161096552	235.59098925728
1	5862	294098.236168622413	63.730084746954
1	5905	296847.491844843538	53.451317339696
1	5918	297326.126027295458	313.9603934507
1	5930	298203.552739684236	771.36270544756
1	5950	298575.258709869725	215.03521122077
1	5955	298745.938999364459	261.90704153204
1	5960	298758.713512633976	267.59841605801
1	5977	299286.930752605543	0
1	6008	300680.98206315513	635.63858450363
1	6020	301160.710453900377	823.20120966461
1	6026	301765.927074332504	609.17492477685
1	6053	302683.443410065986	0
1	6076	303745.135237066966	129.46540083405
1	6109	304834.046909983916	513.19465305583
1	6123	305040.172575016231	565.21309145968
1	6128	305071.991822442182	198.12707616258
1	6133	305073.276431079972	63.416116846059
1	6142	305150.840963189607	2.80092255481
1	6204	308758.930595484944	0
1	6212	308907.230600060705	0
1	6229	309569.469069537453	53.027643714707
1	6237	309840.956888201489	0
1	6245	309983.549472847396	0
1	6262	310629.064136650283	4.065522360722
1	6287	311754.004427689991	0
1	6295	311797.650762335048	0
1	6323	313175.035977841334	1143.8659843548
1	6328	313304.759773902178	819.58444266951
1	6340	313863.381461579775	1317.5999975089
1	6345	314069.425220928536	1508.3141517231
1	6353	314147.767436279651	1515.1269889605
1	6359	314892.315360752452	1162.7202828072
1	6370	315084.339046996806	89.42291165555
1	6395	315461.950203423573	62.814219002862
1	6403	315947.35979617769	429.70128544432
1	6461	317974.754599527	446.98523563747
1	6467	318620.834184782228	899.73903467228
1	6488	319291.557988585132	1400.811367814
1	6499	319491.03560959398	771.09613667413
1	6507	319541.369546079731	751.40041338321
1	6512	319641.210689148226	275.17731942077
1	6517	319648.471151626178	277.27022766623
1	6530	321031.540709530804	1346.0664323895
1	6558	321474.889079997665	64.722180052194
1	6589	323185.77609634332	316.06209311382
1	6627	324897.178692103515	540.53926652363
1	6638	325717.061804210659	613.38223654227
1	6647	326195.542640647616	78.176238701425
1	6662	327427.17966608791	1120.9511066584
1	6688	329264.401074357128	470.39479675808
1	6717	329845.0605429134	26.592067957051
1	6737	330404.340931090582	35.713314687935
1	6745	330632.317006186178	241.87752567258
1	6750	330712.938585148108	167.46771320272
1	6784	332031.138097759144	258.15087673457
1	6792	332461.140702258419	530.91790943306
1	6798	332607.851822041335	338.75053933451
1	6818	333705.102211634336	248.90155481667
1	6823	333982.434520599295	309.76668852443
1	6845	334610.313104940707	8.804982834648
1	6858	334697.562344703268	0
1	6886	335265.97474654093	38.158307088831
1	6932	336788.052914984164	0
1	6951	338808.569797116676	0
1	6980	342867.451407204642	0
1	6996	343439.747122428188	68.351150730723
1	7005	344054.604799510609	0
1	7014	344644.027964725356	0
1	7029	345832.236900222045	538.20507663482
1	7047	346804.798088288949	953.23031649052
1	7057	348093.019383210163	1726.2281313692
1	7062	348353.17983805223	1845.3609989573
1	7067	348718.242404052529	1942.7527020364
1	7119	350017.963695331342	139.74258494926
1	7124	350045.282676334456	126.76973635991
1	7135	350193.298522772467	43.289326434764
1	7157	351175.681687102482	0
1	7166	351522.304556331079	0
1	7217	354707.881259549009	0
1	7230	355846.682765113737	970.54668651277
1	7235	356205.945246714205	601.57582169183
1	7243	356303.782502737097	39.926061825487
1	7252	356614.018638702772	0
1	7283	357666.789142036091	18.18599225355
1	7297	358569.402432334305	24.044695383134
1	7318	359646.522712120359	959.24866888377
1	7323	359946.719356288719	622.8801096996
1	7328	359952.054958038899	549.56103432035
1	7346	361560.212675525116	778.68011238103
1	7363	362135.524807176277	196.10957499796
1	7383	363686.591270891371	853.89268175458
1	7391	363876.992822533377	17.82093293016
1	7446	365717.205364343762	13.200971479203
1	7464	366886.28577756465	0
1	7481	368100.923770228447	0
1	7489	368340.321181813278	190.63077295264
1	7509	368818.174447851721	37.211585930535
1	7540	370344.693516797519	0
1	7548	371042.72074925594	0
1	7557	371510.979258758112	286.88360998923
1	7565	371892.364925048451	0
1	7574	372111.248802774432	0
1	7592	373348.900901797458	625.27218516039
1	7600	373463.586294046136	98.06629480488
1	7632	374541.629772465028	231.629924307
1	7650	375459.496917032741	0
1	7659	376387.18843250043	757.92346891029
1	7686	378356.085830945486	838.13580904199
1	7713	379210.039645544147	27.691122408587
1	7735	380426.998212670656	0
1	7752	381251.109564178733	0
1	7772	384651.013312365468	0
1	7784	385282.887862275226	575.29176701336
1	7800	385474.835471441417	148.82857068591
1	7814	386224.479387492699	0
1	7823	386744.614205037221	0
1	7864	387810.777231036699	230.37650299134
1	7883	390137.04329170302	0
1	7892	391346.234642947075	0
1	7903	391522.407508880918	130.51659434878
1	7908	391568.946514623238	156.5665220003
1	7920	392076.53547871847	110.85257191199
1	7934	393025.929766525293	0
1	7968	394969.071266049366	228.47804727713
1	7994	396495.019015906871	367.92078200391
1	8003	397293.936728299813	0
1	8011	397428.073723098779	0
1	8049	399912.130390844059	334.84412122766
1	8062	400238.629665918635	0
1	8071	400563.6706640992	146.89987269172
1	8082	400852.503791225593	254.21644960055
1	8090	401037.259746948732	116.66253540538
1	8102	401206.170711804984	164.51657931668
1	8130	402332.235197650199	233.63232185671
1	8135	402444.837805910414	319.09271269849
1	8170	403289.077756653482	0
1	8179	403864.476445481765	0
1	8214	406007.152226837477	1510.2036425272
1	8219	406158.928807485736	273.11688421606
1	8237	407155.014099131809	171.91193349435
1	8245	407414.204904208431	82.300992815722
1	8253	407697.214957820684	253.11837798321
1	8261	407718.851676135464	2.789197942581
1	8282	408517.065860830555	639.60997156053
1	8287	408835.593303879045	431.21671867095
1	8299	409085.96502602719	586.4936535326
1	8304	409092.615503713428	8.207328950208
1	8341	410005.969188399035	583.99559882376
1	8346	410125.3533337847	340.98483491221
1	8358	410703.07158425995	885.80119641552
1	8393	413907.712588544276	1634.3620112059
1	8437	416205.146992299021	244.98132012495
1	8449	416830.582492602885	566.26232406412
1	8464	417609.464098734529	999.41509849898
1	8472	417887.144985229067	518.23207319819
1	8480	418155.131873380702	772.48196136705
1	8492	418301.597837974497	892.29507985835
1	8503	418473.119178750663	624.42990217504
1	8537	420347.322225882608	553.00721833298
1	8542	420396.222596114567	190.04059995567
1	8616	424003.381485240482	1538.698076886
1	8622	424364.631997401568	906.828589519
1	8627	424632.876175013013	1115.0363755767
1	8638	425058.287174925835	322.37431794184
1	8652	425303.909070522015	98.247314732793
1	8685	426093.96276089748	0
1	8693	426767.248542116265	0
1	8702	426882.650728744119	0
1	8710	427277.741299101967	0
1	8718	427371.561389856446	0
1	8738	427936.53276725608	12.730680994101
1	8751	428556.016894411887	0
1	8811	431594.834466785826	0
1	8819	431663.187868455376	0
1	8839	434881.178082887245	847.7351445494
1	8865	436399.576466759393	0
1	8873	436963.032552894111	0
1	8885	437904.733630875651	73.497352097718
1	8891	438441.374953448058	562.21053729031
1	8900	438880.171192286621	399.72880310709
1	8914	439301.015015810903	188.06747650347
1	8936	441214.716777690436	1950.5718134665
1	8954	441847.029843934724	1588.4927563376
1	8966	442389.489944175858	1975.959258157
1	8971	442406.373390954728	1208.7231728812
1	8976	442513.568612361393	972.18408590003
1	8981	442580.152175732527	777.20007896387
1	8989	443031.832128056303	988.07841372712
1	8995	443275.627878830672	593.05371636246
1	9059	445248.607483057796	636.95166556858
1	9065	445880.723877501329	927.42772023525
1	9073	446282.025946717407	1198.830916424
1	9123	447956.880985339283	119.27031231134
1	9132	449135.081018144716	1181.4272456344
1	9145	450050.202978608422	934.37611297966
1	9151	450996.508228041201	1748.4007122364
1	9156	451451.415892079881	2082.3666909192
1	9181	452680.666532064814	1167.9752435638
1	9186	452746.535362372852	1206.4954476771
1	9191	452793.821284007165	266.47672289866
1	9199	452881.297567947053	331.99782001241
1	9215	453122.33915014041	37.754197539378
1	9223	453333.818175572071	196.22554158259
1	9258	455022.137532563238	469.31086690891
1	9277	456048.517144961241	1478.6327352054
1	9282	456480.964475225406	1419.672552912
1	9287	456517.042611119556	959.72526264129
1	9326	457912.391607958142	513.1384249563
1	9383	460915.908506205307	6.142557940044
1	9431	462913.207367341613	662.19820859194
1	9439	463151.795244043649	658.46409630005
1	9444	463348.678753258776	769.55697262581
1	9449	463404.890644384337	460.05520328
1	9465	464593.606104593732	726.73920285057
1	9511	466430.593678035275	258.61951559806
1	9516	466579.523334465843	187.21000846166
1	9524	466949.526274237853	0
1	9550	468611.908693388829	0
1	9575	469499.271232805843	225.64479543897
1	9611	472353.846281878921	0
1	9619	472649.122435613025	260.97158103368
1	9636	473294.228145451674	0
1	9644	473663.73817396584	0
1	9669	474619.87896375014	122.47232998437
1	9686	475624.920175831474	287.81067967907
1	9698	476546.914409159075	804.50569055432
1	9704	476671.688319198189	588.04623196971
1	9746	478978.693752714584	0
1	9755	479382.617228665158	0
1	9772	480141.870064757286	0
1	9780	480492.599703155901	0
1	9795	480916.215124389327	230.97338940378
1	9822	482105.649896496753	37.204451933411
1	9840	483737.5163421596	0
1	9849	484405.953659383831	0
1	9882	485941.548713699927	0
1	9891	486383.008097807261	0
1	9899	486474.0804295202	0
1	9911	487010.63418297907	208.87125215956
1	9943	489398.460466878208	790.21479141135
1	9949	489535.854932690946	543.35384199681
1	9977	491587.303616599759	0
1	9986	492243.480538468863	0
1	10011	493363.075920340656	133.51431961612
1	10029	494775.050937356743	0
1	10045	495092.491230734861	0
1	10054	496178.583001081539	0
1	10063	496387.264471528943	67.328765803564
1	10079	496829.545490459995	0
1	10088	497179.657540073603	0
1	10102	497544.553674336013	194.905925768
1	10107	497729.351693050975	341.69380951457
1	10163	500295.222747852358	0
1	10181	501736.153624398928	0
1	10190	502367.731914940468	0
1	10223	503640.443113032865	0
1	10231	503754.462783434259	0.798503501909
1	10240	504493.428703677503	4.555436307716
1	10249	504935.616032530853	0
1	10266	506425.884802108045	0
1	10291	507112.390050055282	0
1	10317	508553.136757809676	0
1	10334	509272.49518920576	0
1	10345	509512.737514596019	175.22210652721
1	10368	511322.176087865346	0
1	10386	513154.683173328309	0
1	10395	513791.558419529245	453.40589707133
1	10407	515018.036919196529	183.7177248247
1	10430	516498.68699384397	188.62413872569
1	10438	516834.809214541723	0
1	10447	517277.501852212497	0
1	10467	517736.839873254374	143.02254848141
1	10472	517886.542352382042	172.55044589181
1	10513	519163.422739722401	61.497054435416
1	10531	520834.944643010223	0
1	10548	521466.009501919102	0
1	10556	521766.238128200882	121.14277556793
1	10565	522265.220849857699	0
1	10573	522444.368558343029	0
1	10598	523087.437277893065	0
1	10639	524991.392925590372	765.96365688506
1	10644	525339.521817156236	946.36912754158
1	10650	525518.041437445261	728.08402064332
1	10662	526744.63109836644	1880.5142542305
1	10667	526926.234288444018	2045.8517913105
1	10672	527061.286431871618	1238.043302725
1	10708	528364.737995110323	1227.5731546063
1	10713	528458.800049252635	753.04704275834
1	10718	528495.174991909646	594.83119608592
1	10723	528657.445791735508	421.52372348272
1	10749	529447.676819379032	318.6803376957
1	10777	531990.524142095808	387.11294415717
1	10802	533612.24859918826	245.36762653715
1	10810	533836.493874496273	14.33931092198
1	10846	535346.891202598966	283.96314542665
1	10884	537277.642657180139	233.27381071479
1	10921	539994.447504248331	0
1	10930	540854.214832680005	0
1	10948	541963.419627447165	0
1	10962	542409.805980317961	303.79842388045
1	10967	542538.75043273004	209.71882350892
1	10981	542730.971677277299	0
1	11006	543793.382836271172	129.06866996941
1	11023	544105.957901020459	202.40082343423
1	11035	545140.626715655153	1081.6343407953
1	11041	545289.934033800782	1229.9944531256
1	11046	545342.600003502265	1052.6614133534
1	11051	545974.55311513996	1040.4732467668
1	11063	546798.719510007581	229.53857930327
1	11068	546803.245018926431	196.90844633951
1	11080	547274.70429813012	431.59898612175
1	11101	547923.096040323049	168.07238065571
1	11106	548326.171737047767	418.23101703659
1	11168	549992.634518774065	242.98097078231
1	11174	550392.877016365948	570.56255036416
1	11179	550404.700328631703	412.60652969806
1	11213	552223.945108587129	480.45341677766
1	11218	552250.148900767819	402.27902080342
1	11223	552542.534126408138	666.4032754593
1	11272	555271.011805898211	555.87293111399
1	11278	555513.828738478703	538.80993186392
1	11305	556314.051964191022	186.91324139328
1	11313	556638.975424557437	36.917128506204
1	11325	557508.239788457268	259.64820271588
1	11395	561561.096842082883	0
1	11412	562573.971945662542	0
1	11423	562789.946248779649	141.01437512528
1	11428	562811.882528812612	149.24446054205
1	11436	563061.913734918901	0
1	11453	563370.809857647934	0
1	11479	565049.477181408372	0
1	11493	565397.573391687934	273.78585675555
1	11498	565435.989067574485	216.05093760799
1	11523	566822.792192976734	1509.0521511668
1	11528	567052.724397267153	1220.3016397332
1	11534	567445.360137650799	1194.9129666369
1	11563	568162.033392873838	14.230191401478
1	11616	572589.764260113045	0
1	11624	572830.088648025631	0
1	11632	573149.666220509767	6.661569354841
1	11640	573308.590412910379	71.416492116508
1	11649	573760.051478345299	0
1	11664	574756.264684750039	561.02292132276
1	11687	576062.227489443386	635.10736473601
1	11692	576097.297806838195	365.41841017638
1	11730	577755.910736681867	358.12315068388
1	11738	577958.415598056489	528.86110528366
1	11743	578147.564928616313	452.69224794845
1	11783	579137.408125458172	116.20183945694
1	11792	579624.403501258005	0
1	11800	580046.613593356077	79.156301108819
1	11825	581125.357079258918	0
1	11843	582456.992747215811	154.84183768677
1	11860	582879.207971611194	331.12760796348
1	11893	583862.486663944666	0
1	11904	584355.046757563954	205.26678103249
1	11919	586156.17820067573	0
1	11940	587610.15886570582	262.80071640824
1	11948	587864.110502135883	116.63362541835
1	11982	589518.068254338777	426.27598840618
1	11987	589532.593221579285	60.362962714485
1	11996	590182.509614652828	0
1	12031	593028.42685482057	0
1	12052	596720.608260142392	0
1	12061	597591.101269689379	0
1	12077	597980.957348658659	100.11321629231
1	12112	600069.516899550854	571.70668354948
1	12120	600702.0364613873	0
1	12137	601572.866217048011	0
1	12146	602044.296590102937	0
1	12154	602151.582967840494	91.64670344276
1	12179	602928.789752373453	18.920795204583
1	12205	604468.415090541775	0
1	12233	605166.20795249926	166.73189670627
1	12241	605570.4916281959	561.32515792814
1	12250	606114.506278530458	810.11309518809
1	12255	606142.610812519911	246.28770249111
1	12280	607498.238512297355	163.58801230276
1	12298	609152.689723549566	360.05775750677
1	12316	610442.721358867573	378.89137900305
1	12332	611111.874567985655	340.47591439196
1	12341	611297.232477576726	0
1	12364	612405.36973982621	140.9114062299
1	12390	614009.40390775963	762.03677504708
1	12409	615312.842057415422	92.295998132467
1	12439	617343.398488975531	863.85748396089
1	12444	617946.693398794714	612.71677492036
1	12462	619197.986981780093	273.91410376093
1	12478	619679.08322903606	0
1	12487	620068.740647747572	0
1	12503	620570.429288515538	0
1	12521	621457.992778425286	0
1	12555	623510.866237568221	0
1	12563	623855.439004101234	0
1	12589	625292.124938688353	0
1	12597	625428.536784970711	33.037646492136
1	12606	626543.487494084877	0
1	12623	627066.300569280137	0
1	12637	627420.041068490045	94.761418928836
1	12646	627571.98421150468	193.43318855409
1	12651	627603.482866875185	185.58654906902
1	12673	628250.179347691192	108.92162644486
1	12679	628328.69814949013	81.263394913139
1	12690	628803.988222503629	95.175331798366
1	12711	629492.264198303073	736.42362388092
1	12723	630311.264926783669	1078.4006458962
1	12734	630626.659258470327	1146.6681635056
1	12740	630976.785392555854	1214.5766828383
1	12754	631437.259307613664	1110.7335189184
1	12762	631447.481097042889	285.46158880156
1	12770	631649.708074570398	339.17180064607
1	12792	632021.777259250887	3.846294164402
1	12817	632692.713899005496	49.101600043239
1	12842	634072.020789995703	611.61792273153
1	12902	636812.920747695277	286.402308172
1	12911	636970.482012008495	72.62673849204
1	12958	639773.757486546069	0
1	12968	641180.857591781701	0
1	12977	642168.135672393647	0
1	12985	642572.867514069916	0
1	13002	643446.071835239645	0
1	13034	644735.153315562963	404.48307921779
1	13039	645147.707809852813	788.40628904954
1	13070	646934.400945929243	0
1	13078	646963.863862914149	23.63257542343
1	13095	647627.944822522984	0
1	13104	648255.847999908904	0
1	13121	649611.741612120687	0
1	13138	650200.548365598123	54.162660164941
1	13146	650580.183426154251	0
1	13163	651176.15152211101	314.47503604888
1	13192	652569.508548809385	480.95610804225
1	13215	654038.659491126188	367.00950465654
1	13223	654326.74871639221	136.97515575951
1	13268	658484.405822867903	0
1	13277	659541.60252308635	0
1	13294	660457.858600726118	0
1	13323	665038.696759531682	0
1	13332	665638.017390001952	0
1	13340	665827.115315500137	26.17902097318
1	13361	667488.930482729223	349.56213792973
1	13393	669309.167433649446	666.09552170751
1	13399	669575.836168333083	892.00059954686
1	13404	669850.117027046194	1116.1437601755
1	13424	670516.576561942753	293.47958100153
1	13440	670899.479592288598	145.94153373521
1	13457	671479.543166184605	387.11120134501
1	13470	671994.897095780449	258.96725164093
1	13492	672688.442530433804	74.188286101195
1	13501	672913.792814362663	167.39113747801
1	13536	675110.051506035066	547.14678363063
1	13541	675364.459513298289	410.92925128027
1	13561	675893.641768624138	241.25475357984
1	13570	676758.678898980905	71.053109559042
1	13584	677756.924791572151	520.15114303514
1	13621	680286.037398886648	0
1	13640	682574.069020624606	0
1	13652	683887.00925996611	867.60411061753
1	13666	684091.775485444428	77.127757417624
1	13686	685492.409853178332	355.54797782736
1	13691	685531.337619294918	327.62693482623
1	13703	686025.630030048493	430.93530104427
1	13716	686218.761835043914	147.3700252215
1	13742	688114.244330331025	0
1	13760	689891.748075354192	0
1	13769	690676.972925597639	0
1	13777	690750.32787929787	17.790823483485
1	13801	691838.064871749797	83.887765652304
1	13846	694524.671266180359	0
1	13866	698082.636737793853	0
1	13883	699102.21878647532	0
1	13900	700010.756473316248	14.064425538386
1	13918	701889.209077735074	0
1	13927	702076.390458596916	40.600285433201
1	13943	702718.546002418877	0
1	13965	704196.590450315781	1218.7065736709
1	13970	704267.204292774937	949.08739249401
1	13975	704335.505029641382	857.2989973021
1	13995	704785.713966672052	235.47565136528
1	14028	706300.430976572395	0
1	14036	706591.046494900124	0
1	14044	706878.900203215665	190.7085689188
1	14052	707092.705641739762	162.55138995736
1	14078	708646.78003966418	0
1	14111	709366.31669376312	0
1	14128	710559.089940355944	230.02285825675
1	14140	711085.8064141668	106.01414293021
1	14182	715259.625461917331	0
1	14200	716886.88310676542	0
1	14218	718371.429651663696	0
1	14237	721626.786402859154	0
1	14246	721919.57117788663	47.146130997928
1	14254	722469.646652722244	183.01576845423
1	14263	722766.14524695108	154.22108853684
1	14281	724836.791961797331	0
1	14297	725117.849977710196	34.145030145598
1	14306	725377.411003139299	0
1	14337	726731.954796616154	824.19490075355
1	14342	726793.293163917298	692.32607994758
1	14369	727998.828120568597	446.09049903631
1	14384	728660.082498589169	911.72324762055
1	14392	728837.700005162838	739.67479251042
1	14397	728873.105987668109	452.65795261211
1	14417	730099.040766528984	571.20750578732
1	14429	730883.871737552599	879.1164577535
1	14437	731048.291682513818	895.68093557863
1	14446	731265.526382969511	987.04319743197
1	14460	731927.061616454842	951.26477427688
1	14469	732105.576581994996	1004.5698324015
1	14477	732735.948340549079	1192.7411534799
1	14489	733420.087831204609	56.41153129808
1	14494	733586.74074489062	217.48248867169
1	14541	735483.320230442261	704.3677584074
1	14546	735487.04842517713	310.2174431511
1	14562	735893.235179220338	255.62533946426
1	14603	737258.850805509334	278.90039131257
1	14628	738365.186950239557	129.93506001304
1	14645	738967.737584362125	436.55329226749
1	14664	739500.063044298896	251.54643024547
1	14670	739866.833949326564	559.42199604479
1	14679	740864.52083880444	1538.9357244963
1	14687	741249.90707097349	1231.1412695598
1	14693	741644.272943895565	574.11716584375
1	14701	742106.958580150516	397.70707833264
1	14772	743961.16956816799	422.40660660273
1	14790	744424.901047695214	597.57758580211
1	14795	744675.804815609116	777.64348485543
1	14800	744754.564854286353	804.90504970787
1	14809	744889.386084347792	578.05058643447
1	14825	745158.593579500732	25.134433455693
[...]
7	15578	782615.434533806867	2
7	15586	782963.29107046568	1
7	15601	783505.99846605847	2
7	15609	783633.484348061006	3
7	15618	784400.999790083183	4
7	15620	784492.451021408144	3
7	15636	786151.930063128994	4
7	15643	786356.421643363942	3
7	15647	786584.619636928013	4
7	15651	786723.777788847345	3
7	15663	786903.764025722677	2
7	15666	786919.086456040412	1
7	15688	789881.736418414233	2
7	15696	790235.067082111692	3
7	15701	790239.42072994001	4
7	15705	790252.638851372385	3
7	15713	791011.468398044585	4
7	15717	791115.070369320191	3
7	15721	791127.69744100414	4
7	15727	791378.467775481848	5
7	15731	791468.127268831547	4
7	15734	791828.892648065147	3
7	15739	792129.817555031771	4
7	15743	792253.242498865614	3
7	15748	793066.977051578909	4
7	15755	793208.757212349984	3
7	15758	793235.52932065968	2
7	15764	793277.972783668337	1
7	15786	794251.403639214229	2
7	15795	794879.511752806043	3
7	15799	794899.36526721821	2
7	15803	795031.942482658682	3
7	15808	795388.122476099939	4
7	15812	795392.380470547816	3
7	15817	795456.512980132984	4
7	15822	795864.118633553577	5
7	15827	796011.969793435836	6
7	15831	796095.053597472586	5
7	15838	796566.296953801639	4
7	15841	796622.760751408672	3
7	15853	797189.663828636816	2
7	15857	797275.99344568475	3
7	15861	797314.804478857393	2
7	15865	797349.263189524979	3
7	15882	798100.202584777413	4
7	15887	798126.70566255099	5
7	15891	798178.036591123394	4
7	15894	798328.997912371423	3
7	15911	798938.852948502743	2
7	15918	799509.118183049518	3
7	15923	799543.712291383065	4
7	15938	801215.669597912996	3
7	15948	802180.261163378983	4
7	15957	802445.091600702549	5
7	15961	802643.895638990889	4
7	15964	802754.155592524334	3
7	15968	802956.346318608577	4
7	15977	803408.472265974303	5
7	15981	803535.367313193156	4
7	15988	803594.286794897381	5
7	15993	803682.378581512699	6
7	15997	803733.369147846398	5
7	16006	804767.446818993007	4
7	16018	805172.822175841438	3
7	16021	805200.489205717379	2
7	16030	805350.636220059766	3
7	16058	806423.949670932259	2
7	16068	806607.398210901869	3
7	16085	807480.692428475076	4
7	16090	807650.495610939459	5
7	16099	807906.414828579422	4
7	16107	808254.193552036602	3
7	16121	808555.652644573422	2
7	16128	809374.118326832309	1
7	16131	809583.823350809291	0
7	16144	810195.652754067315	1
7	16149	810346.593849882751	2
7	16161	810571.669628148091	1
7	16165	810722.854851920096	2
7	16198	811677.726272362455	1
7	16203	811733.632361727594	2
7	16227	812389.475125762664	1
7	16231	812408.388096263798	2
7	16236	812427.992209962416	3
7	16242	812717.297447177744	4
7	16247	812747.901028786046	5
7	16252	812898.43897859681	6
7	16261	813324.945412281674	5
7	16283	813715.73806744813	4
7	16290	813980.966690943178	5
7	16299	814355.929887476275	6
7	16304	814594.482604992618	7
7	16308	814637.966499982008	6
7	16311	814697.48511018918	5
7	16314	814761.564990886173	4
7	16317	814823.529281861737	3
7	16320	814895.582563043711	2
7	16327	815222.511387616511	1
7	16336	815400.146140572309	2
7	16362	815631.023178074447	3
7	16369	815859.032485388139	2
7	16373	815870.956483425021	3
7	16377	815994.167157957601	2
7	16381	816076.063405549685	1
7	16389	817117.650862575768	2
7	16397	817179.339078774352	3
7	16402	817302.066809170006	4
7	16415	817606.454435188537	5
7	16426	817802.115298917223	4
7	16435	817934.234692636822	5
7	16440	818480.980613755526	6
7	16450	818658.067662128253	5
7	16461	819341.123993332043	4
7	16469	819404.349743614169	3
7	16477	819738.98944218087	4
7	16482	819850.780282552594	5
7	16486	819912.181202255654	4
7	16489	819971.0270250424	3
7	16529	821513.474025849909	2
7	16556	822513.8263359958	1
7	16560	822776.114569762666	2
7	16570	823005.977149084966	1
7	16611	825705.442742003277	2
7	16615	826020.957222839979	1
7	16619	826235.326044280226	2
7	16625	826665.061192663854	3
7	16641	827080.812544346532	4
7	16645	827127.544379913196	3
7	16653	827798.178482242805	4
7	16658	827912.00213010783	5
7	16671	828517.340998003362	4
7	16674	828648.62256964288	3
7	16678	829062.870755928392	2
7	16685	829410.762228074981	3
7	16689	829550.630551165047	2
7	16697	830002.091827435802	3
7	16705	830283.112790620869	4
7	16710	830319.008011780981	5
7	16719	830557.451568290272	4
7	16723	830947.5985919841	3
7	16740	831610.728435055307	2
7	16748	832100.068191831656	1
7	16756	832537.862326324551	2
7	16764	833134.934398460584	3
7	16769	833277.997656033646	2
7	16775	833435.705140440851	1
7	16779	833565.828949713448	2
7	16784	833870.080314049504	3
7	16788	833918.316042202056	2
7	16792	834098.726587476159	1
7	16819	834895.794705467417	0
7	16827	835738.933312693733	1
7	16832	835835.104885028999	2
7	16864	836363.897004541604	1
7	16881	836980.792110604586	0
7	16885	837151.882931566182	1
7	16890	837306.788059773175	2
7	16898	837706.273700841214	1
7	16907	838743.473060831326	0
7	16921	839047.33873946424	1
7	16930	839235.027287614642	2
7	16932	839429.972449626774	1
7	16953	840321.322140775201	2
7	16958	840544.745234459376	3
7	16966	840681.71287558905	4
7	16971	840867.910344714182	5
7	16974	841033.656477089359	4
7	16982	841356.9079297173	3
7	16993	841575.358770675303	2
7	17006	842126.045618088216	3
7	17011	842262.955996394598	4
7	17017	842748.42561679348	5
7	17021	843041.517790067794	4
7	17033	843840.035836971602	3
7	17047	844109.80379431901	4
7	17050	844381.876702272422	3
7	17065	845297.474369536698	4
7	17067	845587.025984733664	3
7	17081	845901.350773096809	4
7	17089	845980.644374177391	5
7	17092	846184.25320540175	4
7	17101	847105.758606503031	3
7	17110	847912.116751119702	2
7	17122	848333.245713956945	3
7	17133	848942.055720377991	2
7	17136	849024.782142420652	1
7	17141	849448.828880450305	2
7	17152	850171.839020926203	3
7	17158	850441.570066532896	4
7	17162	850449.112523552495	3
7	17172	851041.417930601873	4
7	17176	851089.022226685133	3
7	17179	851127.50874598728	2
7	17184	851278.25465475071	3
7	17188	851653.2452827995	2
7	17195	851784.838555716472	3
7	17200	851858.264430580162	4
7	17212	852292.665611783111	5
7	17216	852315.188818233008	4
7	17220	852465.73968972072	5
7	17228	852599.040809958628	6
7	17236	852768.810231163531	7
7	17241	852772.568727627462	8
7	17245	852859.508985089456	7
7	17249	852995.766068484316	6
7	17257	853248.225815990881	5
7	17270	853568.660789519642	4
7	17323	855040.362096063296	3
7	17327	855249.373737542927	4
7	17332	855523.678079011371	3
7	17340	855596.04354588387	2
7	17343	855666.454929316154	1
7	17372	857118.250156150365	2
7	17378	857248.231531028215	3
7	17383	857394.678842675403	4
7	17390	857830.277367136232	3
7	17393	857929.094552299572	2
7	17398	858132.377903159037	3
7	17410	858478.578248862899	2
7	17428	859368.744355303415	3
7	17432	859722.76465505759	2
7	17437	859869.345082140413	3
7	17444	860302.574312702059	2
7	17461	860555.431223847361	3
7	17467	860916.116593077273	4
7	17476	861726.990110851079	5
7	17478	861815.720499200731	4
7	17493	862384.306739805307	5
7	17501	862717.519801061425	6
7	17508	862962.144038453843	5
7	17512	863203.516798921222	4
7	17515	863387.380932221665	3
7	17519	863425.637956408914	4
7	17523	863527.766544401123	3
7	17534	863813.682214286293	2
7	17547	864778.604086034545	3
7	17551	864843.627907624424	2
7	17556	864934.353352241725	3
7	17569	865128.080048384972	4
7	17578	865456.211248123638	3
7	17586	865709.037521996105	2
7	17603	866008.6108987949	1
7	17619	867499.955886124279	2
7	17621	867603.894803436714	1
7	17626	867657.290844279056	0
7	17639	868701.441816772945	1
7	17643	869080.892478493134	0
7	17661	869536.793300154666	1
7	17664	870068.010437552994	0
7	17681	870745.979327120369	1
7	17687	871047.277056078926	2
7	17694	871336.340073481898	1
7	17698	871410.599038392845	2
7	17705	871530.635088595409	1
7	17715	871902.519462866014	2
7	17722	872386.229766806372	1
7	17737	872942.264289382335	2
7	17744	873348.99424384448	1
7	17748	873437.198825667345	2
7	17754	874388.853513108745	1
7	17768	877085.299222318514	0
7	17785	879936.264943068752	1
7	17788	880638.663610103795	0
7	17802	881099.036996059032	1
7	17811	881672.501753006933	2
7	17813	881705.705680865334	1
7	17828	882211.793354958335	2
7	17830	882400.99802930119	1
7	17846	883743.247105508732	2
7	17848	883870.297007673739	1
7	17863	884763.932844373362	2
7	17865	884928.476774730097	1
7	17882	885289.842552637468	2
7	17887	885322.508799559937	3
7	17890	885594.600935727759	2
7	17910	888088.820199904428	3
7	17915	889624.064303129119	2
7	17920	890134.304424416207	3
7	17924	890370.98121725734	2
7	17936	890732.582734344505	1
7	17945	890953.294680059909	2
7	17958	891119.317833810789	3
7	17960	891147.763255398874	2
7	17968	891275.214096569706	1
7	17984	892691.064544435128	2
7	17987	893508.243515833286	1
7	17999	894144.022527340231	0
7	18011	894551.023134367977	1
7	18016	894605.493705616444	2
7	18021	894768.226516377575	3
7	18029	894877.54082855453	2
7	18043	895676.053859827128	3
7	18046	895998.431290236665	2
7	18054	896376.762710189865	1
7	18069	896914.576673897947	2
7	18072	897491.2261475165	1
7	18085	898089.292945850545	0
7	18089	898158.307084700346	1
7	18097	898563.798558514694	0
7	18110	899330.936332401869	1
7	18115	899546.967122244481	2
7	18123	900194.282742012774	1
7	18138	900974.622797814704	2
7	18146	901639.77310522973	3
7	18149	901783.388839086786	2
7	18163	901966.022217223002	3
7	18165	902354.37558503474	2
7	18170	902561.710391983473	1
7	18183	903118.303932941536	2
7	18203	904111.052140218013	3
7	18209	904316.772452657318	4
7	18213	904332.712614184815	3
7	18217	904713.73588636049	4
7	18224	904845.83731579027	3
7	18239	905435.732733830504	4
7	18241	905548.367301173637	3
7	18246	905723.915524632871	2
7	18259	906926.546477769555	1
7	18264	907051.709179777823	0
7	18282	907811.751976324073	1
7	18290	908487.311512204115	2
7	18292	908522.011037246809	1
7	18307	909104.480965120255	2
7	18309	909394.220504092628	1
7	18324	910389.613783236505	0
7	18328	910832.146695943706	1
7	18342	911307.114409668404	2
7	18350	911851.803206581541	3
7	18359	912310.235447024381	4
7	18361	912727.649013526914	3
7	18376	913363.583494518068	4
7	18378	913428.915469821108	3
7	18386	913601.658002904694	2
7	18392	913736.317928768728	1
7	18404	914247.035450792648	2
7	18408	914480.907048439346	1
7	18424	915083.566344195424	2
7	18433	915484.442762076033	3
7	18438	915557.940813971334	4
7	18445	915664.309094091493	3
7	18453	915996.775076466128	2
7	18471	916498.561530083718	3
7	18479	916771.612427898004	4
7	18483	916792.927589295404	3
7	18487	916853.886859748207	4
7	18500	917155.67580990512	3
7	18510	917592.943650890848	4
7	18515	917662.192403994656	5
7	18520	917720.255364107499	6
7	18524	917733.717758671448	5
7	18533	918124.662400425013	4
7	18545	918279.026131951161	5
7	18559	918972.849495905773	6
7	18561	919009.101724706231	5
7	18569	919688.888150752721	4
7	18575	919756.390342025798	3
7	18587	920878.086640428174	2
7	18595	921265.579774428627	1
7	18614	922355.440661842108	2
7	18618	922445.946204441493	1
7	18628	922760.773541912791	2
7	18633	922894.333209532897	3
7	18637	922921.987363828373	2
7	18642	923347.802556332091	3
7	18654	923459.777296805761	2
7	18668	923856.580977446599	3
7	18671	924475.266583519145	2
7	18680	925260.890022150827	1
7	18688	925529.54487426406	0
7	18703	926574.059964136803	1
7	18712	926670.087266189323	2
7	18714	926845.983627879268	1
7	18736	928331.403152326846	2
7	18741	928397.811209650518	3
7	18746	928406.733538951281	4
7	18761	929485.221909587826	5
7	18766	929689.920649870481	6
7	18771	929785.622674172208	7
7	18773	929899.164171258979	6
7	18782	930104.714685744051	5
7	18795	930321.025267469226	4
7	18802	930579.10027428627	5
7	18807	930715.364633011395	6
7	18812	931032.13011359036	5
7	18815	931096.242653284899	4
7	18821	931321.825034964871	3
7	18824	931366.981480889039	2
7	18833	931508.041587484006	3
7	18848	932564.855829609934	2
7	18855	932662.03154326654	1
7	18868	933459.133555712837	2
7	18873	933985.249117210631	3
7	18882	934122.99921852469	2
7	18890	934204.370151108298	1
7	18893	934248.859501837162	0
7	18922	935329.620756787352	1
7	18931	936032.340524786413	2
7	18933	936132.674192476542	1
7	18941	936331.078419012568	0
7	18956	937142.759883056031	1
7	18958	937546.555759445662	0
7	18973	937811.321575554211	1
7	18975	937994.481933796612	0
7	18990	939127.035929023054	1
7	18998	939241.345532419225	2
7	19001	939560.901503213354	1
7	19016	940997.865664314804	2
7	19024	941127.644254551902	3
7	19027	941920.012448425217	2
7	19033	942209.634374424428	1
7	19050	943571.989736934175	0
7	19055	943832.248738020668	1
7	19059	943956.673481945222	0
7	19071	944256.07793869644	1
7	19085	945307.38773346826	2
7	19088	946142.006120141581	1
7	19093	946204.917309030578	0
7	19111	946885.131710120919	1
7	19120	947221.879248458582	2
7	19128	947340.592257695407	3
7	19130	947457.733167488762	2
7	19143	947978.411745166801	1
7	19148	948426.527543381347	2
7	19155	948863.667460686893	1
7	19165	949846.798218890603	0
7	19184	951461.531531970974	1
7	19188	951476.433983775962	0
7	19192	951873.913671609798	1
7	19206	952356.059280445519	2
7	19208	952673.487549728807	1
7	19216	952942.959169227276	0
7	19234	953829.322156743773	1
7	19240	954214.945001615569	2
7	19243	955038.63187426545	1
7	19251	955254.615494608765	0
7	19265	955448.611868578216	1
7	19275	957087.342377992849	2
7	19284	957818.88345749276	3
7	19291	957979.829467239507	2
7	19295	957997.731802227589	3
7	19302	958188.514438266605	2
7	19307	958284.163041847255	1
7	19330	960155.192580275376	2
7	19338	960494.338224273457	3
7	19343	960608.464422341888	4
7	19346	961563.96747519662	3
7	19351	961629.734514737546	2
7	19365	963590.791398122866	1
7	19373	963784.091580908986	0
7	19390	964172.474333002888	1
7	19395	964304.589216039752	2
7	19410	964851.678087834519	3
7	19418	964950.039739799238	4
7	19422	965143.653805341182	3
7	19427	965287.815087895427	4
7	19431	965893.351141476075	3
7	19435	966587.022193599635	2
7	19439	966816.061707703728	3
7	19458	967816.540655386803	2
7	19467	969429.80254891882	1
7	19484	971288.47783803979	2
7	19492	972763.791596501815	1
7	19497	973187.519580532824	2
7	19513	973373.999703738869	3
7	19521	973798.144344811547	2
7	19525	973809.927696651198	3
7	19530	974040.468788466193	4
7	19542	974525.79569441119	3
7	19550	975098.773666610233	4
7	19554	975171.408292876992	3
7	19558	975292.399284489138	4
7	19563	975478.601106909112	3
7	19566	975529.844866343418	2
7	19574	975718.451961777756	1
7	19592	976747.377858364238	2
7	19604	976948.451060157311	1
7	19608	977420.944996318514	0
7	19620	977655.946289586477	1
7	19628	977783.503712879552	2
7	19633	977800.37419565166	3
7	19646	977946.352762548499	4
7	19654	978368.820067950935	3
7	19662	978542.148909614304	2
7	19666	978571.718107325449	3
7	19685	979198.412418132583	4
7	19692	979638.591461083647	3
7	19695	979685.746821632911	2
7	19700	979874.528380585711	3
7	19719	980714.681511303358	4
7	19727	981005.6646868573	5
7	19729	981142.863176217369	4
7	19737	981364.860054087542	3
7	19750	981954.929735794765	4
7	19755	981992.663860454996	5
7	19760	982569.248408619505	4
7	19766	982589.78818300252	3
7	19777	983145.471837428123	2
7	19781	983209.049277626414	1
7	19785	983647.965307687396	2
7	19790	983955.42422265906	3
7	19798	984589.14793791363	2
7	19807	984956.522355379784	1
7	19811	985605.046091698934	2
7	19836	986951.192245121276	1
7	19843	987364.537419780773	2
7	19848	987399.114753001538	3
7	19853	987674.482409872351	2
7	19857	987689.484961168937	3
7	19862	987878.207329864157	4
7	19882	988770.140316916374	3
7	19885	988927.603899874198	2
7	19889	989370.38508442431	1
7	19903	989846.800718574119	0
7	19907	989898.352286226466	1
7	19912	990030.061412437366	0
7	19922	990848.302229639795	1
7	19928	990985.816432538156	2
7	19933	991051.77161122116	3
7	19947	991273.396937798407	2
7	19961	991401.543777033554	1
7	19970	991651.940747781266	2
7	19979	991908.511331232492	3
7	19983	992052.88279188715	2
7	19988	992897.435119759451	3
7	20011	993585.951046511966	2
7	20020	994088.029801784308	3
7	20033	995081.697628036092	2
7	20037	995103.763050984695	3
7	20051	995426.95902545418	4
7	20055	995680.534503346805	3
7	20066	995804.298554243536	2
7	20070	995919.181325438404	3
7	20080	996159.16014677957	2
7	20104	997180.601934562153	3
7	20111	997286.472482462549	2
7	20114	997297.427032338473	1
7	20118	997515.653029792071	2
7	20124	997783.100255475352	3
7	20129	997815.411300185701	4
7	20133	998153.132899485812	3
7	20143	998671.115871390656	2
7	20146	998932.662311948623	1
7	20166	1000446.279794957641	2
7	20171	1000497.140244339052	3
7	20178	1000843.337695275582	2
7	20186	1001388.747071481856	3
7	20191	1001391.386079397472	4
7	20196	1001469.623970780562	5
7	20201	1001514.810375636795	6
7	20205	1001657.78640404724	5
7	20208	1001859.213461674105	4
7	20211	1001869.1596221114	3
7	20219	1002178.023073842001	4
7	20224	1002201.48247322469	5
7	20233	1002279.713543628438	4
7	20236	1002335.703653158058	3
7	20248	1002667.47914865708	4
7	20261	1002877.209770311787	3
7	20270	1003318.63002446515	4
7	20284	1004410.356238431033	3
7	20295	1004537.041539676274	2
7	20300	1004802.934994967796	3
7	20305	1004817.458895047878	4
7	20310	1004968.346219179089	5
7	20318	1005106.497281087127	6
7	20322	1005170.548796113229	5
7	20326	1005180.901982893332	6
7	20331	1005665.649316282614	5
7	20334	1005741.831231313244	4
7	20337	1006094.151197587484	3
7	20340	1006150.69240333897	2
7	20353	1006682.615695760063	3
7	20380	1007394.680342572198	2
7	20388	1007903.775610967762	1
7	20393	1008191.7920867651	2
7	20398	1008873.565766403249	3
7	20404	1009042.033229996532	4
7	20408	1009071.552900668242	3
7	20415	1009241.188416807244	4
7	20419	1009293.868281779669	3
7	20422	1009300.538240050636	2
7	20426	1009403.133174491995	3
7	20442	1009597.126168213786	4
7	20447	1009697.750761524888	5
7	20468	1010976.345817028216	4
7	20477	1011205.185519853025	3
7	20493	1011813.036917989141	4
7	20497	1011970.557919423301	3
7	20504	1012265.110563698144	4
7	20509	1012303.590187089471	5
7	20514	1012437.709031362218	4
7	20517	1012703.24699059236	3
7	20520	1012719.288021105628	2
7	20531	1013220.144370314263	3
7	20539	1013489.396690027243	4
7	20544	1013534.770544845584	5
7	20548	1013659.617660828815	4
7	20553	1014030.403680117905	5
7	20560	1014366.619081336563	4
7	20564	1014541.913005255203	5
7	20568	1014778.176540045505	4
7	20573	1014951.604368918518	5
7	20582	1015102.228146667416	4
7	20593	1015556.91079081045	3
7	20598	1015773.225906815965	4
7	20616	1016229.313029444629	5
7	20621	1016639.732875081843	4
7	20629	1016966.66232358239	3
7	20647	1017640.507537749961	4
7	20665	1018405.187878381557	3
7	20668	1018574.052539449667	2
7	20672	1018620.418454488547	3
7	20676	1018665.885911531313	2
7	20701	1020466.3092239164	3
7	20706	1020469.383312967331	4
7	20711	1020535.971819878163	5
7	20716	1021320.698325475456	4
7	20747	1022228.322998788308	5
7	20751	1022437.363871645126	4
7	20756	1022756.045715923495	5
7	20760	1022921.26218516474	4
7	20766	1023092.869409536515	3
7	20775	1023169.321532432642	4
7	20779	1023285.192449643101	3
7	20785	1023384.762249506569	2
7	20797	1023579.601700824397	1
7	20801	1023608.527879334494	2
7	20806	1023936.49577282635	3
7	20828	1025153.903558804665	4
7	20843	1025947.497191970895	5
7	20852	1026102.281280278686	6
7	20857	1026126.811614488127	7
7	20861	1026391.805765708588	6
7	20864	1026528.37626863934	5
7	20868	1026982.777256933102	4
7	20871	1027230.615124390148	3
7	20874	1027263.141427844339	2
7	20877	1027583.323760563537	1
7	20881	1027711.095246307389	2
7	20886	1027731.534394471957	3
7	20901	1028317.746185224811	2
7	20914	1028622.671312166695	3
7	20929	1029295.538192994707	2
7	20934	1029543.974696648614	3
7	20939	1030000.802423010157	4
7	20943	1030017.916074809313	3
7	20947	1030312.149806893872	2
7	20950	1030427.551512391889	1
7	20975	1030989.687784283582	2
7	20980	1031185.740729886869	1
7	20986	1031417.650003843304	0
7	20990	1031551.086132005964	1
7	20995	1031561.808540331777	2
7	21010	1032199.233921315644	1
7	21033	1034035.250069901188	0
7	21040	1034091.316105991273	1
7	21045	1034275.32856633075	2
7	21052	1034330.505259211814	1
7	21061	1034607.683190227319	0
7	21071	1035282.640269064912	1
7	21076	1035523.469206879404	0
7	21083	1035595.47221767669	1
7	21094	1036166.8723092976	2
7	21103	1036595.765443402854	3
7	21108	1036662.815145625418	4
