version 2
run ParkingMeasurement-57-20170106-02:04:12-11520
attr configname ParkingMeasurement
attr datetime 20170106-02:04:12
attr experiment ParkingMeasurement
attr inifile parkingStudy.ini
attr iterationvars ""
attr iterationvars2 $repetition=57
attr measurement ""
attr network SimNetwork
attr processid 11520
attr repetition 57
attr replication #57
attr resultdir results
attr runnumber 57
attr seedset 57
param SimNetwork.a.parkingLot.parkingDelay exponential(30min)
param SimNetwork.a.runway.landingTime exponential(5min)
param SimNetwork.a.runway.takeoffTime exponential(5min)
param SimNetwork.a.runway.throughputCheckInterval 14.286min
param SimNetwork.wg.interArrivalTime exponential(14.286min)

vector 5  SimNetwork.a.runway  landedThroughput:vector  ETV
attr source  landedThroughputSignal
vector 6  SimNetwork.a.runway  tookoffThroughput:vector  ETV
attr source  tookoffThroughputSignal
vector 0  SimNetwork.wg  responseTime:vector  ETV
attr source  responseTimeSignal
vector 4  SimNetwork.a.takeoffQueue  queueLength:vector  ETV
attr source  queueLengthSignal
vector 3  SimNetwork.a.takeoffQueue  queueTime:vector  ETV
attr source  queueTimeSignal
vector 7  SimNetwork.a.parkingLot  parkingOccupancy:vector  ETV
attr source  parkingOccupancy
vector 2  SimNetwork.a.landingQueue  queueLength:vector  ETV
attr source  queueLengthSignal
vector 1  SimNetwork.a.landingQueue  queueTime:vector  ETV
attr source  queueTimeSignal
0	2351	100542.2551277638	6439.1309153605
0	2359	100634.707917507269	4493.302016487
0	2364	100657.130293917512	1526.0291672024
0	2373	101155.709262226157	2471.2384462514
0	2390	101489.040186470942	2277.9092393798
0	2418	103385.375673276329	4616.1332855566
0	2432	104085.331657134704	2618.19196935
0	2450	105726.569344239068	4280.2398073726
0	2462	106529.225006263305	4947.2136346314
0	2467	106548.574239299356	7336.175324009
0	2486	109419.947537521241	6093.5048538278
0	2498	110100.731701194307	4655.658800299
0	2520	111360.538367364695	2407.9086677523
0	2538	113044.711654579695	2985.8608831164
0	2556	114137.203307418259	2363.1201317311
0	2583	117006.03257617662	6562.8213240843
0	2620	118861.434518152578	5770.7249277528
0	2625	119031.463129149027	3112.0432733632
0	2640	119711.184739445536	2444.1220764489
0	2685	121629.841353672383	4053.8542876853
0	2706	122771.577756588476	6573.9324175558
0	2755	124067.244249091799	6387.4821764221
0	2769	124232.590289074549	4775.2558885715
0	2796	125156.398839089141	4785.3472148949
0	2806	125938.697270729976	4964.9937247003
0	2818	126775.118734662912	5197.1491911525
0	2829	126945.011975310586	4756.4065529905
0	2834	126978.157552282572	3963.1653586235
0	2845	127430.447708732755	6410.7947267435
0	2868	127667.745432969598	4096.7853337875
0	2883	128079.076520447572	4467.6929304068
0	2909	129916.232534475734	6827.4069639179
0	2921	130482.987218322381	6310.3892457527
0	2935	131250.091774916174	4935.9769330558
0	2948	131750.292076726488	4338.4616441956
0	2953	131870.9011461803	6772.0111990451
0	2962	132181.660391171246	5087.9513772161
0	3067	136060.719277920299	8563.7574701242
0	3076	136841.786554253333	8574.1856385752
0	3102	138583.562556901129	8562.8114081591
0	3107	138752.401376699387	10674.782417853
0	3112	138829.812210271978	6871.1826000675
0	3121	139314.404431820245	6303.7281276623
0	3126	139462.781614996536	6136.194426942
0	3135	140426.256489548888	6900.9354089111
0	3147	141280.09751035978	10071.771190954
0	3166	141908.585888016057	8767.3071588802
0	3171	141999.2844365064	9454.6798057409
0	3176	142177.694135534495	8100.5917762673
0	3182	142289.63703609873	7558.4717801102
0	3190	142526.490324535493	8460.7339754499
0	3195	142722.559409620647	6184.7197387892
0	3203	143074.832286660769	6104.9985915992
0	3222	143720.028928939106	3204.3411218759
0	3232	145416.893130142888	4660.5045196543
0	3240	145457.338999250028	2413.8150065584
0	3282	146789.705186091656	1254.334771851
0	3290	147138.050830496176	1074.6568219948
0	3314	148897.313529977056	2464.4229248254
0	3372	152563.690026742927	4445.9244673154
0	3384	153252.832922133272	4789.7439696162
0	3401	154093.24275421084	8068.3555484926
0	3406	154159.623285122271	4419.8465196059
0	3415	154862.585741664599	3855.38442177
0	3442	156201.157497688018	13048.107710048
0	3483	158325.295499735592	9773.3898157697
0	3491	158490.710665917339	7418.7260129175
0	3503	159147.937431165212	6527.1736172944
0	3511	159286.28720733314	3528.7158319395
0	3521	159431.48543815264	3653.3013435583
0	3536	160199.262269587867	5370.5188897347
0	3563	160714.465507940159	5441.7116714122
0	3571	161008.360183710307	4816.505853777
0	3576	161029.41291161094	3964.4248609577
0	3582	161231.093660738022	2076.9431518488
0	3587	161387.073930562577	1475.4970381284
0	3604	162044.609403222189	2544.2809427358
0	3631	164754.449944037852	3349.3401722456
0	3686	167979.224423584685	4626.7858737699
0	3703	168322.781449083669	4173.8207944056
0	3723	169903.85918224536	4074.8716118532
0	3731	170142.677280644853	4155.5708345142
0	3739	170323.144257634264	10082.143209047
0	3744	170367.463500977754	3390.1047847657
0	3750	170725.127619616875	2499.2189603994
0	3775	171723.635882179691	3762.1053538607
0	3783	171788.080236301663	826.1089001993
0	3809	173935.475333294193	907.88775142389
0	3826	174595.012963768615	8184.371649033
0	3834	174757.517137113133	3417.4307482537
0	3855	176336.069673270168	3171.7994774463
0	3886	178236.93478267468	4092.2471876657
0	3907	179279.956819088474	3926.9682584749
0	3925	181111.720765603125	4869.8476289153
0	3930	181437.493958895382	3463.9567893787
0	3956	182634.884243467777	3375.2860665563
0	3964	183082.576063811532	4067.0809059991
0	3988	183864.689289374986	5876.6780906878
0	4024	185268.045843230112	3376.1525196788
0	4029	185400.496486387163	16818.854280293
0	4037	185578.309677833723	3406.0010810139
0	4045	185835.82321782841	2572.685268374
0	4054	186579.573317653059	2744.5055960517
0	4073	187677.458939827761	3825.7555274189
0	4103	189883.249162658783	5297.8823809931
0	4111	190114.488970526291	1425.299800367
0	4135	191630.618622562058	4925.9363235382
0	4146	192110.664376803923	6120.7523293978
0	4151	192204.725822058357	3001.4771670523
0	4161	193896.227865036142	3830.8805375243
0	4179	196250.412939042327	4877.8759697913
0	4216	200479.680339368563	2064.7117478692
0	4233	200966.465341651393	1884.0008426355
0	4241	201353.548070805427	6480.4124058201
0	4259	202923.692199213626	2251.076615686
0	4323	205940.600066658905	6911.3744741192
0	4336	206340.358661776462	4546.9729319328
0	4341	206459.019244923474	2825.1467662491
0	4346	206566.725710323497	2899.719733659
0	4355	206703.632980173923	2729.3326251708
0	4380	208043.496017798816	4388.2127649854
0	4385	208147.797906114734	3536.1166800879
0	4394	208353.83295649252	1770.0162598635
0	4408	208787.935451003598	3130.466987773
0	4428	210136.163480058153	3036.5697028915
0	4485	213358.690607521815	4779.1476798688
0	4502	214159.707350291466	5516.1693188029
0	4560	216924.134567889266	6311.1092428446
0	4565	216990.636364284806	6015.7128944819
0	4570	217343.779040616788	6051.0465612021
0	4575	217446.612704500465	3357.0556264022
0	4580	217656.677387671879	6965.3647483541
0	4598	218602.217331547688	2813.2392461135
0	4606	219022.105780659756	3655.4085151496
0	4626	219560.458829360778	3574.6597922395
0	4631	219759.208581953656	5512.5273498531
0	4640	220750.783225802652	7432.9103997893
0	4660	221472.684082037245	10086.407916768
0	4693	222773.138828414671	3593.7934136552
0	4703	224219.81296716648	2452.2869516904
0	4708	224444.452981602253	3655.3357265588
0	4717	224936.786032651567	3606.9236891766
0	4729	226067.303100341242	8038.5885925653
0	4763	227876.099177514971	5702.4487755763
0	4784	229198.991542517361	3474.0292164275
0	4794	229279.236492591953	2008.1775111815
0	4802	229398.825814431922	3090.3759826042
0	4821	230720.589571337534	2977.8802630069
0	4876	232685.503075342937	3865.7094669509
0	4891	233206.883694139887	2403.3912739091
0	4917	235352.324958641585	4856.7199478778
0	4923	235784.671514141187	5590.2667959481
0	4931	236058.93746195315	4258.3184163252
0	4936	236119.280640370218	4162.8899644436
0	4942	236677.347550764835	6007.6305895181
0	4947	236829.377087012874	4077.0079302113
0	4967	240260.16150178886	7129.9177695381
0	5022	243841.396242824861	2904.8214942426
0	5037	245181.005117750123	3408.9694849479
0	5045	245334.215987542908	4937.3236879055
0	5053	245658.084103886073	2359.6485278565
0	5082	246840.922770861299	4245.7088938715
0	5167	250121.217027811221	4284.2782761061
0	5173	250446.294733105874	3637.0808076736
0	5178	250449.561476055793	4121.8520259816
0	5186	250520.517017723854	4039.8996988395
0	5191	250845.314790363238	3509.3916704883
0	5196	250919.888360674533	4612.513666284
0	5201	250923.443563103335	3077.6754109286
0	5206	251007.018848406466	7193.1365403595
0	5211	251036.054274633171	12264.020349652
0	5224	252266.487106485048	4279.0359424039
0	5237	252686.173889919538	3775.6983893148
0	5255	253729.206599355074	1908.4933012606
0	5297	255897.981231209653	1312.4422415703
0	5306	256345.139638457191	1708.2533549702
0	5314	256587.351387030677	2173.1885427031
0	5340	258405.855902927575	3252.9878710756
0	5348	258777.989900395913	5717.5875610596
0	5357	259137.161887396362	1986.7853187861
0	5377	262448.812761685658	5100.5581851894
0	5393	262903.166586907726	1462.3574451833
0	5419	264671.532697882154	1200.109962646
0	5436	265371.567449986241	1035.6890865772
0	5453	266110.662103404565	3503.3531769143
0	5492	269311.112004758181	4120.9776202837
0	5509	270860.524812004389	3055.7818165475
0	5524	271607.876448596673	5395.8899399732
0	5574	273106.274377508212	5373.9210831647
0	5579	273178.912011396535	4137.3786803459
0	5591	273600.970068982158	2045.1565605126
0	5639	275584.213870912902	9873.1444571265
0	5650	276102.153459415456	4473.9495425427
0	5655	276828.207003973719	4375.2304817846
0	5671	277796.436328831913	5831.1342147008
0	5699	278634.256097949812	4658.5732994097
0	5747	280581.475747158535	9300.7958915021
0	5752	280867.556642992396	5463.5241247771
0	5764	281706.691691055424	8493.8355600607
0	5775	282051.780500725096	8663.2376835261
0	5780	282088.1235481555	7181.7635618521
0	5791	282642.37238825439	4871.7969854006
0	5797	283139.505090262459	4634.8900531223
0	5805	283693.011493839406	5284.5351806552
0	5817	285303.705261574086	8304.1728602232
0	5823	285549.39118391473	6194.3038945697
0	5828	285593.98138497638	6735.884867542
0	5846	287896.998014459735	4366.0101738569
0	5865	289937.744011928284	3242.0018246473
0	5891	292287.567914534667	11270.878715077
0	5900	292548.954567668245	1981.6414661392
0	5908	292733.650389381245	4033.7528951396
0	5942	298462.808777703243	7811.3106546714
0	5956	299340.358364131144	2305.7143532302
0	5973	300626.561433107828	2665.6454280036
0	5990	301614.303205857626	3482.1979564143
0	5999	302541.976824134482	2609.9660920317
0	6053	304720.957495369992	858.28730943294
0	6058	304872.251827758314	4009.6368870328
0	6067	305314.531312731137	1582.4542340953
0	6082	306146.780391633763	2795.3293823365
0	6104	307032.794519968322	3735.9240831557
0	6109	307133.186664421876	2950.573609298
0	6150	309760.398818777857	1148.1258886575
0	6164	310574.159048491129	4735.6692842774
0	6169	310603.310734741637	3301.5027881159
0	6191	313136.687636217858	4521.1829480764
0	6207	313652.791994308819	4400.80754041
0	6216	314140.764951601365	8322.206729726
0	6233	314882.529193980543	4064.0458692212
0	6249	315264.037954539854	2806.7412814224
0	6254	315348.236302024691	1344.5181577847
0	6271	315641.095074591796	972.61680119245
0	6336	318592.968147470683	1992.114896082
0	6341	318655.657693215948	2033.8913570182
0	6346	318775.2723359958	2383.4144417225
0	6358	319019.20949611646	3440.9500578626
0	6366	319306.3841265045	3321.7791454175
0	6402	320469.260666363462	3256.2505108053
0	6417	321576.650174643468	4290.3309730314
0	6430	321908.287922672017	2624.4642903047
0	6447	322985.980120927969	3662.1475010148
0	6474	324061.671784811665	1939.8536084211
0	6507	325644.260205369006	5390.0360350726
0	6512	325690.816704348813	4497.8112558688
0	6521	325842.141215395918	2547.0882420546
0	6526	325957.789060667857	6261.3977756146
0	6531	326152.189499534639	936.68799753376
0	6540	327150.564400842264	3278.1584108845
0	6557	327916.025454386825	2551.1877578439
0	6583	329813.789395421795	2292.6245732371
0	6593	331395.698881734711	2855.8359303263
0	6630	336058.432946231213	7059.1344222056
0	6715	339190.815608927289	5845.3890666915
0	6727	339488.626054226316	4006.6263214923
0	6772	341174.604300560618	5675.0204808119
0	6801	342177.897645998592	4693.055521697
0	6809	342346.227252114352	4798.3797075157
0	6814	342648.046991499283	6959.2607257044
0	6819	342666.391540100165	6862.239123566
0	6827	342792.94964953969	7042.2421872679
0	6836	343120.040186356008	6610.7603287628
0	6847	343958.603671331861	4219.3351137372
0	6858	344332.730725893572	4725.1579685211
0	6869	344648.961852132171	4464.374901389
0	6874	344786.221022419763	5406.549583748
0	6882	345071.337980221132	7858.9065251421
0	6908	346332.052763412991	7986.3268320849
0	6921	346490.87001972949	5418.5012436019
0	6941	347852.6676074023	4878.3563187872
0	6947	348320.723599566267	3465.9744689886
0	6955	348838.776095509589	2905.9559605143
0	6970	349786.849197280628	5514.9763218404
0	6992	350745.483804424241	2148.8477313393
0	7000	351237.24113081349	4938.1161167923
0	7020	352054.294848335536	2271.566431694
0	7025	352105.437435408632	1615.2466548303
0	7077	355949.867017604353	3595.017675796
0	7099	356753.797022578563	3301.5922041506
0	7120	357228.76395232966	5907.1749724698
0	7128	357358.368356511562	10867.726502976
0	7145	358109.690453605921	4532.8453803086
0	7151	358596.067252641544	2097.5865381002
0	7156	359010.588664355143	3453.3976386292
0	7161	359039.105190190181	4247.9706004096
0	7188	360890.709313259298	995.99354919975
0	7196	361016.164029042453	3664.2437442903
0	7221	363970.709234951831	3892.5698544836
0	7248	364694.146360639421	8139.0211707146
0	7259	364783.453902096829	1476.118030529
0	7282	366936.173171769488	4383.7030141537
0	7311	367791.322587363126	4682.4616216995
0	7316	368043.732590725576	3791.00188646
0	7327	368407.653476280778	2119.270144108
0	7336	369029.704357268853	3023.2459868615
0	7401	371663.497582901483	5704.5942676409
0	7435	373929.852738298846	7230.4576860242
0	7463	374334.287912421268	4716.1013883718
0	7468	374408.297922111488	4889.4430298938
0	7474	374712.341344217548	5587.9552783202
0	7479	374780.826903282551	5955.8836942644
0	7484	375060.83294943089	4944.43696163
0	7516	376372.204115111541	2654.6690880154
0	7522	377202.519899800398	4114.6037162015
0	7527	377420.484136507866	6055.5339238648
0	7541	377922.990878380999	4651.5796053853
0	7560	378614.122630922696	1049.2166488983
0	7573	379724.149011174698	5643.8023935358
0	7585	380938.081956358744	5703.1328347751
0	7605	383154.886344845902	7597.6740028774
0	7762	389815.274187268701	19241.093198047
0	7815	391286.531148826984	13570.450962185
0	7823	391706.112900023946	10571.646640779
0	7872	393445.856184045143	12104.677145763
0	7877	393479.057220143828	11821.923032826
0	7885	393664.636804069797	9164.2719374741
0	7896	393882.966782795325	9631.6836146524
0	7907	394296.59799134593	8870.6721064271
0	7912	394379.476102719425	11361.288844256
0	7921	395533.25736452204	11853.260216847
0	7926	395891.47540337084	10618.075744509
0	7931	395935.570748312659	12147.502380382
0	7937	396103.152487160293	9053.0736070658
0	7942	396344.996270134386	10801.360184898
0	7947	396436.770920512588	7148.9996008577
0	7959	397137.049942597305	7747.8625605535
0	8023	399641.460054196121	16108.699744521
0	8028	399755.727559107789	12451.945814766
0	8033	399849.906449311319	10618.823423015
0	8038	399860.321122622591	9709.35963514
0	8049	400243.480137357652	8513.7166841784
0	8054	400246.687136830292	8227.1865363456
0	8060	400791.727884600286	10460.956779934
0	8072	401492.43653206867	10033.790197696
0	8092	402343.669133759074	10033.268552854
0	8132	403563.724953675233	6240.5815733058
0	8150	404534.364563107244	6427.1142521422
0	8169	404833.769461926714	7562.0481044516
0	8186	405308.432201562465	8551.3428403442
0	8267	406589.441786727258	12721.795544661
0	8277	407120.262542256318	10067.329514979
0	8283	407330.511736141734	8468.4937061712
0	8298	408151.372717503767	5735.0760144529
0	8314	408664.643709472034	6226.5879524873
0	8326	409090.702761031226	7801.7678069454
0	8353	409803.313395026873	7698.7492398885
0	8358	409826.401509373254	5415.1086122136
0	8363	410146.978728647675	5531.4688844599
0	8368	410228.167179161145	4672.1479815281
0	8377	411157.409174278782	12459.857916887
0	8386	412020.531074478548	7124.21671741
0	8395	412708.542824725152	7081.8926105221
0	8415	413679.848329947927	8378.0503864066
0	8429	414087.254031490982	8071.3470175115
0	8434	414318.449500682684	12442.821091511
0	8443	414961.186480279658	12244.849513939
0	8455	415824.578841899766	9889.2642154416
0	8495	416528.727160196282	8893.5160339371
0	8558	419300.410250756878	14352.121022046
0	8576	419882.928635085625	10914.99441977
0	8585	420126.784331408989	10917.427295942
0	8609	421355.084226914447	15044.219756202
0	8628	422258.429265382486	13421.653264608
0	8633	422415.7943158896	10353.059551228
0	8639	422760.443368003649	6957.8603469722
0	8650	423171.67219202461	10265.113932983
0	8660	423370.806759098415	7426.9348743009
0	8666	423508.954531292607	7582.9750089665
0	8671	423554.011360796172	4661.4915434876
0	8676	423609.25282553086	6987.3550770344
0	8685	424400.974384154353	6797.0592441649
0	8690	424457.353876106105	8232.4298794201
0	8701	424797.283417571897	9829.5979914426
0	8714	425018.745937292504	6721.0870047183
0	8730	426132.683079416452	9379.759362555
0	8749	427165.447682564795	6814.456467067
0	8754	427276.023498210584	8889.784698343
0	8760	428165.662329510958	6709.0875644471
0	8768	428278.113956149964	5144.128590533
0	8784	430404.366213686778	11430.843128992
0	8795	430974.702963798342	5122.9744113207
0	8812	431761.963324927526	6657.0722229238
0	8831	432134.504840063066	7641.3975034104
0	8842	432666.602930571576	4394.6550443397
0	8847	432674.825816456831	1253.0422551599
0	8868	433620.866744231509	2820.2943286926
0	8977	437251.90939025843	4051.9790220564
0	8982	437259.226525810667	3797.8967259078
0	9006	438071.981723807975	5011.693954548
0	9017	438479.342797218734	3372.1353568
0	9045	439619.266336800391	4582.3276202432
0	9084	441202.254146367984	9347.773474015
0	9111	442356.987827987561	8767.5198931269
0	9184	445054.715033370989	9247.7560520046
0	9192	445388.857275950112	11161.366724046
0	9197	445408.979934374851	9760.6845000439
0	9202	445684.044120752251	11079.905752745
0	9208	446014.70263300738	7936.7081832347
0	9213	446107.879768643617	6991.1846009087
0	9221	446334.094428269462	7365.4440008958
0	9226	446436.025154473932	6595.3972853126
0	9232	446664.991338273926	8557.558250015
0	9237	446707.219588425097	11650.198442558
0	9249	447864.415177281583	6794.8902767866
0	9259	448088.975630188096	11118.756578836
0	9268	448516.258500796694	6396.1487765607
0	9278	448823.337438750265	6616.1518242472
0	9286	448906.125916205203	9743.5913587747
0	9296	449032.800661340142	5788.7491183727
0	9301	449084.872994300489	6075.1489482659
0	9307	449331.891077878417	5742.8476037329
0	9319	450054.05047611529	2610.0906075034
0	9324	450239.027436680342	6234.7098872638
0	9332	450628.720594607267	9170.2495628219
0	9412	456610.997885974905	8098.8959898164
0	9422	456688.769445957287	7793.1564247114
0	9431	456911.983545003748	5147.106183408
0	9442	457441.135499616448	3284.344079034
0	9505	459543.74624842478	5672.3554268146
0	9513	459749.978685051137	6074.359054513
0	9521	460155.522507936674	8297.3794680573
0	9535	460422.737871260249	3419.5268447636
0	9545	460872.421627516565	7666.4863930713
0	9556	461060.202180680331	10020.463233236
0	9562	461572.965892154908	3603.2885313438
0	9567	461660.317462462943	4192.1119884554
0	9572	461944.731101331135	3257.1816822872
0	9578	462656.58329336485	6145.6658567123
0	9631	465481.842057396293	5503.006539386
0	9640	466373.852580244052	2592.9218529849
0	9653	466636.549588985509	6272.1662678946
0	9692	468788.654546074259	4821.5701657984
0	9697	468829.794531503674	5354.9988246223
0	9715	469858.482647918234	3147.0307246721
0	9726	470542.295373271355	6076.1871443545
0	9732	470593.249789982424	3754.7684306646
0	9754	471343.865987844015	2898.9931744994
0	9771	472261.6479305121	6683.1182440263
0	9798	473013.652413721981	2296.3950428679
0	9813	473264.107761868253	15017.623177323
0	9818	473294.726899892316	4461.6342689701
0	9823	473519.506744189065	2218.465580173
0	9840	474745.415865859804	2645.3900390261
0	9849	475133.631750489671	2702.0568801089
0	9868	477486.651650113503	11087.340271405
0	9894	479535.120452888905	2744.1986434301
0	9906	480227.909215813495	6502.3170228738
0	9911	480241.994588436948	7893.7655523791
0	9962	484374.722333267622	6116.1910307608
0	9967	484973.182163585003	3855.3300336592
0	9975	485149.862617337576	6570.0861495732
0	9997	485797.577794477122	2604.3793346278
0	10006	486126.653889471575	1110.0914228854
0	10034	489970.530778445989	7553.7317848026
0	10046	490786.555501082228	5526.527356013
0	10066	491879.855649284003	9552.5591085324
0	10083	492633.246549985861	3229.8574272653
0	10093	492745.832335853067	3173.268081338
0	10102	493321.948414478672	1881.5716602047
0	10112	494808.784953543053	4129.1784715255
0	10140	498266.593131964061	5671.2223084644
0	10184	500843.036200375792	3351.8609327078
0	10214	502001.073358441987	2239.1114081173
0	10223	502563.454834412597	2139.1800083615
0	10243	503301.526944782214	4098.031299556
0	10248	503345.152041154376	3277.3008736038
0	10253	503403.387968158825	2786.4642729147
0	10258	503462.459862157612	6524.0936273742
0	10293	505439.984803094147	3992.5763888508
0	10309	505961.317680269772	2267.3130805271
0	10318	506605.758126818954	1483.5145096753
0	10345	509818.104102702222	4538.4761346501
0	10363	510933.383830704574	8471.6371139505
0	10380	511850.150247541379	1801.403361927
0	10403	513028.230290936292	8302.5596861584
0	10436	513477.678728017268	2436.9563970941
0	10489	515535.579357233689	2497.500217886
0	10494	515676.182157276988	2649.3247232662
0	10499	515858.518825200429	7258.4836904836
0	10515	517307.949612437579	4190.4295835611
0	10528	517653.315402331851	5316.6143875339
0	10546	518506.807983578511	9067.3686339845
0	10600	521332.540928215395	6560.3559261966
0	10605	521590.934069215241	8134.6572615952
0	10610	521613.016352616538	7554.2369773474
0	10624	521974.994163800771	6900.9330135029
0	10633	522204.617564546879	4405.2407332669
0	10638	522561.682949325012	3006.2678064124
0	10643	522699.557520354992	4128.4790870377
0	10655	523335.297402291409	5625.2236875695
0	10666	523903.435169143994	7954.2785237449
0	10693	525771.341305228802	12003.588212867
0	10701	525802.387209807134	6180.8667299422
0	10712	526889.334480253969	3996.1835681984
0	10717	527057.418133580164	7943.9139438923
0	10727	528607.605555973244	4518.3696072841
0	10783	530548.054862157324	1663.861281239
0	10792	530854.524951019134	1249.8837239106
0	10817	531701.574770191473	1905.1864665598
0	10822	531802.788728036997	2630.6141509433
0	10830	531904.086623220143	1807.70355232
0	10853	532829.522426270316	2139.5411964659
0	10899	535594.022815952767	9813.4216856161
0	10925	537123.960935095995	6174.650097777
0	10935	537391.864565995529	4981.6562701004
0	10941	537497.520614533311	5597.8286625973
0	10946	537517.763321939088	4412.5465023109
0	10965	538202.584751518746	3607.1139990606
0	10974	538763.034240487673	2548.8609810993
0	10989	539484.69420730539	2366.9833822308
0	11024	540118.287132834914	6412.7163510061
0	11044	541301.652182028148	3598.706991147
0	11052	541461.782497875453	2236.2169441888
0	11057	541572.066534588783	2345.3864030898
0	11068	541687.549471750865	2830.0453098936
0	11116	543768.213825141531	8231.5128364433
0	11121	543773.02974470046	1866.8161087424
0	11151	544168.070569183355	2491.887557281
0	11157	544454.987230116785	4727.7535597568
0	11162	544482.217787139491	1985.2223817547
0	11182	545354.685685976692	3772.0310063182
0	11187	545453.94652404031	1650.8473619747
0	11210	546622.03667745634	2758.9937387452
0	11310	552479.354299707915	12426.067808413
0	11315	552517.342631350898	9629.0683341486
0	11320	552517.431212365927	7906.7583895466
0	11325	552538.17547871376	6338.0112601321
0	11334	553010.446342642722	6187.8737377916
0	11344	553466.435039350854	8010.6462279364
0	11349	553486.049126501695	6594.4416714699
0	11361	553992.468276054738	6481.6123763784
0	11374	554492.204349200711	7410.2028712173
0	11383	554714.956858665521	4873.4731758643
0	11400	555567.09486397713	7567.4385681756
0	11418	556073.340807537339	4444.8814792265
0	11423	556161.928325760328	2633.5612242022
0	11432	556681.827072832189	4020.159872142
0	11440	557080.791352740088	1831.2776997433
0	11450	558168.827748451212	3593.3007260887
0	11481	562099.645014493262	6813.4363096705
0	11486	562243.807297429948	2204.8799935134
0	11572	570620.51227845201	9704.5654114314
0	11581	571082.686947958735	4793.8114715629
0	11598	572052.928947544784	6863.4216425295
0	11702	576971.461618762248	10995.984840405
0	11739	579006.539647392198	12225.536408361
0	11745	579598.541989431083	9900.0179846376
0	11750	579672.956654888768	11027.827565333
0	11755	579726.408413197524	7587.1433094091
0	11766	580048.39174912287	8435.4827039132
0	11793	582022.468479854058	11234.43785486
0	11798	582211.652699855497	9531.3890413375
0	11803	582820.937254240577	15581.598607107
0	11809	582911.829999759748	11132.807573499
0	11824	584003.771975256126	11080.477558082
0	11840	584979.676302759766	8235.2520275032
0	11851	585332.474494827118	10753.000513029
0	11862	585440.375728570439	11952.755168529
0	11874	586427.499260500679	12260.518150184
0	11882	587002.093523277488	10158.892048896
0	11888	587386.38209634865	14497.982739748
0	11893	587931.209693409606	10681.917947739
0	11898	587971.26014820257	4750.3396256648
0	11904	588097.800154448808	4452.5994292872
0	11912	588139.683516905154	7673.6684205429
0	11929	589707.719552144347	9839.8846548403
0	11935	590292.331654766382	5230.2976246951
0	11963	593503.596761843953	5388.4306052593
0	11995	595184.515665649763	2765.554849913
0	12006	595927.223140093645	5207.5857126626
0	12025	596410.321476532979	2056.4144514672
0	12060	598817.802777149623	2723.5628797064
0	12065	598956.650894527474	4514.0775790585
0	12083	600145.891803755398	3795.1799080863
0	12091	600554.542907411407	2339.8079200327
0	12103	601227.128816723496	6058.1925775644
0	12108	601290.511044401549	3183.6924080451
0	12164	603309.231409120383	1795.8573070561
0	12170	603514.225476217179	4181.8189189752
0	12178	603764.973184391956	1962.1898661881
0	12204	605188.347654791754	2280.8264463584
0	12209	605233.833855884741	3222.6026660251
0	12230	607055.566363877663	3353.7779407089
0	12235	607442.609614886807	5493.5224892
0	12268	608515.083331270394	3620.4102200826
0	12283	609141.147253104066	3363.7000026971
0	12334	611601.977463672461	3881.6963969704
0	12342	611623.596787627776	4163.2446752647
0	12347	611633.100338987458	2887.90687789
0	12355	611726.617053286223	1378.1963436009
0	12360	611750.481853552347	2000.0759384067
0	12372	612018.874187803541	2991.6091256126
0	12388	612747.78650127502	4820.0959131367
0	12403	614453.51624865341	2531.2668964734
0	12436	619099.818592041529	4125.1564449076
0	12444	619224.14157524692	6592.0569384097
0	12449	619235.272518493659	8732.2118144042
0	12514	622046.910230240068	3618.4695224991
0	12519	622066.13231604895	2621.3088238144
0	12527	622189.809283980568	1999.6795797292
0	12535	622236.925156475902	2477.9982969631
0	12567	624292.194563145036	3986.1095372078
0	12576	625127.907370315089	4518.0874142824
0	12606	627809.144471730943	7606.2057637808
0	12623	628702.872080815628	2583.1649679081
0	12628	628720.067533173721	1977.8835038143
0	12671	630551.830996726576	7301.1859489975
0	12680	631194.075396286533	8938.4394770422
0	12693	631519.003562516092	4014.8755810204
0	12699	631809.439795493197	9573.2437803267
0	12704	631879.00660253445	3065.0294699814
0	12721	632906.335190165343	1986.2138840816
0	12820	637733.852097364903	7872.9731338886
0	12836	638460.186299542556	6180.8645001838
0	12850	638710.462154987657	9697.9416557138
0	12859	639497.214117553492	5652.5443626469
0	12879	640101.426146231193	4173.7265463147
0	12957	643848.225372659432	8002.925097342
0	12976	644696.443026026139	10832.887198056
0	12984	644885.00850568354	9735.3285154505
0	12989	645060.891885813284	7674.852368744
0	12994	645119.687489988038	9835.5325531465
0	13003	645561.666875849813	11046.051515745
0	13022	646285.54371910574	10257.216716412
0	13044	646624.659835680351	6844.7931904346
0	13049	646668.21237442034	8402.223728776
0	13058	647168.822936004704	7406.5869574227
0	13068	647291.044787317373	7018.4478658252
0	13073	647370.203410194129	6932.5615755179
0	13081	647473.285179090376	6037.5201334978
0	13113	648987.660856292532	6565.0546563625
0	13118	649082.772666700592	9421.8002675258
0	13126	649423.848018527887	6493.2431820093
0	13145	649882.811917091961	4038.3432769585
0	13150	649987.248015663218	4673.961266065
0	13155	650119.663037580885	3230.6688648048
0	13166	650537.590894519459	4677.3305125559
0	13180	651222.677355255651	7810.606100837
0	13185	651398.934988705706	4011.8408935062
0	13194	651905.513080290605	4367.285551602
0	13199	652155.315104741195	2965.4519313076
0	13217	653436.762576200793	3793.1742735915
0	13228	655759.863585327964	5325.0661319016
0	13338	660143.604126022401	1752.2287905612
0	13368	660819.314703060391	3181.7994061155
0	13398	661242.173866045899	3862.00227302
0	13406	661362.121565260495	3773.590961091
0	13427	662058.29311793724	5526.7551377376
0	13435	662204.786514129578	4892.1655003221
0	13446	662294.259756188216	2334.0361562224
0	13452	662691.427287657163	5892.5478686693
0	13457	662818.630524221234	5451.5867988394
0	13462	662879.496115660025	10347.626645945
0	13467	663208.498113327349	4814.4064281939
0	13472	663282.042504117823	2568.2275008737
0	13488	664523.932011735571	6334.8348143219
0	13528	665896.477657490183	5555.274767925
0	13540	666511.532780037346	7215.3898763891
0	13557	667151.301539514974	6572.7251176523
0	13591	668573.189179256984	4275.5802180796
0	13628	669459.674778961749	4989.1058439126
0	13666	670628.063137467864	9764.8789905278
0	13674	670817.907348512345	7336.9873310724
0	13705	672160.629963227166	7137.036917915
0	13723	673450.435988332426	7525.2747908389
0	13740	673937.03561992187	9033.7541047399
0	13748	674269.722284014887	7670.9687620472
0	13754	674587.898362142762	6087.6008324963
0	13759	675114.574988999968	6051.0617917726
0	13764	675277.900656371297	6231.774525278
0	13769	675315.564985065615	4531.1373159048
0	13777	675424.637215352858	5750.8540240037
0	13794	676238.135942068252	6869.9437311137
0	13799	676276.293725885838	4956.246583448
0	13808	676879.713472006395	9280.3033136559
0	13813	676996.220200938504	5910.3935190853
0	13819	677269.647598428614	7887.6403901385
0	13830	677358.358887252214	7792.9710454232
0	13863	678554.872240298482	5909.2877029497
0	13868	678837.444723721171	3496.064217372
0	13874	678886.865083835595	1567.019921873
0	13882	679162.179336578566	1811.5724024828
0	13904	680259.967259300186	2894.1839579948
0	13929	680929.589876282547	2025.2116420065
0	13939	682596.490172517245	2218.4434770636
0	13952	684177.939272861716	5003.2335836562
0	13992	686864.199128696607	6465.4202876123
0	14006	687385.471180371412	1444.1618902167
0	14025	688115.79673229821	3949.7794493358
0	14034	688507.004125203619	4235.2699183343
0	14059	689613.882216118715	2407.8727282086
0	14079	690651.546974433914	1477.0929506677
0	14094	691428.275691642401	5298.9004958665
0	14104	691618.820909473546	4379.4878077893
0	14109	691620.641153355128	2271.9734964753
0	14119	692806.269606745402	2954.5548231262
0	14145	695114.128380421322	4000.0169417238
0	14188	697549.212250699667	3542.3425249644
0	14209	698319.177035592948	2008.7560213028
0	14220	698988.416650037546	2344.6393612658
0	14225	699126.019619111106	4493.6021611414
0	14230	699195.484856747142	3220.1105392585
0	14257	701204.786516422261	1624.6193102538
0	14273	702878.660910539856	4577.5061094098
0	14323	704901.802750384952	8022.6910865167
0	14334	705222.718314769102	4796.6959387869
0	14339	705302.729533695374	3277.9126049904
0	14345	705496.799864695112	1663.931939736
0	14353	705879.643148285376	3858.9135909867
0	14358	706068.705361270897	2255.4098777306
0	14394	708276.100293963453	3819.1176015524
0	14442	710914.548682143289	4186.1616243882
0	14456	711266.181536519048	4277.1303438254
0	14467	711850.917006541284	3822.431054619
0	14478	712234.15552127578	4071.1993444909
0	14531	713823.588951219441	5030.0150154188
0	14536	713911.912666952453	4493.0201204158
0	14541	714002.782570361368	5851.7310775842
0	14550	714243.751604722389	3067.0827547558
0	14567	715159.370393763499	2368.2293957613
0	14572	715179.304219456609	2858.2445929736
0	14577	715220.691672555646	2180.5568149371
0	14602	716411.046550372652	3529.3581892732
0	14617	717327.810617364389	5350.7145061656
0	14631	718049.442162385299	2550.0678241881
0	14640	719074.734748329384	5017.0247905198
0	14662	719685.441972729461	1436.2486992651
0	14679	720343.318336841028	4355.3190828299
0	14744	724392.360917044072	5090.7202288979
0	14749	724633.717467294013	7307.8388838555
0	14754	724945.938207083098	4951.395246834
0	14769	725608.009682989922	4754.2757004573
0	14791	726409.386501816552	5312.8263189078
0	14796	726625.572966848299	5511.0933226159
0	14802	727087.236265895728	4967.3629497386
0	14807	727271.068821721002	6364.4175508172
0	14845	729602.218476067585	2077.5331993292
0	14859	730645.154261315435	2459.362582073
0	14867	731084.892687934541	3773.9866263618
0	14875	731140.181525281869	5953.1622464806
0	14904	734843.342259448119	9434.5101822327
0	14912	735288.178751242747	5696.15899025
0	14921	735857.834932884692	3938.0572977917
0	14948	738108.838985983392	4793.9159018805
0	14978	743511.062419198819	7575.1800113648
0	15014	744307.155575019371	632.73247487422
0	15019	744346.252324305233	4956.602164269
0	15035	746005.919881838328	3632.9300130389
0	15048	746246.21860674392	9835.8260293079
0	15060	746831.969079874819	2786.3846707797
0	15073	747227.976636270928	3485.7846261527
0	15112	748839.357548272652	1617.2522711607
0	15120	748980.694468573212	852.37597014957
0	15139	751248.730741762024	4600.1934834937
0	15154	751922.256269204877	3568.0681619226
0	15174	753033.230521520268	7467.3053073426
0	15202	754377.246358238929	5880.7799887193
0	15232	755208.07045393415	2163.6839233268
0	15240	755494.307466831924	1109.6604245645
0	15260	756371.939400167358	4549.4422239189
0	15280	757348.925470678459	5139.4195254837
0	15285	757384.32172632705	4864.5449844965
0	15300	758096.593355790761	4396.4624785123
0	15311	758683.610421475299	3171.7089524211
0	15316	759027.962969407713	8101.6531066994
0	15345	761050.839861485201	1227.9750148987
0	15351	761363.534607440195	6747.455380943
0	15359	761512.249036652703	5311.9186011507
0	15382	762062.661381161612	1734.0532904466
0	15392	762463.851962665622	4634.4437415493
0	15416	764256.211848183312	2301.5264712054
0	15439	766006.573643913265	4437.3791472418
0	15452	766204.265068463955	3530.4823988263
0	15461	766526.800879685006	2043.8668845026
0	15470	767833.73952310839	3628.82989801
0	15535	772737.590826116395	6985.4534109404
0	15541	773555.032567512316	3924.1689144836
0	15556	774658.639348631885	5669.7378516615
0	15565	775139.709713310863	3958.6339512203
0	15570	775145.844090862961	4267.5630963218
0	15585	776562.89625425282	5402.5795885764
0	15618	778164.659946973297	6601.6692803787
0	15651	778821.278911904071	2591.3605570405
0	15659	779095.07664222782	697.36710102478
0	15668	779927.866518337362	4097.9159371885
0	15680	780564.390492159978	3812.3785533348
0	15688	780853.824353602818	5478.7143909763
0	15694	781260.909366114255	2975.1531089679
0	15731	782878.486007824466	1202.2038111374
0	15736	782923.875024036748	4349.5158901603
0	15754	784422.37051410729	3076.1514898433
0	15772	786727.099579293812	4374.8807149766
0	15789	787179.426469021636	3538.8849362342
0	15832	790098.820460215824	4318.3962041031
0	15841	791135.654757220051	3645.7042246352
0	15881	792261.744463301398	4405.2914269631
0	15898	793041.940405598031	1835.6216571976
0	15920	795162.545460325681	7023.079240956
0	15939	795675.789144756111	4317.7052592715
0	15947	796144.635040446313	4493.3852810397
0	15958	796325.787882212694	8909.846899923
0	15963	796371.003651411802	9604.4509254188
0	15971	796533.934211962329	4411.2290215862
0	15980	797235.106881963543	3958.6170497288
0	15985	797409.599144567102	2734.8925327439
0	16009	799406.140515297548	3277.7474773873
0	16028	800304.719075411937	2556.0680054352
0	16096	804203.06318871637	5245.9378662997
0	16135	806446.842653642628	5466.7946124363
0	16163	807680.256164605766	8627.4125682
0	16208	809844.013461919752	7613.296318893
0	16232	810589.863094948322	8287.4746331914
0	16241	810926.099933664204	8825.7875057386
0	16261	811587.102861867195	8689.2317346081
0	16313	814884.592360185306	10106.414482433
0	16321	815034.983092949304	10894.286862874
0	16332	815540.620444199982	11479.510366716
0	16337	815662.110950690377	10424.011936093
0	16342	815798.03132588868	9237.8611190459
0	16348	816214.419629403524	9646.2361829469
0	16356	816529.20770242147	7169.4311074368
0	16366	816752.93381116319	7262.718523987
0	16372	816897.458025718452	9343.0558017098
0	16377	816963.916576804189	8671.3406610985
0	16394	817611.360167598001	8008.6189880837
0	16408	817818.208001742656	6625.6485327433
0	16432	818425.204139512199	7184.2245520879
0	16449	818900.114101989832	6773.6766902889
0	16472	819895.993146620501	4965.5398996674
0	16477	820103.824332469455	8143.1815101554
0	16485	820287.631348720977	2529.6109620095
0	16500	821569.132652345879	3701.7432651125
0	16509	822165.281660959416	4851.9136203319
0	16519	822316.516880695211	10397.526240109
0	16527	822391.235876921781	4019.7884927453
0	16561	823905.264771755356	7675.0928092044
0	16573	824633.360877495483	5825.5180472752
0	16627	827558.877546358885	7320.4741683799
0	16637	827882.192564532593	5197.8449321661
0	16642	827974.208301381862	6326.9709389102
0	16651	828204.000124608336	5394.6656571607
0	16656	828252.662337003292	3866.1348234227
0	16661	828277.854907217745	2759.9767443921
0	16678	829204.367925342437	3265.6785547731
0	16689	829403.504520427243	2572.3106187798
0	16706	829762.785908268805	7400.9535005726
0	16714	829844.435766101466	4188.7058388727
0	16727	830456.46267500432	2977.4155387872
0	16795	832715.082759505188	3326.8160959584
0	16800	832808.870862582437	2103.9607159854
0	16815	833283.88214828215	3445.7135941652
0	16828	833830.232117655771	5444.5542852139
0	16840	835120.628288893213	4126.3980329693
0	16845	835249.725093048006	4001.4928598207
0	16853	835596.102784008493	4347.2843935666
0	16861	835674.710942554734	2543.5001784363
0	16879	836851.592243918365	3162.0208458424
0	16887	837287.74649733326	6667.0576889724
0	16913	840082.419061133775	3680.1067033105
0	16926	840212.929493114192	9500.7265301639
0	16940	841077.317925913992	3644.676732617
0	16957	842122.108793667156	2391.4883194025
0	16976	844621.911300102609	3479.9590084713
0	17003	847000.712772909658	6792.6301653949
0	17014	847227.535569795573	1767.1146216574
0	17062	849870.908250907204	1409.2867977066
0	17090	851318.40043219039	2819.6257768017
0	17150	852827.785743033054	9056.4706516345
0	17162	853213.232053607074	7040.5817978395
0	17196	855178.266036848223	4969.525468047
0	17204	855273.73760152934	4768.1031850453
0	17210	855608.654860049859	7080.8294960182
0	17218	856207.014859383105	6137.1885015068
0	17223	856228.787810109676	4893.4008593458
0	17229	856445.266957659717	5637.4194958293
0	17234	856699.228877415083	9495.2390834803
0	17242	856979.262306894766	8573.6470478307
0	17253	857190.387967450898	4226.0158145716
0	17258	857538.395460484907	4326.5463669876
0	17266	857780.538998883147	6345.0066303589
0	17292	859254.67775620255	1582.6359666743
0	17297	859377.010351393693	2535.330289525
0	17306	859755.731897271251	5951.1882334287
0	17333	862568.345098731371	1185.1849783921
0	17372	863845.823059779471	804.91796000151
0	17382	863897.101521224318	5992.1665699782
0	17402	866380.067104523337	3285.5296644372
0	17426	866801.209497564634	3762.5438849803
0	17434	866866.386693654405	626.97243415007
0	17478	869652.578648533439	5927.6251891587
0	17488	869822.987769695957	7989.6515590371
0	17493	869930.580867088688	3940.3854613359
0	17510	870107.470394703844	1292.8192943797
0	17518	870699.595656899021	3451.249782448
0	17530	871170.095390737973	3087.9934696397
0	17535	871261.57882010469	5002.971339591
0	17551	871620.306540181946	1672.3104016497
0	17582	874457.281947731929	1017.5859642107
0	17610	875239.711010033538	7965.2676623335
0	17618	875871.027845993652	4467.8000846155
0	17682	879617.810271144166	5835.4134266274
0	17693	880002.338416452691	5826.1102031305
0	17703	880041.468033653118	4478.2210570391
0	17709	880417.01367367373	3748.7317431262
0	17714	880476.911927003241	3498.6120650771
0	17722	881143.862693922665	3928.3425095973
0	17739	881933.63587866941	4485.879141268
0	17748	882341.781763318081	2483.9880282222
0	17765	883043.14451485198	1436.1401759084
0	17787	883556.96435124449	1189.1379346308
0	17812	884280.266093674739	9630.8027103666
0	17817	884313.966207530667	5327.1072843484
0	17822	884424.622588231749	1035.6053055971
0	17861	887701.301467620868	3978.9738893383
0	17866	887718.218541911582	4531.4561614455
0	17875	888297.260836212154	3776.9086907024
0	17902	891262.953840999065	1896.9763228803
0	17919	891953.529830912679	4884.2802044714
0	17928	892412.628538666376	7038.9451038266
0	17944	892702.771290903992	3101.8244463375
0	17997	897075.245511144432	3447.3602479396
0	18022	898905.030279609448	3996.8372290867
0	18046	899350.826691266087	6130.1923311115
0	18051	899576.699809413602	7104.8942085098
0	18056	899810.182141143408	8137.8570125632
0	18071	900744.53435906417	3505.6873570567
0	18121	903566.294371729365	5538.2551407348
0	18126	903644.767134104836	7288.2749750326
0	18131	903943.877498413285	3368.7998377737
0	18136	903968.507424393128	8249.4576290765
0	18142	904468.283129589512	3571.2499891969
0	18159	905800.773389070667	4981.7342414701
0	18167	905885.851385806192	4543.5231158526
0	18176	906140.16730311693	7206.9022759692
0	18205	908276.409759863761	3120.2311101979
0	18219	908860.860501349138	2595.3356111383
0	18258	912719.764035970391	4677.4778179338
0	18280	913681.261307294163	992.61466434476
0	18289	914045.567356291364	7257.8190452227
0	18300	914435.482245283235	3944.7876225972
0	18314	914732.245035592952	2894.4792276668
0	18335	916507.257020196067	3484.0329237398
0	18343	916655.960618335245	4373.8336041831
0	18377	918750.51077607647	4361.0030689452
0	18382	918780.838592774041	3611.8593460333
0	18391	919262.345981162066	2702.713912588
0	18411	920517.474037737617	3442.7589333077
0	18425	920939.470636323378	4052.7672929888
0	18437	921876.62290117842	2008.4540066395
0	18460	923256.423310271178	2757.8421407229
0	18476	923711.155761447531	1383.5032222826
0	18485	924066.612098651965	2331.6710619834
0	18510	924947.710021434482	1373.31899331
0	18546	927588.282120212016	2664.2738800192
0	18564	928252.127873987696	4023.2666013898
0	18569	928278.365762921138	2551.9492058957
0	18591	930481.742096585322	3341.6523256705
0	18605	930928.925813515219	4392.351863391
0	18624	933374.938151053444	3882.1582617842
0	18640	933927.389093090652	8553.6400219816
0	18686	935906.111471167618	5842.9997746967
0	18697	936147.026124027947	3690.9067395121
0	18702	936264.893304799792	3113.210735237
0	18710	936515.497867335475	2364.4007982802
0	18800	941331.27006022469	7116.3631650915
0	18812	942209.332472118682	6371.0824329119
0	18825	942582.369906026158	7874.6951603152
0	18830	942742.551052691236	5880.1769006698
0	18839	943144.917145924819	6051.1481588006
0	18850	943592.115182746686	6816.4706300337
0	18861	944437.786334881764	4217.4987485506
0	18866	944536.427333361552	5672.5912805414
0	18878	945007.297581712134	4285.8193534939
0	18883	945028.814560274939	6138.121274799
0	18888	945214.823593770787	8772.535118262
0	18893	945367.320779976756	3541.4436669969
0	18914	949124.981188931954	5838.5231623715
0	18936	954483.96285737213	5612.1587131988
0	18978	957578.304328861598	1193.8065878696
0	18986	957858.392530549133	4589.8365465954
0	18999	958001.983919721807	2843.4340992577
0	19013	958548.772264673223	805.25858816661
0	19044	961996.488257193037	5469.2299299193
0	19050	962729.219286480676	4837.6576835607
0	19061	963221.595823018188	3728.723154208
0	19093	965873.085187007899	2758.098546001
0	19140	967979.596045745956	4559.8740240019
0	19176	971544.726435260933	7321.6282288388
0	19181	971652.594990511073	10309.973446108
0	19186	971818.397077886542	5642.3266607411
0	19192	972024.664615694024	5634.1907667477
0	19203	972459.44117671032	6350.979202273
0	19239	973290.083959114754	6371.5315866684
0	19253	974012.758592536546	1633.7452725187
0	19262	974738.427836151464	6062.472569984
0	19267	975041.335913742686	7808.3238817708
0	19272	975345.776781585414	2812.7977473401
0	19281	976134.601049096661	4054.3244433508
0	19300	978279.812183588935	5408.7721983827
0	19333	980738.826450774726	3280.7921923381
0	19343	981438.032380462277	2676.0849876947
0	19356	982987.125123867755	4048.6335037466
0	19380	984952.157110383058	4543.4428949712
0	19391	985131.796263281432	2165.9415570826
0	19413	986216.86780004882	1709.1492103484
0	19422	986908.134923943094	1837.0515762895
0	19446	991463.05366246989	5745.7630794471
0	19460	991747.28822096254	3100.4260790688
0	19518	995351.34868751479	1978.5379178229
0	19523	995480.58041875845	4192.1861756323
0	19531	995572.854789014056	2332.7712603051
0	19539	995787.746433594058	1206.9219674476
0	19569	997861.632087511428	2099.1477644469
0	19579	997923.640525959132	3192.0356450397
0	19591	998705.273242338925	4164.8874073232
0	19622	1000359.674992164677	2756.7633001398
0	19645	1001739.702177946815	1928.4808300944
0	19670	1002590.43841840595	1280.3565766548
0	19675	1002703.021478596387	2924.6939484228
0	19680	1002822.54213027407	4457.6220266994
0	19728	1004540.695014079135	2899.0180408404
0	19734	1004699.307148655196	1617.849506574
0	19742	1004916.402513364593	3395.9365188369
0	19767	1005636.715057684094	9712.7618095423
0	19772	1005648.511101277769	2075.4638823161
0	19791	1006128.157514500223	2989.8137269124
0	19828	1007730.721158852255	2832.3910775758
0	19850	1008831.87475368914	3136.6592915509
0	19859	1008999.68592852332	5399.1812062186
0	19876	1009644.265685147664	2186.3421539593
0	19902	1010999.759105628477	5956.8069783832
0	19910	1011412.805183611126	4874.969782486
0	19927	1012088.106885554663	5112.9251498386
0	19958	1013306.012905850624	5530.4807796333
0	19963	1013539.117794443252	7511.2968723931
0	19968	1013827.503776448901	4476.2161260734
0	19973	1013894.200815307955	2021.4712397293
0	19982	1014141.075488838849	3135.8737059293
0	20009	1014743.057519309504	551.92454197045
0	20014	1014802.159267848963	2788.0522137185
0	20034	1015709.596669024145	6686.0402684382
0	20057	1016685.631660645371	1667.0953850264
0	20065	1017140.884008102789	4751.691973727
0	20116	1019256.352002989881	3489.4901148922
0	20124	1019782.961421642592	2626.8460631972
0	20136	1020501.071453439391	2975.226824985
0	20150	1021385.833719010765	3513.1070992617
0	20159	1022221.891392620082	6637.1452648242
0	20176	1023233.217115233708	5203.0538429408
0	20185	1023970.942490862078	6043.5901485716
0	20205	1024623.606744688634	4372.9871493676
0	20213	1024683.683368891106	10323.974042726
0	20221	1025070.696053960675	2755.1091092391
0	20260	1026459.257691167419	363.43192204857
0	20269	1027433.237537163426	2393.3997900623
0	20293	1028875.777090675637	4895.5936449449
0	20306	1029402.31263366838	3096.0755502721
0	20320	1030002.320447059928	3817.6662948176
0	20330	1031787.402711092925	4076.3939573832
0	20439	1036543.848367310611	7485.790038205
0	20447	1036658.010597865271	8579.18938422
1	2392	101489.040186470942	42.710649604524
1	2400	101649.606401266477	182.4667134818
1	2406	102083.206656155867	501.19528452397
1	2420	103385.375673276329	58.93298958293
1	2439	105445.072900895271	0
1	2475	108952.629699612368	0
1	2500	110100.731701194307	41.880929730997
1	2508	110443.211252092342	0
1	2526	111774.083175687131	0
1	2543	113090.709590399802	0
1	2563	115919.419855785829	0
1	2571	116197.64533903271	0
1	2588	117267.062662996602	0
1	2603	118143.464905241222	567.47783925411
1	2609	118395.534766280138	715.77269361045
1	2642	119711.184739445536	253.85033894252
1	2654	120695.083815472707	324.0321912785
1	2663	121001.525876167041	27.822330137362
1	2674	121443.693600808944	424.0406188197
1	2687	121629.841353672383	51.871810161991
1	2708	122771.577756588476	582.9723342684
1	2719	123043.448530177317	28.456336518295
1	2727	123210.965956110913	122.14038555305
1	2739	123688.220732517162	117.26063333505
1	2747	123861.743480621665	250.35989058091
1	2771	124232.590289074549	59.992316504918
1	2798	125156.398839089141	57.508891953991
1	2820	126775.118734662912	461.00389280252
1	2847	127430.447708732755	336.73869477759
1	2855	127499.736094712196	87.905662181304
1	2860	127518.0531007774	21.091292981322
1	2885	128079.076520447572	1.457561600708
1	2897	128981.58531861799	713.98440293987
1	2923	130482.987218322381	462.2360695804
1	2937	131250.091774916174	41.7654555106
1	2964	132181.660391171246	223.03078096672
1	2972	132737.785333953651	193.1807031882
1	2987	133039.549413052017	28.873108894105
1	2998	133447.021265774272	305.74253663846
1	3006	133661.076201998338	334.48901394382
1	3025	134965.88831377762	1440.5672331398
1	3030	135121.406424259193	1055.6500751736
1	3038	135240.658445912679	1163.5560866454
1	3046	135268.468753299693	537.30349731116
1	3078	136841.786554253333	303.94688342185
1	3090	137445.674987934668	475.84129287309
1	3149	141280.09751035978	764.40970329654
1	3155	141499.369628882965	742.98101839434
1	3205	143074.832286660769	31.308293969155
1	3214	143240.522291508507	87.472503868951
1	3245	145535.370414240642	0
1	3257	146242.372831688763	217.48562597049
1	3262	146294.481989900855	231.08798139944
1	3270	146432.890605151683	0
1	3296	148117.765559427572	0
1	3316	148897.313529977056	434.22457746002
1	3321	149109.331447849675	557.42576388381
1	3334	150439.121970554491	699.34520503808
1	3346	151052.123305812005	44.921985917428
1	3357	151206.919323369696	134.9346703699
1	3386	153252.832922133272	632.06910826245
1	3417	154862.585741664599	33.842361811425
1	3444	156201.157497688018	928.40366116009
1	3449	156499.930470000554	742.35909460687
1	3455	157023.40772013934	1245.223625545
1	3463	157176.005989852347	984.15165991903
1	3468	157465.117958193155	400.12990753988
1	3513	159286.28720733314	132.13669844393
1	3538	160199.262269587867	698.93380910151
1	3546	160241.178683990047	329.60179155592
1	3552	160383.409612236265	142.40856364925
1	3592	161405.109771792292	0
1	3610	163352.438549814784	0
1	3619	164148.960654678039	0
1	3637	165828.987570392118	0
1	3645	165987.106446130628	0
1	3654	166796.676789824704	386.03547508907
1	3663	167282.977601686375	305.61888547429
1	3688	167979.224423584685	17.693895265694
1	3705	168322.781449083669	96.872789866168
1	3714	169524.973554125921	943.33134803196
1	3755	170961.97133610236	0
1	3767	171449.827008935753	109.74062007632
1	3789	173027.587581870303	0
1	3798	173253.241594390412	88.971398566497
1	3815	174144.687595009019	0
1	3840	175352.988560613557	0
1	3857	176336.069673270168	94.196536582336
1	3867	177973.537169516714	0
1	3878	178035.053521814901	47.042323127736
1	3892	179015.495157812384	0
1	3909	179279.956819088474	20.358642176989
1	3936	181891.893323551346	0
1	3944	182172.308596819829	0
1	3990	183864.689289374986	601.55133992058
1	3995	183873.03948164869	37.971760047292
1	4000	184125.64835027827	273.94493786939
1	4012	184600.719285710361	15.352504044721
1	4056	186579.573317653059	589.66127024698
1	4065	187082.488958476963	377.80665945311
1	4080	188689.189170159314	0
1	4088	189203.248655006105	0
1	4113	190114.488970526291	49.141643014495
1	4137	191630.618622562058	258.08165331102
1	4167	194873.135664985311	0
1	4187	198414.96859149937	0
1	4196	199029.225592539698	0
1	4204	199595.827514597837	513.36301558194
1	4222	200672.615583527656	0
1	4247	201793.385729843666	0
1	4265	203633.872478674402	0
1	4279	203721.38574807493	66.102495261539
1	4284	203873.361770701092	206.35579403655
1	4296	204231.165283435757	256.86492843268
1	4308	204949.117632764632	337.43640673776
1	4325	205940.600066658905	283.13160342835
1	4357	206703.632980173923	119.81628354493
1	4372	207456.887559556106	357.29378238948
1	4410	208787.935451003598	208.3925233506
1	4415	208978.277014510463	334.73898302191
1	4433	210613.025325044713	0
1	4452	211895.212399472426	1203.8997601547
1	4463	212468.23586481175	1493.3123950089
1	4468	212481.410523939351	1188.6780445247
1	4473	212510.114404175169	1123.8382389062
1	4487	213358.690607521815	40.817781508429
1	4504	214159.707350291466	70.150272193243
1	4520	215147.543838186439	900.8626060859
1	4531	215848.041337723021	481.34407221289
1	4536	215888.111644678323	99.133559244125
1	4551	216750.523736064958	764.72469894371
1	4586	218028.714507775973	0
1	4611	219179.345414759483	0
1	4645	220789.117255043455	0
1	4662	221472.684082037245	142.82173856228
1	4670	221767.526015476096	0
1	4682	222190.828477651757	17.178075713064
1	4731	226067.303100341242	342.34077425143
1	4740	227014.161758663321	705.7119268356
1	4749	227271.058981410444	0
1	4765	227876.099177514971	133.38986918437
1	4786	229198.991542517361	379.19793412532
1	4823	230720.589571337534	526.18485314448
1	4828	230785.022353399391	289.41734263557
1	4836	231108.706282315236	438.98932106849
1	4841	231312.897142220289	509.40472198948
1	4850	231800.619045627977	0
1	4858	231956.390675926579	0
1	4893	233206.883694139887	454.51453733833
1	4902	234128.25485690393	998.01112465319
1	4954	238772.033924981319	0
1	4972	240396.892299637371	0
1	4981	240936.574748582272	0
1	4990	241772.035632802179	0
1	4999	242595.213876989815	0
1	5007	243298.43557602955	0
1	5024	243841.396242824861	27.51393477794
1	5058	245836.938751705085	0
1	5084	246840.922770861299	533.54807647078
1	5090	247009.901337737646	682.19188766349
1	5101	247688.736296173765	1208.1189772894
1	5110	247891.359998260244	1082.146072828
1	5115	247895.956953624221	560.03383374924
1	5123	248111.860659091761	266.09250691701
1	5138	249073.586353147617	1086.1351890665
1	5143	249115.592216234969	205.11671563021
1	5226	252266.487106485048	445.7738083906
1	5243	253060.402339336289	0
1	5260	254414.162844327572	0
1	5272	254669.556004785255	84.01701514587
1	5277	255084.208668695882	447.32238520892
1	5285	255312.202451697711	159.3344198457
1	5320	257150.376568610293	0
1	5328	257348.254576496216	0
1	5365	261440.809141724456	0
1	5382	262607.308926490223	0
1	5399	263471.422735236188	0
1	5408	264335.878363409052	0
1	5425	265190.134384474432	0
1	5441	265711.069413786374	0
1	5458	266211.986508623471	0
1	5468	267732.353294343543	0
1	5476	267970.010454733217	165.26745927634
1	5494	269311.112004758181	269.57867370758
1	5526	271607.876448596673	327.19659294019
1	5535	271750.400500588229	194.5869921187
1	5540	271916.430888723207	288.22697185049
1	5548	272049.256358380054	83.954244248926
1	5560	272858.514432424844	405.53791023574
1	5593	273600.970068982158	388.11393798743
1	5604	274152.346763443034	763.80394624402
1	5613	274775.958819851047	800.27602131094
1	5624	275117.12380866971	210.76382236627
1	5641	275584.213870912902	180.18135269764
1	5673	277796.436328831913	796.90392748107
1	5678	277797.946773846379	27.371370992586
1	5701	278634.256097949812	225.77978476557
1	5718	279355.52641693443	850.9113797943
1	5727	279645.867339233901	787.77082179954
1	5732	279687.516458685355	332.42916934028
1	5766	281706.691691055424	690.00249159781
1	5807	283693.011493839406	162.02365323659
1	5834	286695.742187281002	0
1	5852	288699.897494241679	0
1	5870	290567.313101529	0
1	5879	290927.031176767898	275.53305373601
1	5918	297034.64401090097	0
1	5927	297960.916005104185	0
1	5944	298462.808777703243	330.7035282599
1	5961	299932.010732102748	0
1	5978	300862.614940725551	0
1	6005	303296.870436812616	0
1	6014	303515.925923269948	164.47491397272
1	6022	303732.077078635876	0
1	6030	303862.670185937049	0
1	6038	304182.61305512391	0
1	6084	306146.780391633763	328.22216975842
1	6092	306402.400333111213	563.91056889746
1	6114	307301.807946625697	0
1	6124	308612.272930120355	0
1	6132	308657.713105105111	42.208416963618
1	6152	309760.398818777857	508.41436487902
1	6174	310818.483324759333	0
1	6193	313136.687636217858	679.39096310039
1	6218	314140.764951601365	137.04680736141
1	6235	314882.529193980543	214.0509205812
1	6260	315578.259438253862	0
1	6276	315984.604981087044	0
1	6285	316391.857894273312	0
1	6303	317440.380061352796	839.5268099641
1	6308	317449.827302915703	828.06096671793
1	6313	317510.551444163755	297.54128860564
1	6318	317560.437596341269	274.11839472922
1	6368	319306.3841265045	22.560494137204
1	6380	319952.616466445312	628.78384653215
1	6388	320131.649833251987	435.25854819876
1	6404	320469.260666363462	215.0364960671
1	6419	321576.650174643468	383.64472616341
1	6435	322121.818176390603	0
1	6453	323295.052973341315	0
1	6476	324061.671784811665	189.2657948539
1	6485	325224.192676743555	8.69117474268
1	6493	325369.581086936873	4.743390393962
1	6546	327521.164822184661	0
1	6563	328539.862951408398	0
1	6571	329110.043225368032	110.74470134239
1	6600	333345.42654223579	0
1	6632	336058.432946231213	576.43321349716
1	6637	336279.633215066594	780.04939531791
1	6652	337447.465786403286	1758.6795206084
1	6663	337688.642421041786	1937.93495877
1	6669	337795.327504845813	1991.1750883116
1	6674	337888.183781560509	1378.9039239673
1	6679	337982.514644512684	770.08318943369
1	6684	337989.677157469579	504.83503316799
1	6698	338361.364697652336	813.51715305369
1	6704	338604.50058649422	258.77465516615
1	6729	339488.626054226316	108.95461555458
1	6740	339763.413294240653	155.84053686822
1	6745	340102.88826175743	363.6197041628
1	6754	340473.737546004645	289.15059526144
1	6774	341174.604300560618	102.23552443304
1	6838	343120.040186356008	145.72889774095
1	6860	344332.730725893572	60.857850453314
1	6884	345071.337980221132	216.58884964342
1	6896	346015.523675350449	82.703540355147
1	6910	346332.052763412991	32.927749391815
1	6923	346490.87001972949	0.228166193718
1	6957	348838.776095509589	242.14002242462
1	6972	349786.849197280628	4.120780639045
1	6980	350490.190780578349	0
1	7005	351321.588979859842	0
1	7031	352354.849341808343	0
1	7040	353452.204818427994	0
1	7048	353576.845073297324	0
1	7079	355949.867017604353	1158.7324278238
1	7084	356229.822285776046	672.63126005015
1	7101	356753.797022578563	255.31630803725
1	7109	356899.724653106475	344.59946318164
1	7130	357358.368356511562	6.448071759383
1	7167	359894.715764059549	0
1	7176	360476.030143650986	397.89076318279
1	7202	362552.470157615776	0
1	7223	363970.709234951831	861.84826928818
1	7228	364046.001225202871	738.665353635
1	7236	364252.730704265571	0
1	7284	366936.173171769488	977.2698565089
1	7289	367207.738692993705	1201.2803225864
1	7297	367259.112502173283	970.7291700005
1	7302	367392.869792302375	693.47474002771
1	7338	369029.704357268853	204.76114825071
1	7356	369899.303594158139	774.91752826082
1	7367	370184.749061213901	665.89416899624
1	7373	370412.680375289911	794.49385124046
1	7381	370863.791551472761	747.39556367183
1	7386	370981.864510833964	407.68352161258
1	7403	371663.497582901483	298.54737025843
1	7437	373929.852738298846	841.93655469991
1	7442	373937.951291140862	666.54001814521
1	7450	374106.542065092203	389.00703799609
1	7455	374142.26308581419	61.916468175309
1	7489	375234.949121583599	0
1	7501	375978.361424886863	421.14908291837
1	7543	377922.990878380999	358.08489635663
1	7549	378042.975073488256	326.89488684611
1	7607	383154.886344845902	2020.420085601
1	7622	384145.853117133382	2804.6740788517
1	7637	385266.665660603813	3609.5314732859
1	7651	385653.136549668804	2634.949291205
1	7657	385983.542582715405	2450.7822730403
1	7662	386044.290220354949	2364.2930726801
1	7667	386202.897459323402	2414.8290913928
1	7676	386857.081218329132	2605.7980501863
1	7684	387245.291884861437	2744.9270182657
1	7696	387630.236571689169	2356.8369128273
1	7704	387667.430548921024	2241.5046640022
1	7709	387996.238610939753	2452.6025257037
1	7720	388240.369771856946	1190.2908917624
1	7732	388468.599168849301	1164.817424507
1	7764	389815.274187268701	584.19116097272
1	7773	390312.382906865909	1024.611587211
1	7781	390471.033132680713	1081.8457506369
1	7786	390486.351836260557	335.39034877792
1	7794	390645.074618082719	314.30351341691
1	7825	391706.112900023946	247.46656565135
1	7837	391997.120941554655	267.3574883754
1	7852	392625.134412040639	605.63381155594
1	7857	392702.8016664361	392.40108553129
1	7898	393882.966782795325	15.320540728981
1	7961	397137.049942597305	379.96058137906
1	7976	398113.855168272439	1060.9221409954
1	7985	398755.104270921588	1483.3829134465
1	7990	398814.45093330828	1491.3075529389
1	7998	398955.529871452235	848.27956048715
1	8003	399170.950969389873	473.39971199778
1	8008	399283.171080373136	421.15305040257
1	8074	401492.43653206867	203.50157798285
1	8094	402343.669133759074	468.04072458771
1	8105	402597.871651239598	493.30749610124
1	8113	402726.192513546797	309.89581049592
1	8119	402929.148256139867	491.09249915515
1	8124	403211.988517719102	495.65155137876
1	8152	404534.364563107244	123.07166594763
1	8161	404637.660138370117	22.150294182322
1	8188	405308.432201562465	412.11784449388
1	8197	405445.693733077351	497.40450436672
1	8211	405956.440168264693	654.64222472339
1	8219	406117.815162789329	561.79596515627
1	8224	406124.564660102579	497.9144458995
1	8235	406171.75717244782	236.4425459897
1	8246	406207.687005360577	191.77999138111
1	8269	406589.441786727258	278.57731601462
1	8300	408151.372717503767	516.16159124457
1	8328	409090.702761031226	253.92676025648
1	8336	409296.252251372195	328.31803605685
1	8344	409560.88578593989	351.52875047305
1	8397	412708.542824725152	645.80806006373
1	8417	413679.848329947927	773.29007090609
1	8457	415824.578841899766	856.89341577045
1	8462	415869.065944267803	66.48292323631
1	8470	415939.826327462045	13.846805135904
1	8478	416147.333124425687	203.46123962814
1	8497	416528.727160196282	303.80316351023
1	8509	417011.548865626848	389.65111713043
1	8518	418216.944056276072	1464.0203394146
1	8527	418312.663122012699	708.74798202325
1	8535	418655.129403962196	357.47047138796
1	8540	418727.388834648929	341.15003478132
1	8560	419300.410250756878	407.89043344828
1	8568	419761.422361268794	787.89927657367
1	8611	421355.084226914447	1004.0930114167
1	8620	422020.832992251516	564.25822718767
1	8652	423171.67219202461	37.686826407604
1	8703	424797.283417571897	304.17608091928
1	8732	426132.683079416452	1027.7919774127
1	8741	426947.864150104478	1096.1355976268
1	8770	428278.113956149964	6.166069918076
1	8797	430974.702963798342	174.13054825947
1	8814	431761.963324927526	340.17976363056
1	8823	432043.043680775499	188.56300842251
1	8870	433620.866744231509	560.57897497153
1	8875	433692.506169086881	492.57580088489
1	8881	433858.734572921186	397.40477301833
1	8886	434130.423638019358	540.95570315867
1	8894	434266.992753839756	39.502201935908
1	8909	434884.953317360722	280.8149493532
1	8917	435044.668009687392	7.729293130185
1	8928	435308.453369780729	251.43222391409
1	8940	435977.978000937166	870.77056051839
1	8945	436272.046572000064	623.75113766914
1	8954	436863.648768938538	1056.6897875721
1	8962	437105.081331717504	134.86228036497
1	9019	438479.342797218734	401.34834744603
1	9024	438622.725544886882	515.29245662793
1	9047	439619.266336800391	650.61590942673
1	9056	439914.914596165796	798.21942843088
1	9062	440621.05228408402	1458.5177266536
1	9067	440750.052860328302	909.42499116693
1	9086	441202.254146367984	132.72924587305
1	9113	442356.987827987561	898.51679620223
1	9121	442686.848172066343	566.73844783035
1	9135	443019.09905204872	811.91343754567
1	9140	443086.628918895172	76.90487286059
1	9152	443324.635829109812	80.584286142347
1	9167	444453.759145315265	864.71567116971
1	9172	444457.739816208124	453.42226679158
1	9251	447864.415177281583	420.45530866969
1	9270	448516.258500796694	4.156604638181
1	9288	448906.125916205203	10.512894959339
1	9338	451039.73894744419	0
1	9368	454392.014780325971	2627.1374187302
1	9373	454827.782755801427	2969.6397159221
1	9382	455642.398735027334	2436.4635005821
1	9390	455821.671002231075	2146.0513716929
1	9395	455958.802000433873	2087.4111788237
1	9400	455964.60026386934	1807.8088432869
1	9414	456610.997885974905	100.08044932235
1	9444	457441.135499616448	437.9244731198
1	9456	458242.201104298753	773.99563029123
1	9467	458521.79303253831	552.11567172719
1	9473	458637.839183432632	391.35459888715
1	9484	458736.890989676798	49.341570632881
1	9523	460155.522507936674	176.68698992643
1	9537	460422.737871260249	58.354550169367
1	9584	463474.795706881424	0
1	9593	463914.178397155049	133.24766989585
1	9601	464085.034745970147	117.95036569432
1	9609	464466.108228916806	0
1	9642	466373.852580244052	795.32289375827
1	9655	466636.549588985509	237.23821027715
1	9670	467805.645661211365	1094.1937379652
1	9676	468284.674411423048	1446.1930521052
1	9684	468486.108034056068	41.2352207115
1	9702	468833.09263092225	0
1	9737	470717.2573708541	0
1	9756	471343.865987844015	42.824823827998
1	9773	472261.6479305121	161.6221036784
1	9785	472697.235342834572	349.00630677674
1	9790	472887.051529769477	455.47665938874
1	9828	473725.592192939743	0
1	9856	476790.921809458807	0
1	9873	478258.531302506806	0
1	9882	478582.716703957243	2.94023619287
1	9917	481117.852129925826	0
1	9932	482548.636536648422	221.33999589682
1	9938	482602.112517167716	185.31352352435
1	9946	483208.655911090118	15.457451240827
1	9977	485149.862617337576	133.30015075138
1	9986	485315.457746170773	55.42960110155
1	10014	489403.389122720549	0
1	10023	489572.564254515051	0
1	10048	490786.555501082228	106.94901906471
1	10068	491879.855649284003	439.47889501005
1	10085	492633.246549985861	37.875726486243
1	10119	496938.366234783436	0
1	10128	497611.869732059383	120.69446439143
1	10146	499203.495645226233	0
1	10155	499761.961950324685	0
1	10163	500067.851167550601	0
1	10186	500843.036200375792	418.76137432474
1	10191	501122.776792234527	505.85309699041
1	10200	501545.764444070997	98.356029827693
1	10225	502563.454834412597	101.70811765849
1	10263	503694.004599742688	0
1	10272	504725.670604777929	0
1	10295	505439.984803094147	317.74118595053
1	10300	505596.114752156948	316.48678410485
1	10325	508600.035134716823	0
1	10334	509439.43934959402	0
1	10351	510048.746885614354	0
1	10368	511040.722330923149	0
1	10385	512336.701014797926	0
1	10405	513028.230290936292	1.372856925486
1	10413	513041.888854864209	3.809715516524
1	10421	513129.326426842635	11.806397966138
1	10438	513477.678728017268	21.401920397273
1	10449	514099.153332861907	331.40024050039
1	10458	514581.591994696265	522.81261942712
1	10469	514839.2836135793	67.098611560498
1	10478	515287.943521504504	213.88237120661
1	10517	517307.949612437579	1358.7929670384
1	10548	518506.807983578511	796.73426885659
1	10560	519436.877677735563	1637.5008464555
1	10575	520041.201412898384	1470.1229795811
1	10580	520084.949474336479	971.44528464859
1	10585	520215.600112226052	660.18496931344
1	10591	521008.35618839874	1386.8357085338
1	10657	523335.297402291409	442.14649023587
1	10671	524089.235948689143	0
1	10703	525802.387209807134	21.786079470461
1	10733	528884.193580918332	0
1	10748	529840.558719173286	668.38414207963
1	10753	529869.331114703394	264.68988759482
1	10758	529941.247586105207	144.85928247353
1	10766	530096.383070900106	0
1	10794	530854.524951019134	164.54372121477
1	10805	531139.577299494231	190.26646217521
1	10832	531904.086623220143	4.39467128412
1	10855	532829.522426270316	419.31413037519
1	10867	533866.061971843143	760.845152215
1	10872	533890.149598093791	184.57881626502
1	10881	534682.242812943276	86.77206048509
1	10901	535594.022815952767	57.321827254581
1	10910	536354.616003020358	140.44274363203
1	10927	537123.960935095995	6.250110021381
1	10951	537702.945190881185	0
1	10991	539484.69420730539	627.19004544814
1	10996	539557.968676871524	332.40312318483
1	11004	539763.399259370569	536.7191278716
1	11009	539772.983487893388	45.749817533421
1	11026	540118.287132834914	65.000641540123
1	11070	541687.549471750865	104.89479209239
1	11079	542418.270014619421	742.08700271707
1	11088	542767.109945923026	860.89630996497
1	11096	543141.862817346078	644.86741196127
1	11104	543438.396818664328	550.12252146198
1	11126	543803.099162065577	0
1	11134	543884.441174408327	21.398235697162
1	11167	544610.672822819323	0
1	11192	545455.788811414503	0
1	11212	546622.03667745634	421.87245887465
1	11223	546831.859174497565	9.286569646457
1	11232	546910.114243531443	18.506788499678
1	11253	548476.72859251186	1394.7271145284
1	11262	548716.495568263188	1205.6396685869
1	11275	550819.049201187962	2819.3929053865
1	11280	550971.584864679633	1130.1011818784
1	11298	551931.849329665636	303.39000135481
1	11336	553010.446342642722	348.77914195255
1	11363	553992.468276054738	464.10117449661
1	11385	554714.956858665521	139.42983630304
1	11402	555567.09486397713	317.58121098032
1	11407	555813.496591432865	527.28788661014
1	11457	560038.927303916597	0
1	11466	560915.946867020574	0
1	11495	565189.507305015282	0
1	11504	565975.476778357335	0
1	11512	566288.87547639583	0
1	11529	568344.612518326564	1563.6092792957
1	11537	568774.873867393654	1535.5352202601
1	11552	569586.899665023562	941.77057546786
1	11560	569919.906490217525	221.382485424
1	11583	571082.686947958735	294.656322965
1	11600	572052.928947544784	440.01990233514
1	11605	572061.501227492948	282.47880123193
1	11623	572908.053047195331	768.78794340694
1	11631	573221.941268729371	541.67761021138
1	11639	573387.062577619787	498.66322101958
1	11654	574270.988803709766	1347.6943865352
1	11660	574380.138026497703	892.5174664558
1	11682	576164.31631882165	1997.3352085049
1	11687	576300.686036953303	1721.2120551555
1	11704	576971.461618762248	227.03734350564
1	11709	577046.211280536556	203.00980615531
1	11724	578129.927710382274	880.63596471197
1	11768	580048.39174912287	180.55685181879
1	11780	580962.541950473256	496.526854111
1	11826	584003.771975256126	782.85145271833
1	11831	584086.972237161766	441.77151200017
1	11853	585332.474494827118	270.4404647558
1	11914	588139.683516905154	24.517360320457
1	11941	590719.637427431033	0
1	11951	592418.960815736779	0
1	11969	594353.907025065749	0
1	11977	594688.569588125891	245.99627265692
1	11997	595184.515665649763	15.579426490622
1	12011	596094.239897443273	0
1	12027	596410.321476532979	59.609580863878
1	12037	598106.818636356479	0
1	12049	598543.673958312026	328.93897093329
1	12071	599332.406557241952	0
1	12113	601513.37410206428	0
1	12122	601802.783318203846	0
1	12130	601953.881545069401	4.794419382619
1	12148	602938.316191142127	927.08500128247
1	12156	603097.484532324211	189.96332389084
1	12180	603764.973184391956	63.18476122321
1	12189	604894.673111187779	0
1	12214	605777.447250407014	0
1	12240	607460.352112363036	0
1	12249	607867.832044035326	147.55097733331
1	12260	608218.803720914557	291.11313277622
1	12285	609141.147253104066	395.95379200658
1	12297	609806.891804389954	779.62674219896
1	12305	610042.76109906867	292.35518392297
1	12320	610994.21983944479	645.79912975943
1	12325	611107.207262743516	604.14655865408
1	12374	612018.874187803541	96.624835623563
1	12390	612747.78650127502	115.70186443784
1	12409	614974.662147133887	0
1	12421	618428.44070774101	0
1	12454	619444.823492234522	0
1	12463	619758.926859512756	0
1	12471	620190.129704251399	0
1	12485	620443.325701612981	240.38699366282
1	12497	621010.37375056047	704.28872462324
1	12502	621018.933772382769	409.1138163501
1	12537	622236.925156475902	0.729141309447
1	12545	622262.881989036505	7.246069792209
1	12555	623250.645047729029	0
1	12582	626119.707112907559	0
1	12591	626742.184029359441	0
1	12608	627809.144471730943	305.0164902353
1	12633	628813.977132553096	0
1	12641	629037.330911068348	24.810411794534
1	12659	629897.042940074532	36.163976598217
1	12682	631194.075396286533	273.95409020276
1	12709	632279.321799358717	0
1	12727	633844.669754906597	0
1	12735	633870.621548714518	7.065720744326
1	12757	635164.493296969771	648.87793686527
1	12765	635375.971688994044	226.29169876101
1	12780	636386.872480947241	1102.7175441057
1	12785	636442.077806382741	596.77753106533
1	12793	636680.778454236005	753.07885431955
1	12799	637062.463695978608	1034.1366932846
1	12822	637733.852097364903	347.81258029567
1	12838	638460.186299542556	194.19765389823
1	12881	640101.426146231193	440.45374705636
1	12890	640398.242781360824	636.00680277879
1	12898	640555.482493580928	775.61584833517
1	12907	641664.980296672244	1392.3833751801
1	12912	641926.204773463823	1488.5629387876
1	12924	642478.471008972743	1042.7059633801
1	12929	642593.885347960032	171.27914802997
1	12959	643848.225372659432	917.62053614084
1	12964	644306.901407078942	894.83015266025
1	13005	645561.666875849813	248.38012625158
1	13024	646285.54371910574	441.07507897228
1	13030	646305.553648151594	445.29326618804
1	13060	647168.822936004704	279.82876322864
1	13083	647473.285179090376	86.191083890857
1	13094	647710.293952168225	172.06642347958
1	13128	649423.848018527887	233.98484509427
1	13136	649665.712851976442	22.124549367101
1	13168	650537.590894519459	102.79344109305
1	13205	652531.869469715012	0
1	13233	656531.537980199621	0
1	13242	656798.879418987876	0
1	13250	657312.621013807449	0
1	13268	657885.51314205115	518.46941666927
1	13273	657886.989051754323	506.81745872841
1	13281	658289.456706535973	700.92610236652
1	13293	658665.643476468794	1028.1281795239
1	13298	659076.822391888823	887.72519447517
1	13304	659198.228889574176	806.85355411295
1	13309	659283.817556287505	889.72587115406
1	13317	659318.491451641735	22.348547993483
1	13340	660143.604126022401	183.3805260566
1	13351	660423.348505490969	82.145615925819
1	13370	660819.314703060391	240.73828119769
1	13379	660895.623142551561	181.80813930743
1	13387	660988.9419024614	125.75775552134
1	13490	664523.932011735571	1043.0119942956
1	13495	664809.577382598919	511.96842142152
1	13506	665083.654611875661	613.08567682655
1	13511	665085.691571941793	182.41005675981
1	13517	665310.40117813179	286.80813281967
1	13542	666511.532780037346	586.37158254384
1	13559	667151.301539514974	552.54801754727
1	13567	667712.211465054831	112.80130670431
1	13593	668573.189179256984	72.89164961055
1	13605	669160.988308689366	114.86217759611
1	13610	669183.41554569019	119.90234846281
1	13630	669459.674778961749	91.482568007155
1	13635	669554.901572698369	172.89436440822
1	13643	669589.310656818888	23.92281498987
1	13657	670165.495694297945	491.71250294874
1	13676	670817.907348512345	33.479679351491
1	13691	671942.664998165424	856.83831631219
1	13696	671957.074587142924	637.02744470505
1	13725	673450.435988332426	804.85145098363
1	13779	675424.637215352858	83.256709003736
1	13832	677358.358887252214	38.51372528961
1	13840	677366.352408838649	15.745474742891
1	13845	677615.221099287979	249.43779798258
1	13884	679162.179336578566	257.80110230254
1	13892	679394.587754643747	219.88206543822
1	13909	680378.046695453648	0
1	13917	680538.041198512426	139.26235742816
1	13954	684177.939272861716	11.92198989928
1	13962	684713.800483826636	442.06627695732
1	13972	685941.309290154736	0
1	13984	686622.110920036923	492.73572426105
1	14008	687385.471180371412	179.46169246131
1	14014	687574.148869002557	334.81576731827
1	14040	689174.454023766263	0
1	14051	689420.50764018092	71.839983301116
1	14064	689851.714783619245	0
1	14096	691428.275691642401	314.16425294486
1	14125	694006.869725735283	0
1	14134	694632.417457969664	0
1	14151	695975.374317488609	0
1	14160	696416.538244333728	106.11723004355
1	14168	696832.491399566088	188.7141107943
1	14177	697002.943835991919	123.83217212371
1	14211	698319.177035592948	18.022234462884
1	14236	699580.167206168446	0
1	14245	700426.022375982195	0
1	14275	702878.660910539856	857.93135324122
1	14280	703256.540402876388	1231.7234741714
1	14289	703813.295483540268	0
1	14297	703841.654306234936	8.786381275805
1	14305	704456.982692411066	0
1	14364	706728.387057755106	0
1	14373	707267.985102953194	278.93391025957
1	14396	708276.100293963453	247.61434204116
1	14407	708837.775133695543	686.72364091835
1	14419	709534.167127386439	1371.2109506015
1	14428	710171.938580172441	1378.3646443718
1	14433	710457.556266392266	1038.6637198556
1	14458	711266.181536519048	89.512686552461
1	14480	712234.15552127578	257.05941007696
1	14489	712711.408744396186	390.34911791314
1	14500	712956.894476576662	165.75347857445
1	14508	713077.490317002222	195.80195590277
1	14520	713428.58874716697	388.45388954843
1	14552	714243.751604722389	186.0416469128
1	14582	715499.3743381972	0
1	14591	715987.999254011096	0
1	14619	717327.810617364389	1.932033925859
1	14642	719074.734748329384	825.54147486501
1	14651	719301.64068814621	0
1	14667	719994.542960249116	0
1	14684	720853.733982532575	0
1	14705	721617.335838311558	710.68456740774
1	14714	721955.551707074901	858.9915241661
1	14726	722924.140999095124	1809.6613548627
1	14731	723440.384937166266	1320.5116210091
1	14771	725608.009682989922	420.99040418867
1	14776	725745.875930929463	337.04385371408
1	14812	727310.906061572708	0
1	14821	727912.960800333967	388.27552359559
1	14829	728479.135613281743	293.34393403933
1	14847	729602.218476067585	10.19871507479
1	14881	731919.777635093016	0
1	14891	733314.92308410291	0
1	14926	735935.882407834038	0
1	14935	736978.885290931319	568.49271349526
1	14954	739389.650160036257	0
1	14966	742372.989868799393	0
1	14983	743674.423100145155	0
1	14991	743858.649296985333	116.45728686711
1	15000	744045.584409095112	0
1	15037	746005.919881838328	439.9946676607
1	15062	746831.969079874819	183.43182160649
1	15075	747227.976636270928	5.871359158997
1	15084	748128.318498423639	0
1	15093	748476.004755259641	121.8166479774
1	15104	748689.523123478325	193.05675395871
1	15128	750926.309862708323	0
1	15156	751922.256269204877	99.759092956462
1	15176	753033.230521520268	823.72457632546
1	15185	753450.932301340386	931.15555950983
1	15190	753478.417122009061	434.03059140173
1	15204	754377.246358238929	677.1154809605
1	15212	754499.43826083607	114.79121856869
1	15220	754664.428645662645	48.349419165496
1	15245	755511.901469054186	0
1	15262	756371.939400167358	171.60896466534
1	15302	758096.593355790761	267.1851346744
1	15322	759822.864846586509	0
1	15331	760367.821471957133	39.213381242131
1	15364	761569.194496671505	0
1	15384	762062.661381161612	107.97600418368
1	15397	762673.782669637657	0
1	15418	764256.211848183312	51.302223084937
1	15427	764631.85980960707	148.92581442468
1	15441	766006.573643913265	254.43622873724
1	15477	768988.901496970355	0
1	15485	769630.863653028751	0
1	15495	770878.280994541128	0
1	15513	771914.863111961743	754.54644628529
1	15522	772424.250052104665	1243.1742900141
1	15527	772616.232966209599	1053.242299615
1	15587	776562.89625425282	1187.7862916263
1	15596	777034.797989693494	1204.8474085446
1	15601	777132.681430235691	902.76307537211
1	15606	777339.786173009248	587.77423418406
1	15623	778285.756257146317	0
1	15632	778397.709541203041	0
1	15640	778574.359133876412	0
1	15699	781346.219024264024	0
1	15707	781676.282196687068	0
1	15716	782352.218864317192	0
1	15742	783640.541532787402	0
1	15760	785780.424256112713	0
1	15777	786766.552725992978	0
1	15794	787415.940982289653	0
1	15806	787979.317503590915	489.36697100603
1	15815	788622.965648061178	766.5126117229
1	15820	789168.051796073055	1028.5855767033
1	15847	791206.318748400403	0
1	15861	791895.576638841034	537.49275335638
1	15866	791905.493704089513	254.24394468292
1	15883	792261.744463301398	139.03927292525
1	15922	795162.545460325681	1886.0556280909
1	15928	795471.34236680593	796.6357549827
1	15949	796144.635040446313	16.242002536101
1	15990	797748.651069976696	0
1	16011	799406.140515297548	449.01519288086
1	16016	799542.104108744428	489.26051233869
1	16034	800980.048041206319	0
1	16043	802100.312427925649	0
1	16055	802399.987433152209	169.27029012544
1	16060	802507.266813146628	204.87835138968
1	16078	803451.321880174404	553.45075291532
1	16098	804203.06318871637	141.95311123224
1	16113	805370.383500944315	1229.6872708693
1	16118	805424.889087904767	646.71121015275
1	16123	805637.831312573998	399.73229797651
1	16165	807680.256164605766	1120.085957763
1	16170	807736.410486714993	1168.2270402584
1	16179	808342.735108900461	788.33288489178
1	16184	808504.719396971668	212.14348126597
1	16210	809844.013461919752	484.23686693511
[...]
7	14819	727912.960800333967	2
7	14827	728479.135613281743	3
7	14832	728520.460569965435	4
7	14835	728866.207618768832	3
7	14850	729816.662055198318	4
7	14852	730085.706879488911	3
7	14861	730889.82749650314	2
7	14869	731113.273744851491	1
7	14885	732216.273117825147	2
7	14894	733713.87355882662	3
7	14897	734485.632217931735	2
7	14906	735193.781815120354	1
7	14915	735554.879617508318	0
7	14933	736978.885290931319	1
7	14939	737192.877249809359	2
7	14942	738095.467757413383	1
7	14958	740150.138713789483	2
7	14968	742691.623304736691	1
7	14973	743183.994063559497	2
7	14989	743858.649296985333	3
7	14994	743859.155296960916	4
7	15002	744173.33226303585	3
7	15006	744194.237411207833	4
7	15010	744301.648323512069	3
7	15021	744825.064540117839	2
7	15027	745381.328988999735	1
7	15040	746050.212509991547	2
7	15044	746075.310221411175	1
7	15052	746255.977349856052	0
7	15065	747207.867516918034	1
7	15078	747228.445944801994	2
7	15091	748476.004755259641	3
7	15098	748609.429362191282	2
7	15102	748689.523123478325	3
7	15107	748788.603545367514	4
7	15114	748956.38148586279	3
7	15130	751111.263257174345	2
7	15134	751182.163569356765	3
7	15141	751656.692048328367	2
7	15147	751821.066089326632	1
7	15159	752195.820648206681	2
7	15166	752468.219656715244	1
7	15183	753450.932301340386	2
7	15188	753478.417122009061	3
7	15193	753567.329562974391	4
7	15210	754499.43826083607	5
7	15218	754664.428645662645	6
7	15223	754707.172797955301	7
7	15225	755042.94722184789	6
7	15234	755310.164170727533	5
7	15247	755528.15480086523	4
7	15251	755929.089248008214	5
7	15264	756407.967436515609	4
7	15267	756508.121952605514	3
7	15271	756636.377583145934	4
7	15275	756649.018472694841	3
7	15289	757662.927458388288	2
7	15293	757792.743088261057	1
7	15305	758487.923741779092	2
7	15329	760367.821471957133	3
7	15334	760813.127879215383	4
7	15336	760920.986474778728	3
7	15341	760988.05797241699	2
7	15353	761389.09761701251	1
7	15367	761578.069368457771	2
7	15369	761783.384815048035	1
7	15377	761967.476526621437	0
7	15387	762123.912903037449	1
7	15400	762705.002640453242	2
7	15404	763798.342738516472	1
7	15412	764248.045846611533	0
7	15425	764631.85980960707	1
7	15431	765671.657963215668	2
7	15444	766026.397768728327	3
7	15446	766030.983459252107	2
7	15455	766507.449180672447	1
7	15464	767686.129532175814	0
7	15480	769134.720312972665	1
7	15489	770125.999825627062	2
7	15507	771825.207650455746	1
7	15511	771914.863111961743	2
7	15515	772299.213641647083	1
7	15520	772424.250052104665	2
7	15525	772616.232966209599	3
7	15530	772727.287609339929	4
7	15543	773998.694850300108	3
7	15549	774140.31969436247	2
7	15552	774576.071802996582	1
7	15561	775113.619753388646	0
7	15594	777034.797989693494	1
7	15599	777132.681430235691	2
7	15604	777339.786173009248	3
7	15609	777388.998160570626	4
7	15612	777890.109948807165	3
7	15626	778297.351233439502	4
7	15635	778468.760996826259	5
7	15643	778629.000741373393	6
7	15645	778776.436527663893	5
7	15653	779076.210091564325	4
7	15662	779760.547568712807	3
7	15671	780210.677422885871	2
7	15676	780240.968210399131	1
7	15684	780723.948963999799	0
7	15702	781348.780700118904	1
7	15711	782138.258508548631	2
7	15719	782466.307169423752	3
7	15722	782621.752739208616	2
7	15727	782784.447123710805	1
7	15745	783916.325826498236	2
7	15747	783920.433217015194	1
7	15764	786133.347804458232	2
7	15766	786410.638650620979	1
7	15781	787058.20442508752	2
7	15783	787088.134559959235	1
7	15804	787979.317503590915	2
7	15813	788622.965648061178	3
7	15818	789168.051796073055	4
7	15823	789218.051121419753	5
7	15826	789874.300680600114	4
7	15835	790525.732331991855	3
7	15852	791544.071794441695	2
7	15859	791895.576638841034	3
7	15864	791905.493704089513	4
7	15868	791924.372996244125	3
7	15873	792090.675212333883	4
7	15886	792388.934475474396	5
7	15890	792454.01158096165	4
7	15893	792800.555669626881	3
7	15902	793249.966971667344	2
7	15908	793360.080055389064	1
7	15912	794132.717153604231	0
7	15926	795471.34236680593	1
7	15931	795625.500585665311	2
7	15935	795674.162760011307	1
7	15952	796189.075383235094	2
7	15967	796431.899308630907	1
7	15975	797154.542671803414	0
7	15994	798077.465243617081	1
7	15997	798952.90808975989	0
7	16014	799542.104108744428	1
7	16019	799755.996072848375	0
7	16023	800253.690144542722	1
7	16037	800980.105029171323	2
7	16053	802399.987433152209	3
7	16058	802507.266813146628	4
7	16062	802881.267782405348	3
7	16069	803347.119712089678	2
7	16072	803378.126861780301	1
7	16076	803451.321880174404	2
7	16081	803940.030279692973	3
7	16089	804106.929316605901	2
7	16100	804645.340232449586	1
7	16111	805370.383500944315	2
7	16116	805424.889087904767	3
7	16121	805637.831312573998	4
7	16125	805646.281726507494	3
7	16130	806219.564320085657	4
7	16139	806473.922019384305	3
7	16148	806581.078424481996	2
7	16152	806889.922084646178	1
7	16155	807392.410562436216	0
7	16168	807736.410486714993	1
7	16177	808342.735108900461	2
7	16182	808504.719396971668	3
7	16186	809020.686881160137	2
7	16191	809344.672628059627	3
7	16201	809597.527363674168	2
7	16213	810091.18586987056	1
7	16217	810320.117010093776	2
7	16222	810344.245421546133	3
7	16227	810377.345038531008	4
7	16236	810663.507461866042	3
7	16245	811041.542372465314	2
7	16248	811097.217664270139	1
7	16257	811444.231844673849	0
7	16267	811746.861680339163	1
7	16282	812899.879271089037	2
7	16286	813119.115237233683	1
7	16291	813520.504880323772	2
7	16296	813667.991478824419	3
7	16300	813744.546361788688	2
7	16304	814121.05996854667	3
7	16309	814553.314914626005	2
7	16326	815108.077330964505	3
7	16361	816717.944885669623	4
7	16381	817197.396485606631	3
7	16384	817216.642523655801	2
7	16390	817468.780076821034	1
7	16400	817737.143934717604	2
7	16416	817868.332256185197	3
7	16421	818345.070863178724	4
7	16428	818376.146632174246	3
7	16437	818518.254758190442	4
7	16442	818778.361971052831	3
7	16453	818982.577940708579	2
7	16457	819127.959974300635	3
7	16461	819417.251794076995	2
7	16465	819516.392131317171	1
7	16468	819683.821764380714	0
7	16491	821105.35197323564	1
7	16496	821324.105346620209	0
7	16514	822268.369278679388	1
7	16531	822465.158500694655	0
7	16538	822793.66143750117	1
7	16547	823468.101787401664	2
7	16552	823552.8727029364	3
7	16557	823752.82213853072	2
7	16569	824592.373757013698	1
7	16582	825654.737672176757	2
7	16593	826258.882306436927	3
7	16597	826277.145116907364	2
7	16602	826309.254274291915	3
7	16610	826899.227024265265	4
7	16615	826991.594506785801	5
7	16619	827050.060255795155	4
7	16632	827799.10353745247	5
7	16647	828073.221282175282	4
7	16669	828393.376426888179	5
7	16672	829074.175886860626	4
7	16680	829217.599701622146	3
7	16693	829490.511968808822	2
7	16696	829650.977490954137	1
7	16700	829678.806622804148	2
7	16718	829987.03874693556	1
7	16722	830038.446333905528	2
7	16735	830665.314213367063	1
7	16745	830785.196502729344	2
7	16753	831199.2645833419	3
7	16764	831368.017875741938	4
7	16769	831591.546105149938	3
7	16773	831745.084232237796	4
7	16778	832180.482909693239	5
7	16783	832386.661134923565	4
7	16786	832496.088476093653	3
7	16790	832668.751888879554	4
7	16807	833134.678407419438	3
7	16811	833233.663054325348	2
7	16820	833551.691950597046	3
7	16834	834208.889654155806	4
7	16847	835276.313118638625	3
7	16855	835657.560949470141	2
7	16870	836412.335874012741	3
7	16873	836752.206454616945	2
7	16881	837119.807983954034	1
7	16896	837483.121699858434	2
7	16900	839719.04464543922	1
7	16908	839843.614841868908	0
7	16918	840137.456137142626	1
7	16931	840332.056709541657	2
7	16934	841012.21248246989	1
7	16948	841276.927543755188	2
7	16951	842060.883131989634	1
7	16967	844218.520261966122	2
7	16970	844486.81472754811	1
7	16985	845530.575578875706	2
7	16993	846566.902792372908	1
7	16997	846764.952124252816	2
7	17005	847101.436100560659	1
7	17019	847657.177989879301	2
7	17031	848464.540369242887	3
7	17043	848984.050036655521	4
7	17048	849227.273818393684	5
7	17053	849324.906071781019	6
7	17056	849625.323973715987	5
7	17064	849967.603816088295	4
7	17069	849975.784750498168	3
7	17079	850413.798964383625	2
7	17101	851492.738827098593	3
7	17106	851568.68619962069	4
7	17111	851584.334372599284	5
7	17116	851653.565144107104	6
7	17120	851732.888025095159	5
7	17124	852162.149149910404	4
7	17127	852237.482385953062	3
7	17131	852266.829786335488	4
7	17136	852420.563825735319	5
7	17140	852446.715544800493	4
7	17143	852469.772780846754	3
7	17146	852496.911389472414	2
7	17166	853436.714408111449	1
7	17174	853807.099590155755	2
7	17178	854492.054966610081	1
7	17182	854586.430734599275	2
7	17188	854784.323050431144	3
7	17192	854973.367752770234	2
7	17200	855240.060699922986	1
7	17214	855737.123192841437	0
7	17247	857157.676415708612	1
7	17275	858308.903027102992	2
7	17280	858527.944795843528	3
7	17282	858843.73200485873	2
7	17288	858928.766456781645	1
7	17299	859411.00237966886	0
7	17319	862101.067008830344	1
7	17324	862210.763141779727	2
7	17327	862397.908020858238	1
7	17348	863169.476389729754	2
7	17353	863216.928637272006	3
7	17358	863286.25243567143	4
7	17360	863462.6160723087	3
7	17365	863670.691747478249	2
7	17377	863858.634219299375	3
7	17385	864791.936872101295	2
7	17407	866460.813668655919	3
7	17412	866531.651302465106	4
7	17416	866535.593480519898	3
7	17421	866686.69716427269	4
7	17428	866812.089260959213	3
7	17446	867528.47244593128	4
7	17450	868043.316381553874	3
7	17458	868451.785561705877	4
7	17463	868477.769903148789	5
7	17471	869229.483670349886	4
7	17474	869560.869609384955	3
7	17483	869779.547643993892	4
7	17502	870054.685747200988	5
7	17504	870095.93902796981	4
7	17512	870554.602102436603	3
7	17521	871000.74558273061	2
7	17526	871050.901060449065	1
7	17543	871458.545887473193	2
7	17545	871561.678416061049	1
7	17562	873711.033614844817	2
7	17570	873931.36367018008	3
7	17572	874054.101629429131	2
7	17589	874734.838948055179	1
7	17592	874875.532842015636	0
7	17596	874895.259621639402	1
7	17602	875210.718383027882	2
7	17606	875217.482749754248	1
7	17623	876059.531267910015	0
7	17640	877566.339701965375	1
7	17646	877834.363574798217	2
7	17651	878066.136417730265	3
7	17655	878541.505700384487	2
7	17663	879009.693072470074	3
7	17668	879032.569455507055	4
7	17673	879116.159442499788	5
7	17678	879543.775485614229	4
7	17689	879922.647008394838	3
7	17698	880006.432890451526	4
7	17716	880780.09419223154	3
7	17731	881647.266763810585	4
7	17733	881682.493199271458	3
7	17741	882010.448241590161	2
7	17756	882446.391518214608	3
7	17759	883033.767827968355	2
7	17773	883250.831429733208	3
7	17775	883359.269128700113	2
7	17783	883478.989326044865	1
7	17791	883673.879483122428	0
7	17799	883773.553624715421	1
7	17804	883963.225864963997	2
7	17808	884041.048481110963	1
7	17830	884526.359889277265	2
7	17839	885418.644711863316	3
7	17849	887324.745293796448	2
7	17853	887615.121466162537	3
7	17857	887651.779463480187	2
7	17869	888054.074444309341	1
7	17884	889399.432744498352	2
7	17892	889634.227452760263	3
7	17896	890650.897280647141	2
7	17911	891712.260604823107	3
7	17913	891878.98107802136	2
7	17921	892063.964232600207	1
7	17936	892571.774581411457	2
7	17938	892651.172738467769	1
7	17953	893220.929586220883	2
7	17962	894219.795454660871	3
7	17971	895065.458623694223	4
7	17980	896005.056623737045	5
7	17987	896400.090963286008	4
7	17992	896601.680423889533	5
7	17999	897084.84359854647	4
7	18008	897704.419915113708	3
7	18015	898315.642584771913	2
7	18018	898348.540555415357	1
7	18030	899064.526225292224	2
7	18035	899132.49941819539	3
7	18041	899162.864926877524	4
7	18059	900481.968708860168	3
7	18064	900517.49747442627	2
7	18087	901871.398015284497	3
7	18092	902271.075677173718	4
7	18096	902358.160432815618	3
7	18099	902379.938844244126	2
7	18102	902500.516461160065	1
7	18107	903236.145181404135	2
7	18112	903425.890726953453	3
7	18116	903426.600818388464	2
7	18151	905501.873950042191	3
7	18153	905581.215112129381	2
7	18161	905840.521547237267	1
7	18169	905956.947578140273	0
7	18188	907324.952631965168	1
7	18193	907370.61861674436	2
7	18195	907611.378236890114	1
7	18209	908332.563924494116	0
7	18213	908472.484298107109	1
7	18229	910689.200051171575	2
7	18239	912102.233469739161	3
7	18247	912404.831578322334	4
7	18249	912434.288507635851	3
7	18264	912956.531779469646	4
7	18272	913168.1708618488	5
7	18274	913377.165606665834	4
7	18283	913967.253629769487	3
7	18291	914194.702676079662	2
7	18305	914620.838696748869	1
7	18309	914693.865071748939	2
7	18322	915659.026224714638	1
7	18325	915834.57140039307	0
7	18329	915894.558193242895	1
7	18347	916768.645304981188	0
7	18358	917276.801972189545	1
7	18363	917810.673655459385	2
7	18367	917885.240160445468	1
7	18372	918275.456921194143	2
7	18385	919086.521820721025	1
7	18400	919953.219530463747	2
7	18402	920235.163819548517	1
7	18416	920525.074641478169	2
7	18419	920667.531590737855	1
7	18427	921132.151747968818	0
7	18442	921912.051419559506	1
7	18451	922502.858407733469	2
7	18453	923095.550406351591	1
7	18468	923597.439859147344	2
7	18470	923611.200994991974	1
7	18478	923960.861615345303	0
7	18493	924317.481390315254	1
7	18501	924943.429310348497	0
7	18505	924946.250065206747	1
7	18522	926046.897697592535	2
7	18527	926195.496990715138	3
7	18529	926214.730280796267	2
7	18538	926597.752422538182	1
7	18551	927849.935302124332	2
7	18556	927947.999803836128	3
7	18560	927948.037051255094	2
7	18579	929665.897394247869	3
7	18581	929952.446139477461	2
7	18595	930534.118817441064	1
7	18600	930893.452526637658	2
7	18608	932372.553755585216	1
7	18620	933286.4075794167	0
7	18630	933645.997678797317	1
7	18635	933761.07099074894	2
7	18650	934292.539240344953	1
7	18654	934346.781108177574	0
7	18658	934585.867507675087	1
7	18665	934987.633189398449	0
7	18670	935325.224888094156	1
7	18674	935375.098753965283	0
7	18678	935648.291658889761	1
7	18691	935991.290806025448	2
7	18715	936718.616228863606	3
7	18722	936844.411150304914	2
7	18729	937031.332480502703	1
7	18736	937585.926193868273	2
7	18741	938050.28350674346	1
7	18745	938413.482534889545	2
7	18757	939311.83691555373	3
7	18763	939510.001320657152	4
7	18767	939521.828950622266	3
7	18770	939603.515761644733	2
7	18773	940065.359898845976	1
7	18781	940608.51617611822	2
7	18790	941206.5352892664	3
7	18795	941223.35986839558	4
7	18807	941912.43469113469	3
7	18817	942424.155649687595	4
7	18821	942534.710861364778	3
7	18835	943116.956722957589	2
7	18846	943566.600640394778	1
7	18855	943702.097797875067	2
7	18870	944558.336821916199	1
7	18874	944682.33280862621	0
7	18906	948889.110382004627	1
7	18908	949111.874938443582	0
7	18927	953307.333812172712	1
7	18930	954466.769770854333	0
7	18945	955477.652191301598	1
7	18954	956517.090115410752	2
7	18962	956548.00729775633	3
7	18965	957221.35273130848	2
7	18970	957323.764629006453	1
7	18973	957427.386253478122	0
7	18991	957885.145419471089	1
7	19004	958093.569958228022	2
7	19007	958400.100333346456	1
7	19022	959766.797273233867	2
7	19032	961555.164437986163	3
7	19034	961656.649069219705	2
7	19039	961693.155007466748	1
7	19052	962856.500874377466	0
7	19066	963278.466134896421	1
7	19075	963542.899054939919	2
7	19084	964657.843905298504	3
7	19087	965743.989083922914	2
7	19104	966215.766328179402	1
7	19111	966645.829132597332	2
7	19116	966811.301429065069	3
7	19120	966849.467789935334	2
7	19125	966912.165523694234	3
7	19132	967126.111724144553	2
7	19144	968193.055354867346	1
7	19152	968699.67918409805	2
7	19157	969934.879801076228	1
7	19161	970389.371008002838	0
7	19166	971232.531103661482	1
7	19171	971326.326494407013	2
7	19208	972469.326632120552	3
7	19216	972561.235492508139	4
7	19221	972726.35566303811	5
7	19223	972857.103536309252	4
7	19232	972901.126305813957	3
7	19235	972925.33829366541	2
7	19244	973539.679184945323	3
7	19248	973610.956940945486	2
7	19257	974361.344499423753	1
7	19275	976059.219319415997	0
7	19291	977558.028594808751	1
7	19293	977735.161381589075	0
7	19308	978772.715878583811	1
7	19316	979050.055177907307	0
7	19320	979199.01771255022	1
7	19325	979887.997310709235	0
7	19338	980960.632520296824	1
7	19347	982916.018091437475	0
7	19361	983002.719374378096	1
7	19371	984720.464026313727	2
7	19373	984848.064411940017	1
7	19382	985039.274314975154	0
7	19400	985809.744365639027	1
7	19405	985817.350293748081	2
7	19407	986141.28552332249	1
7	19416	986695.940168153863	0
7	19432	988742.46510954346	1
7	19437	991245.795970339059	0
7	19451	991677.371947283381	1
7	19453	991731.895890847834	0
7	19473	993962.170666205801	1
7	19478	994152.901241865935	2
7	19490	994665.828441173471	3
7	19498	994784.879077775241	4
7	19503	995087.022456982636	5
7	19506	995178.767211693378	4
7	19511	995196.531384842301	3
7	19514	995212.112609594066	2
7	19527	995500.031337388648	1
7	19548	996092.572204749722	2
7	19553	996231.383414596068	3
7	19556	997566.820984877818	2
7	19565	997810.527509485893	1
7	19574	997886.831285333774	2
7	19581	997985.482834953483	1
7	19596	999048.494821268804	2
7	19605	999790.094324477475	3
7	19613	999867.946494631178	4
7	19615	1000284.244653751358	3
7	19631	1001392.386086421778	4
7	19633	1001499.072523208169	3
7	19650	1001816.696425343865	4
7	19655	1002091.007674370382	3
7	19658	1002141.222444933062	2
7	19661	1002249.155515032221	1
7	19665	1002584.445030326007	2
7	19692	1003194.036992078248	3
7	19696	1003241.906861054614	2
7	19707	1003737.403801238149	3
7	19712	1003840.727675455789	4
7	19716	1003871.174745379713	3
7	19719	1004267.425909274838	2
7	19723	1004358.372246827742	3
7	19749	1005105.556714194186	2
7	19754	1005493.023086815328	3
7	19759	1005513.263981025335	4
7	19763	1005618.373998419974	3
7	19780	1005963.190272104461	4
7	19782	1005968.547068067914	3
7	19795	1006225.072578979908	2
7	19806	1007029.967739917397	3
7	19811	1007087.820782649976	4
7	19816	1007221.456389532475	3
7	19820	1007333.519334710862	4
7	19837	1008407.612448662537	5
7	19842	1008414.335910846265	6
7	19846	1008509.547243324822	5
7	19854	1008859.581739385594	4
7	19866	1009348.160199866633	3
7	19872	1009458.732477127861	2
7	19881	1009704.414740103591	3
7	19886	1009748.665978469643	2
7	19890	1010307.311404021771	3
7	19894	1010517.671174177369	2
7	19898	1010837.575435831476	1
7	19916	1011625.556832256494	2
7	19932	1012348.544255244259	1
7	19939	1012463.187695280872	2
7	19944	1012597.283345780809	3
7	19948	1013010.647363125956	2
7	19953	1013301.396403864928	3
7	19975	1013969.756892471886	2
7	19993	1014480.84405700064	3
7	19998	1014550.327196162542	4
7	20000	1014652.808798907831	3
7	20005	1014719.458294385513	2
7	20023	1015093.787301873144	3
7	20025	1015479.182872175393	2
7	20043	1015932.907414831385	3
7	20047	1015957.617117497841	2
7	20051	1016114.755906795035	3
7	20059	1017129.729143020823	2
7	20077	1017624.951220150959	3
7	20091	1018098.328106354436	4
7	20096	1018185.040084230257	5
7	20102	1018555.523432384718	6
7	20107	1018892.269130969465	7
7	20109	1019028.990615235028	6
7	20118	1019684.058111264881	5
7	20127	1020106.331583038443	4
7	20140	1020830.566710271198	3
7	20145	1021169.678812191382	4
7	20153	1021818.362857037237	3
7	20167	1022726.210403488359	2
7	20171	1023212.733821641681	3
7	20179	1023846.061121926843	2
7	20194	1024312.375231917504	3
7	20196	1024357.628859995662	2
7	20201	1024607.711125129964	1
7	20209	1024627.03563551393	0
7	20227	1025175.080445167459	1
7	20236	1026164.546223397512	2
7	20244	1026233.442904091643	3
7	20252	1026436.644446472811	4
7	20254	1026437.797601390191	3
7	20262	1026489.057765614204	2
7	20278	1027856.027754014558	3
7	20280	1027995.675685372283	2
7	20289	1028715.377358223665	1
7	20298	1029001.463216309787	2
7	20311	1029606.298720916753	1
7	20315	1029779.47162237826	2
7	20324	1031651.294447421492	1
7	20338	1031969.948466531932	2
7	20349	1032216.744952757784	1
7	20353	1032464.093433584974	2
7	20357	1032474.408437849952	1
7	20364	1033424.299300966012	0
7	20372	1034523.78751407273	1
7	20384	1035254.482914690912	2
7	20388	1035294.289948351484	1
7	20393	1035512.194924227663	2
7	20401	1035646.421914825884	3
7	20409	1035789.678555720942	4
7	20413	1035885.024884717353	3
7	20420	1036135.951439917967	4
7	20426	1036331.521215329602	5
7	20431	1036468.401610550031	6
7	20435	1036483.677595185044	5
7	20452	1036677.572500295283	6
7	20456	1036695.977455801236	5
7	20459	1036727.831049559233	4
