version 2
run QueueMeasurement-65-20170105-15:38:30-5069
attr configname QueueMeasurement
attr datetime 20170105-15:38:30
attr experiment QueueMeasurement
attr inifile queueStudy.ini
attr iterationvars ""
attr iterationvars2 $repetition=65
attr measurement ""
attr network SimNetwork
attr processid 5069
attr repetition 65
attr replication #65
attr resultdir results
attr runnumber 65
attr seedset 65
param SimNetwork.a.parkingLot.parkingDelay "truncnormal(45min, 5 min)"
param SimNetwork.a.runway.landingTime "truncnormal(5min, 0.5min)"
param SimNetwork.a.runway.takeoffTime "truncnormal(5min, 0.5min)"
param SimNetwork.a.runway.throughputCheckInterval 33.333min
param SimNetwork.wg.interArrivalTime exponential(33.333min)

vector 0  SimNetwork.wg  responseTime:vector  ETV
attr source  responseTimeSignal
vector 5  SimNetwork.a.runway  landedThroughput:vector  ETV
attr source  landedThroughputSignal
vector 6  SimNetwork.a.runway  tookoffThroughput:vector  ETV
attr source  tookoffThroughputSignal
vector 2  SimNetwork.a.landingQueue  queueLength:vector  ETV
attr source  queueLengthSignal
vector 1  SimNetwork.a.landingQueue  queueTime:vector  ETV
attr source  queueTimeSignal
vector 7  SimNetwork.a.parkingLot  parkingOccupancy:vector  ETV
attr source  parkingOccupancy
vector 4  SimNetwork.a.takeoffQueue  queueLength:vector  ETV
attr source  queueLengthSignal
vector 3  SimNetwork.a.takeoffQueue  queueTime:vector  ETV
attr source  queueTimeSignal
0	650	86438.855669699597	4508.960034722
0	678	94528.979297409205	11264.311919496
0	711	97042.82806310436	5601.2600569388
0	739	98905.991086370416	5751.1952682051
0	747	99258.851660792259	3135.6066269423
0	752	99521.591405217245	3806.7126847344
0	764	100858.572286865895	4491.2053245221
0	769	101112.009999611936	3712.4323810446
0	796	106542.595725039102	8864.7832119584
0	804	106899.292694300552	3917.5845299069
0	834	119442.164220645541	15950.126092174
0	843	121674.393935113745	5923.038198672
0	872	125568.940747332137	7459.6239777549
0	877	125871.391548336254	3879.1979836758
0	912	130094.301644541337	7492.1410100918
0	920	130972.053944170625	4404.5227248846
0	945	132631.488330841474	4604.6311531006
0	965	134163.135513235295	4594.5325513005
0	984	135514.401857384787	4467.0769452368
0	995	136142.647740720667	4236.4126989469
0	1011	137225.495199624016	4149.7207807434
0	1020	138587.053612946188	4728.924798795
0	1029	140144.924423950945	4657.983919545
0	1048	146725.9216812689	10410.33261186
0	1074	151975.508399032981	8588.8779632365
0	1100	154615.341835573485	5976.1225004834
0	1119	155767.78403643186	4426.9563087425
0	1125	156062.186619785724	4074.5203617972
0	1133	157719.679257747618	5257.4062920828
0	1162	166898.936708271583	12042.54187304
0	1179	169524.771822579883	5765.2104719463
0	1196	171543.301590098311	5434.8853529634
0	1213	173838.686130028702	5394.8611868641
0	1223	176112.909719459952	5866.6808604553
0	1257	180618.43912301205	8135.9511105825
0	1290	182543.303149501819	5344.0183399156
0	1306	183308.62128826983	3630.9306676804
0	1315	184060.644299938973	3441.4419826924
0	1323	184405.470170588438	4458.3732380611
0	1331	185006.649838649222	4073.8686016136
0	1339	185864.984289000221	3952.9891159274
0	1358	190066.798733101264	7320.2673439325
0	1392	195035.249857702574	8538.9032003442
0	1403	195358.837838005954	3968.6816492763
0	1408	195687.759128209277	3604.2223162064
0	1442	199374.733538383678	7091.4899783014
0	1451	201124.83033814399	5002.1796708955
0	1467	201836.892027975227	3890.5479682138
0	1485	204681.016182429222	5942.797812457
0	1497	206718.320633690999	5454.718283257
0	1522	209987.677387382135	7091.1254346924
0	1554	212673.967317968518	3586.7720956691
0	1575	213550.463531690929	7091.6311832877
0	1586	214165.338364343845	4395.5469859713
0	1603	216073.719901155538	5827.74866888
0	1614	216494.800035773731	4019.3002186226
0	1619	216778.329042195244	4234.2920264961
0	1628	218163.573983578109	4620.2717320758
0	1647	225348.456749935661	10930.950334714
0	1682	230913.568643125475	8492.2631396036
0	1690	231750.645896920169	4026.2770096897
0	1699	232497.30823802013	4050.0102430995
0	1729	238636.248319333077	3594.1963342055
0	1734	238940.535616019553	9867.8684661061
0	1760	242832.353240550501	7778.8556578449
0	1769	244516.679786366237	5238.1420444208
0	1786	247996.717436265409	7221.1989484285
0	1813	253933.836643054773	9280.7409600397
0	1839	256710.089009339764	5759.722107843
0	1850	257380.065812741163	4383.1751177318
0	1872	258640.849205782002	4648.7531314261
0	1884	260532.877096306415	5263.3089670589
0	1905	261658.098357787587	4487.6977605687
0	1917	263960.287983666899	5847.4867834587
0	1923	264298.560773719616	3937.9717218453
0	1948	267828.025264093491	6808.6829031108
0	1957	269795.722342132253	4696.2995158757
0	1975	273551.340720133367	6744.1492681162
0	2017	277939.019400109184	8093.6070547641
0	2026	278742.08438491528	4297.7794174401
0	2034	279769.881379389151	4371.5967148072
0	2043	280797.556055319949	4538.9139479537
0	2085	288392.678500252538	10977.104586946
0	2095	288939.872867780086	4471.6689268267
0	2103	289620.268305311826	4420.1182769007
0	2120	291906.994743564213	5423.6964843416
0	2130	294058.1321010934	5860.9840475721
0	2157	300853.447789935048	10204.81927212
0	2168	301789.983407754253	4209.4234623952
0	2223	305621.08666935233	6885.8909942474
0	2243	307150.948696430471	3298.9654092717
0	2251	307467.657461304714	5812.6903012971
0	2259	307751.590921558287	3682.2358953845
0	2268	308038.59636855421	4075.0402913874
0	2276	308326.395771745846	4202.0279124336
0	2281	308609.368540378009	4242.084990402
0	2308	314773.944326646705	9015.7620525808
0	2327	315878.777418376089	4635.9169370518
0	2349	317783.109888034887	5412.2550155659
0	2366	319332.826462750436	4517.2419764948
0	2375	320928.481846275385	5243.5234823014
0	2387	322120.851944208018	4917.7087940826
0	2412	325720.666132677286	7033.8643927579
0	2426	326240.577383896626	4360.9146935114
0	2435	329227.676790531951	6240.4297615277
0	2464	338921.555670174967	13228.367264843
0	2472	339665.515349440496	4108.1521849963
0	2515	344958.969350844405	8895.6659202442
0	2523	345623.938306711175	4325.2016392273
0	2540	346851.041611239537	4733.4732910665
0	2549	348006.871811268622	3950.8571928858
0	2563	349121.56145082847	4952.5570465485
0	2610	352624.173181014379	6777.627916334
0	2618	352937.839722349485	3839.1561825381
0	2626	353232.796988840005	4193.7789049404
0	2631	353512.660276010254	4217.2480782483
0	2640	354453.431811864495	4661.5942432405
0	2658	358682.979736329029	7758.0029003265
0	2695	362154.37684913699	6770.136636395
0	2708	362884.293341385788	4122.7473119834
0	2724	363866.282104919305	4261.4545282753
0	2749	365701.531362776254	4958.5334902575
0	2766	366723.133506219498	4789.3226200295
0	2785	367705.641567667585	4460.1347437152
0	2791	367996.596865290254	3675.3300249478
0	2805	369422.649898849051	4375.6239233664
0	2832	370576.850992713267	4715.387390475
0	2852	372235.482896492447	5186.9113883678
0	2868	372873.073942670822	3707.5017931452
0	2881	373470.538942763243	4287.4666166891
0	2890	374026.407090004804	4505.0413133336
0	2898	375821.610799160923	4864.8495617368
0	2907	376336.846824302264	4276.5090924384
0	2924	379610.046990571261	6975.2871563765
0	2943	384368.72857991046	7867.5541460999
0	2961	388237.759291649032	7204.8677366801
0	2997	396323.238562312021	11559.057378573
0	3021	397300.142058693438	4563.1329286201
0	3030	398940.243271033788	5561.81892721
0	3038	399557.810074959291	4292.539688472
0	3071	401019.676221734952	4584.1347667022
0	3088	403266.051900953587	6743.753663067
0	3099	403739.529532736995	3919.8438541077
0	3108	404046.728260026749	4184.5246637581
0	3121	404682.246501623854	4342.4446872042
0	3138	407384.185560022243	5987.5775250205
0	3155	409401.956108103517	5632.0698760669
0	3164	411946.46150349541	5435.9224830794
0	3186	417819.978717747206	9327.502743974
0	3220	420861.421534138735	6567.6210328228
0	3250	422119.538797358337	4492.7209821749
0	3258	423688.661853743346	4820.7866628669
0	3269	423966.762523846063	3195.8402366865
0	3275	424314.641093993664	4306.6884645494
0	3283	424633.221250533373	3604.4814080074
0	3309	428482.423655996022	6955.6418931736
0	3326	430050.878442249085	5080.8504577332
0	3335	432167.652931335949	5356.9847656082
0	3362	438779.656202904938	3081.0879633234
0	3370	439163.118874249937	10181.402981674
0	3388	442685.698327677696	6784.5510621591
0	3425	447603.066297034685	8255.0458087561
0	3430	447906.364369622445	3687.4893855367
0	3447	449890.452916852793	5636.6961058067
0	3475	451292.754059041188	5131.5855004988
0	3497	453647.405316153568	5492.4625113998
0	3506	454292.167010520841	3893.9112732885
0	3514	454633.500510904781	4118.3092304736
0	3522	455249.33571074528	4034.6970012819
0	3557	460312.244583335033	8136.8889243286
0	3569	462455.417300476416	5511.6933161993
0	3574	462742.108034219635	3348.3441134844
0	3600	467669.896522106128	7993.4999791435
0	3650	471091.375990363086	6627.1721165504
0	3670	472078.016785493178	5059.444021981
0	3686	472645.586331914827	4246.4375274455
0	3691	472962.528472210327	4613.8729169161
0	3702	473520.551830519115	4612.388028204
0	3707	473818.98466165493	4210.2236946349
0	3716	474801.827745904391	4898.0367936496
0	3724	475183.049620330987	3760.1351778843
0	3761	479395.732949979853	7444.7396105636
0	3766	479696.600381459833	4458.9738016407
0	3784	482048.154132425854	5778.7829703809
0	3792	483224.681476890847	4453.6328647488
0	3835	488576.518402965207	8500.3598434765
0	3854	489617.782092728765	4417.3922883771
0	3871	490272.592041297989	3929.8724686602
0	3876	490591.850818327695	3746.8859324258
0	3901	492263.161739665623	5317.606804563
0	3917	493278.041371580279	4248.8294095338
0	3929	494216.344503841593	3434.8777933165
0	3934	494528.952288740351	4993.5305310513
0	3942	495613.132660940092	4802.5087298828
0	3977	500576.089415881113	8148.54859607
0	3986	502734.928863176459	5421.1824128609
0	3994	503216.032367398694	3868.2592607732
0	4028	507269.09030040722	7316.2375140873
0	4036	507875.759217831745	4621.9567093745
0	4045	508885.721039133136	4023.8108461354
0	4074	512983.734592478274	7343.2264795626
0	4112	515132.364087345502	5541.4512734409
0	4121	516306.586204505081	4515.4908171799
0	4129	516824.082944588222	4094.2328242382
0	4137	517344.568310600175	4246.9500036033
0	4154	518067.210065366738	4458.3176473825
0	4163	520598.646354373227	5986.492505291
0	4189	524456.122576282755	7106.6921300987
0	4198	526027.903934940643	5006.753190979
0	4220	539287.804768742639	16220.062231127
0	4239	545207.916315650461	9274.8800837728
0	4257	549416.167507460471	7487.4919631893
0	4296	562786.538354311302	16849.429774685
0	4316	564172.041216388056	4614.4522218602
0	4329	564733.507961323697	3757.0010864303
0	4357	566711.951134037081	5569.6149389768
0	4370	567635.473955498007	4001.3296605789
0	4379	568359.680992961044	3096.6812245765
0	4387	568966.7507076564	4887.6403708397
0	4395	569664.53500885516	4003.6141256724
0	4448	573246.317363041933	3556.5784788814
0	4456	573560.577527698275	6861.3345427568
0	4461	573853.948063144564	3949.7204758168
0	4470	574527.959380139705	4125.497621741
0	4478	575407.265398636035	4186.0892490049
0	4505	580598.81566037945	8612.4836023888
0	4513	581575.531195582146	4133.9082386397
0	4549	589646.505832020026	11651.761496605
0	4558	590584.139282175005	4299.8784587906
0	4566	591723.273588390907	4325.6773028273
0	4601	596356.052607018191	8274.0606584881
0	4618	598574.734670807669	6252.0122140054
0	4626	599504.328128593471	4399.4132181088
0	4651	601479.442727916744	5748.038557537
0	4660	603356.403228949758	5754.9003934155
0	4669	604383.024374187859	4306.6677522696
0	4695	609797.070303235289	8924.674250375
0	4713	612002.618332363586	5900.3916806431
0	4745	613769.015059405582	4928.1242823898
0	4762	615816.325410565994	5513.4607469801
0	4771	616143.764662085894	3640.387264709
0	4782	616659.279829963363	3997.787787198
0	4795	617581.876951466017	4886.1802675502
0	4804	619680.894357261858	5911.6029148115
0	4824	626413.158261474803	9808.1076492426
0	4871	634382.23959312065	11085.239493086
0	4887	635011.849439754337	3839.370110384
0	4892	635352.829354270526	4094.4233884588
0	4909	636238.863086850906	4278.2106956148
0	4941	637772.080475255961	5261.1255460661
0	4950	638224.021172333043	4015.8231967097
0	4958	639385.543058402714	3699.051192253
0	4970	640192.315911894089	3569.3095039823
0	4978	640501.625076469659	3845.8789178546
0	5009	644280.864705752402	7373.9483672122
0	5017	645567.049153788705	5280.160674586
0	5026	647189.833301761101	4699.923615227
0	5078	654814.848217042997	11166.945189856
0	5086	655292.280008239178	3370.5889723993
0	5097	655918.726986393712	3693.747693789
0	5114	656653.623092350618	3520.3364096254
0	5119	656974.073685368433	3439.9244618455
0	5128	659332.613999940942	5550.3464420373
0	5170	663344.204437224435	7648.0382305726
0	5190	664490.90461259724	3623.0857786188
0	5201	664852.949528099375	5122.2007890089
0	5214	665464.690185818991	4301.8662610661
0	5228	667010.636183551973	5429.0451158093
0	5237	668400.616481150802	4701.8909227569
0	5245	669044.73010712988	4528.9242287609
0	5280	674754.386900719829	9475.2326478449
0	5288	675578.943314758905	3914.1457285801
0	5297	676746.565825526003	4669.6758673441
0	5331	681871.461683658633	8357.1437755206
0	5347	684143.221458538398	5750.7370991846
0	5357	684790.200734382366	4135.3172064062
0	5366	687435.107439231586	6163.9562236169
0	5384	690572.765525790826	6595.4163275208
0	5402	694006.245391158344	6419.5217140457
0	5446	697732.373274414385	6926.7448912549
0	5451	697977.932972228227	3509.3499360435
0	5463	699580.831548763002	4227.5805668547
0	5485	700403.946846963145	4918.8397395714
0	5505	703185.617754810189	3776.3207420251
0	5510	703530.422125888367	6433.5970317895
0	5519	705445.888674154016	5577.4853825909
0	5555	712850.69353547113	10576.113317202
0	5563	713408.964646078998	3450.0127740503
0	5575	715472.358132907958	5130.9521910863
0	5598	718748.466343876912	6656.7669715848
0	5615	720643.363584367703	5257.0399738472
0	5626	721779.159520514263	4315.3482158467
0	5665	725448.118878511922	6660.2801307595
0	5674	727091.022382057076	5510.8722920263
0	5691	727799.781649696291	4258.8675308585
0	5710	728635.770672690423	4388.2383325966
0	5724	730618.150487035742	5791.4866730277
0	5732	731251.392070082795	3613.4141735245
0	5740	731707.707279931091	3996.7246106998
0	5766	735240.999916160812	6774.664581162
0	5792	738218.68983824215	6058.9870206992
0	5803	738725.33092632643	3987.2836236234
0	5816	739568.362069315737	4300.5885793436
0	5828	741325.656289020254	5782.6591438228
0	5843	744768.790266712509	6361.0263417948
0	5872	749238.498164788925	8166.8231394331
0	5894	751175.07839175115	4768.3846973838
0	5914	752624.160082092123	3462.6416054491
0	5922	752948.046459280811	4710.491266216
0	5939	755190.808021228159	5645.2423752181
0	5956	756142.858653508358	4205.5420537851
0	5978	758729.666431602629	6051.0181050399
0	5986	759417.284517727555	4338.1285630885
0	5994	759837.582021220829	3752.0579008148
0	6020	762746.075936453247	6327.5708281782
0	6040	764542.10363035865	4637.4824930399
0	6065	767570.59185567696	6510.1141428322
0	6070	767851.894052862424	3887.6029278839
0	6088	770352.066018673408	5983.1198064603
0	6096	771956.601705035328	4994.5836008279
0	6122	775751.747192418288	7105.4142305685
0	6148	778675.314348614585	6469.6626558106
0	6156	779404.600331450643	4198.9221810385
0	6165	781285.794655885604	5475.0774632105
0	6192	786297.753912872694	8224.4240460095
0	6225	788624.951869279993	5232.2693802961
0	6242	789993.36615448255	4751.6880747948
0	6261	790922.479688141366	4536.6899405984
0	6266	791227.836796066373	3908.4906363669
0	6275	792327.514737555076	4305.7365412668
0	6283	793050.723668076979	3786.0312768186
0	6325	797657.644945642733	7391.6243459866
0	6334	798373.830744578085	4223.3687414263
0	6354	800487.032558486422	3699.7505741553
0	6359	800758.925450744681	6541.1130992921
0	6370	801960.312517538192	5059.730052951
0	6385	804799.233780323171	6332.2848803728
0	6431	810196.165106624476	8281.9717132245
0	6436	810524.243620215796	3393.0962144064
0	6447	811691.984677811396	4077.5576742249
0	6452	811917.777101572696	3476.6722730689
0	6498	823360.39033022312	14538.673535983
0	6510	824115.208513222136	3944.5604111121
0	6515	824445.771346758795	3699.2081709607
0	6523	825696.35177008899	4643.4363728907
0	6550	830021.318945053638	8238.9003277689
0	6567	833000.338872373642	6373.0495044941
0	6579	834501.336878863708	5100.0967471801
0	6609	837848.732129029168	6908.3030267867
0	6618	839212.448806688242	4891.2670209536
0	6630	840273.55693293123	4539.9799977268
0	6655	843633.910836915976	6423.2995511193
0	6660	843893.070674833002	3731.7067618681
0	6687	848649.236080953103	7941.7758370161
0	6712	851057.384123915604	5898.954978988
0	6729	852854.209926523779	3491.9750782856
0	6737	853183.175827181283	5152.7728112487
0	6754	855360.916139389856	5678.3447503721
0	6771	857305.877838636279	5010.1667461481
0	6780	858860.979192559424	5033.1977821556
0	6814	862374.948394867558	6646.4059676364
0	6823	864513.161029818981	5603.7628925063
0	6831	865365.419038297536	4178.9414536446
0	6858	870170.301347862105	8388.30176707
0	6875	872043.310101447582	5096.9144879266
0	6900	873994.936002022703	5315.2286065705
0	6928	876717.707400220514	5823.4650137527
0	6933	876975.849220870628	3924.2230269499
0	6949	877962.358212950026	4500.246299292
0	6958	878938.533082746685	4081.9483163055
0	6975	880118.968112234657	4902.5046365532
0	6992	882617.41549930129	5604.422124336
0	7017	884760.04096312953	5403.875439032
0	7029	886433.101349922214	5122.7608928451
0	7034	886764.872268846131	3761.1596800103
0	7060	890095.829945164448	6710.8502245706
0	7071	891408.780062757831	4497.4042900124
0	7086	894366.93667662663	6132.3956784544
0	7113	900484.603091785566	9225.4602344418
0	7130	902866.011642612881	5711.6020932904
0	7142	905063.825278219694	5525.7087505951
0	7193	908554.892747547896	6826.7365564898
0	7211	909501.626104178061	4511.2092753675
0	7216	909782.410102488358	4497.0077991681
0	7222	910100.475380465829	4794.7713837221
0	7238	911399.825313242969	4899.8339485726
0	7247	912637.529343964792	4342.1707926895
0	7255	913669.417587620493	5328.1031593868
0	7312	919771.537975936535	9354.3702555593
0	7331	920660.894049069448	4395.5673819574
0	7339	921522.184836383255	4468.0508909305
0	7348	922278.661603681175	4276.430457272
0	7359	922838.421861026287	3834.391932607
0	7364	923170.590799970969	4286.7107287824
0	7372	923753.06939757978	4088.0612662812
0	7434	928424.02345637046	3538.326226993
0	7439	928770.423037280925	9075.545154597
0	7450	929650.850447383533	4748.1912944285
0	7455	929979.989700426896	4044.8604603443
0	7464	930279.512810443573	4333.7775626909
0	7472	930639.430870483518	3512.8579810687
0	7510	943454.759049625981	16282.21181955
0	7519	944990.923295413662	4833.7474059557
0	7527	945397.048207344579	3885.1936892789
0	7561	949875.632904531292	7470.4587323286
1	657	91441.568006165601	0
1	666	93154.795818165336	0
1	683	95714.878720482799	0
1	692	96123.245033849909	0
1	703	96426.840576979	59.473614635212
1	716	97399.577618567317	0
1	724	97734.39672122103	56.584208140298
1	775	102981.708164393614	0
1	783	103492.038128471172	0
1	813	115751.35573644174	0
1	823	118109.316769577207	0
1	848	121992.193564660458	0
1	857	122602.160634449557	0
1	883	126567.531219285998	0
1	892	128026.857177740824	0
1	900	129568.602961934765	0
1	925	131047.324912148017	0
1	933	131906.235041773807	0
1	950	133075.774418880651	0
1	967	134163.135513235295	305.0066990841
1	986	135514.401857384787	27.461352978822
1	1000	136315.589069409291	0
1	1035	143386.630435796431	0
1	1054	148639.219335090035	0
1	1063	151340.827727689338	0
1	1079	151987.666257988495	0
1	1088	152462.272965664815	0
1	1105	154856.394835231227	0
1	1141	163759.561350633563	0
1	1151	166108.416237134887	0
1	1168	168443.824943164647	0
1	1185	170246.228859004665	0
1	1202	172482.488012429599	0
1	1228	177199.284809586257	0
1	1237	179677.690620589395	0
1	1246	180012.00705506243	64.910122535136
1	1262	180619.202317246546	0
1	1270	180955.113458552075	22.332221516449
1	1278	181911.995173072784	0
1	1295	182746.531389168767	0
1	1345	186496.346657358364	0
1	1363	191390.156188729662	0
1	1372	192083.53681200288	0
1	1380	192436.377542161294	153.13398207897
1	1414	196122.650667248477	0
1	1422	197946.344059761417	0
1	1431	198738.21836997222	0
1	1456	201263.60235043396	0
1	1473	202896.551952689773	0
1	1499	206718.320633690999	259.48828528779
1	1508	209087.195222299449	0
1	1524	209987.677387382135	217.88600900959
1	1533	210299.836438683844	53.865206408284
1	1556	212673.967317968518	198.46750081742
1	1561	212970.622403133007	426.5853874339
1	1577	213550.463531690929	7.161280188629
1	1591	214417.506415221353	0
1	1635	222421.305503521909	0
1	1653	227724.368887230425	0
1	1662	228447.297994920665	0
1	1670	229072.667149913441	0
1	1705	235042.051985127579	0
1	1713	235349.577074613455	296.07949190784
1	1739	239278.53774194544	0
1	1748	240775.518487836933	0
1	1774	244653.095683015033	0
1	1793	250950.366901496781	0
1	1802	252996.890695009387	0
1	1818	253992.096074355905	0
1	1827	255269.568129247512	0
1	1852	257380.065812741163	209.6652155223
1	1861	258112.801200208152	0
1	1886	260532.877096306415	172.28804443205
1	1894	261019.342360982668	0
1	1928	265099.42282625659	0
1	1937	266807.191452017124	0
1	1962	269845.412345345124	0
1	1981	274444.30496747516	0
1	1989	275398.284664581951	0
1	1998	276258.642107366213	0
1	2006	277415.573913306227	0
1	2050	284468.203940953435	0
1	2058	285200.150028411104	0
1	2067	286483.298259222616	0
1	2087	288392.678500252538	195.53044673124
1	2109	290648.628517815229	0
1	2136	297580.559945359031	0
1	2145	298735.195675104947	0
1	2170	301789.983407754253	135.01624774665
1	2179	303851.98328715879	0
1	2194	304168.794805288716	205.23872812193
1	2202	304493.647486992235	424.29246081842
1	2210	304751.733275768373	627.36541645612
1	2215	305041.054813015444	673.7712630394
1	2228	305758.182274065949	0
1	2287	311242.860481324245	0
1	2296	312370.854872468951	0
1	2313	314815.584486255627	0
1	2329	315878.777418376089	193.81905440212
1	2338	317203.143150125429	0
1	2355	318686.80173991934	0
1	2389	322120.851944208018	241.18925382279
1	2397	322987.247029004237	0
1	2414	325720.666132677286	27.477727345498
1	2443	335557.363164444162	0
1	2452	336063.303430600173	0
1	2478	341298.736667483871	0
1	2487	342117.568320173038	0
1	2496	344056.014618382822	0
1	2504	344341.372608512714	172.36820423276
1	2528	345846.545264680354	0
1	2565	349121.56145082847	82.543366928888
1	2573	349443.231254022481	344.54771421106
1	2578	349767.216694187536	471.80449642556
1	2587	350080.10267184336	288.26510321939
1	2595	350924.976836002519	0
1	2645	355384.240212741964	0
1	2663	358761.546029402382	0
1	2671	359604.827576644001	0
1	2680	360742.997872518765	0
1	2697	362154.37684913699	220.56596294703
1	2713	363245.506823952429	0
1	2730	364321.266840342495	0
1	2738	365047.025975482664	0
1	2754	365861.463602238275	0
1	2771	367048.571508124694	0
1	2807	369422.649898849051	257.07774932342
1	2815	369690.642869355183	507.570543281
1	2824	370008.627674682173	487.26189801095
1	2837	370956.761237424172	0
1	2854	372235.482896492447	175.14516462863
1	2870	372873.073942670822	238.31410847602
1	2912	376501.174433810582	0
1	2930	381032.891554968928	0
1	2948	384764.181183738743	0
1	2968	392737.009130073317	0
1	2976	393378.424343823803	0
1	2985	395265.270386487317	0
1	3002	396435.541455032724	0
1	3010	396689.684674422844	167.38643653626
1	3043	399819.685678629318	0
1	3055	400063.348776631622	201.14518036297
1	3063	400351.034091072671	11.232276652973
1	3076	401396.60803500178	0
1	3110	404046.728260026749	276.84202799014
1	3127	406510.539020416044	0
1	3144	408492.475973773236	0
1	3171	414293.800501315936	0
1	3188	417819.978717747206	193.16090256376
1	3197	418867.875190876486	0
1	3206	420007.952629444301	0
1	3222	420861.421534138735	90.499246979172
1	3230	421170.713166762578	141.97332423658
1	3238	421526.781762822444	0
1	3288	424970.027984515883	0
1	3297	426810.668165727768	0
1	3314	428981.715892576213	0
1	3341	435698.568239581525	0
1	3350	436017.39076865282	116.2435031342
1	3375	439348.020488278544	0
1	3394	444218.874984085784	0
1	3402	444519.114362674372	265.3575516283
1	3411	446161.168558542382	0
1	3436	448154.942804753762	0
1	3453	450398.255737232308	0
1	3461	450683.798038776163	168.60675834496
1	3477	451292.754059041188	78.115349577816
1	3486	452175.355659006479	0
1	3528	456943.723984277091	0
1	3537	459393.763920735193	0
1	3548	459695.234938826653	18.838395864026
1	3580	464464.203873812711	0
1	3589	467018.572763512184	0
1	3606	468348.655555294215	0
1	3614	468699.991427122987	300.84262265364
1	3622	468977.710744883709	69.54694256858
1	3630	469608.76096702006	0
1	3638	469934.892941186168	31.101988931353
1	3655	471422.914442446641	0
1	3672	472078.016785493178	127.02344607691
1	3729	475237.626579819114	0
1	3738	476269.371162044979	0
1	3747	478771.048612142039	0
1	3772	480076.158559488717	0
1	3798	485200.389804351633	0
1	3807	486342.719572637782	0
1	3815	486844.964885901922	0
1	3823	487107.365815071919	161.81087996928
1	3840	489029.2119620465	0
1	3856	489617.782092728765	82.360335039671
1	3881	490781.466710525095	0
1	3889	491057.923228232233	247.29929717493
1	3906	492427.540819811146	0
1	3948	497313.746450315522	0
1	3957	499347.773106625444	0
1	3965	499952.852786319913	0
1	3999	503253.802508457264	0
1	4008	504861.910192997691	0
1	4016	505640.508112915638	0
1	4050	509590.912813904588	0
1	4059	511791.095387325138	0
1	4076	512983.734592478274	253.88447212827
1	4084	513382.445397767236	284.82709077033
1	4092	513660.335119531497	51.442701547228
1	4101	514612.153849082196	0
1	4142	517349.430446184096	0
1	4168	521021.150743961604	0
1	4177	523067.742537615547	0
1	4207	535933.036231877675	0
1	4226	541928.675544271181	0
1	4244	545937.108579626736	0
1	4267	559557.588994527872	0
1	4276	560976.506874893401	0
1	4284	561302.336784892495	160.00058983224
1	4301	563634.144294919138	0
1	4318	564172.041216388056	92.930879571378
1	4334	565262.999768384565	0
1	4342	565660.920883182721	0
1	4359	566711.951134037081	12.708149095563
1	4400	569689.738884160491	0
1	4408	569971.585327179444	67.357739851714
1	4417	570402.461758398752	0
1	4425	571221.176149631109	0
1	4433	571986.332057990619	0
1	4484	577441.622956942477	0
1	4493	577994.744335414619	0
1	4521	586284.260823384437	0
1	4529	587397.596285563657	0
1	4538	588081.991948530117	0
1	4572	592322.722456802235	0
1	4581	595104.914910484701	0
1	4589	595731.404170379714	0
1	4606	597601.502835534249	0
1	4632	600076.356621918225	0
1	4640	600872.396052860294	0
1	4675	606102.226651720492	0
1	4684	608840.890777015828	0
1	4701	610302.864663585844	0
1	4718	612503.377397376858	0
1	4729	612812.952846625308	151.46080385991
1	4737	613143.163325752734	447.46664183691
1	4750	613769.291442450382	0
1	4784	616659.279829963363	54.229217731162
1	4811	623297.000100034995	0
1	4831	631172.479329370349	0
1	4839	631440.134744313573	181.7287785018
1	4847	631960.6523912361	0
1	4856	632510.954929189886	0
1	4873	634382.23959312065	174.04161749727
1	4897	635686.491866149737	0
1	4914	636623.006407911829	0
1	4922	636875.67316645952	219.92700784446
1	4930	637181.291825706395	274.37548716623
1	4980	640501.625076469659	214.73659726696
1	4989	642489.909686534098	0
1	4997	643647.903027186724	0
1	5033	651921.691035839838	0
1	5042	652224.979292604708	0
1	5050	653133.28668272519	0
1	5058	653534.1492235229	0
1	5066	653827.209676409584	44.942118505921
1	5099	655918.726986393712	222.56077974184
1	5133	659730.748739090432	0
1	5142	660867.818833978484	0
1	5150	661192.518279278899	29.694354526017
1	5158	661581.591067742632	0
1	5175	663698.725558393916	0
1	5203	664852.949528099375	337.14364973043
1	5216	665464.690185818991	185.53593294402
1	5251	671664.79758617883	0
1	5260	672076.889958181905	0
1	5268	673514.317908138013	0
1	5303	678392.484359353769	0
1	5312	680654.883527976197	0
1	5320	681271.151215614688	0
1	5349	684143.221458538398	165.87226026841
1	5371	687586.723677112618	0
1	5389	690805.628383159443	0
1	5407	694468.583036184752	0
1	5415	695353.250981908329	0
1	5423	695704.354912016162	219.2478046244
1	5432	697096.825094098916	0
1	5465	699580.831548763002	171.53453597793
1	5473	699908.915808928082	40.512517364935
1	5491	702274.580218269017	0
1	5526	709958.951872028731	0
1	5535	710341.405941821648	0
1	5544	712091.699372292064	0
1	5577	715472.358132907958	86.034522387476
1	5586	717463.811304667577	0
1	5603	718787.838747752378	0
1	5628	721779.159520514263	199.00943048352
1	5637	723540.914118837835	0
1	5646	724247.53234009385	0
1	5654	724826.663814008027	0
1	5693	727799.781649696291	161.80375313803
1	5699	728048.42756599368	337.44489676237
1	5712	728635.770672690423	169.43533769162
1	5746	732159.702817542903	0
1	5755	734738.047302703055	0
1	5771	735267.773489972172	0
1	5779	735609.42987214542	66.432726948013
1	5805	738725.33092632643	317.56700140872
1	5830	741325.656289020254	253.98126366443
1	5849	746406.693694367304	0
1	5858	748237.555193064767	0
1	5874	749238.498164788925	76.979688145884
1	5882	749545.565646010097	0
1	5899	751937.316599723247	0
1	5924	752948.046459280811	269.39813271807
1	5941	755190.808021228159	111.65206658907
1	5958	756142.858653508358	57.334533102342
1	5966	756509.942100761773	91.436992486691
1	5999	759904.621137318714	0
1	6008	761060.477712844795	0
1	6025	763964.291124978523	0
1	6042	764542.10363035865	173.15741814555
1	6051	766962.018104207387	0
1	6076	768646.332961849762	0
1	6102	772205.651692804012	0
1	6111	775205.678150412094	0
1	6127	775810.717192675127	0
1	6137	778073.32986686321	0
1	6171	783392.682488983942	0
1	6180	785241.678079687713	0
1	6197	786385.789747542921	0
1	6205	787319.346159699464	0
1	6214	788021.778196288319	0
1	6230	789264.692391258416	0
1	6247	790266.020599656115	0
1	6289	794150.462003151824	0
1	6297	794436.577302019921	218.76495056734
1	6306	796787.281984331078	0
1	6314	797061.741967427199	161.15950283996
1	6339	798466.948899950402	0
1	6372	801960.312517538192	46.119124138232
1	6391	807131.14740580942	0
1	6399	807614.427003586506	0
1	6408	808441.104828503807	0
1	6416	808821.71679423978	0
1	6462	820170.648102110048	0
1	6470	820746.563175798128	0
1	6478	821052.915397198309	0
1	6486	821782.418617284762	0
1	6529	826627.28936787959	0
1	6538	829401.240131683594	0
1	6555	830940.429102242426	0
1	6581	834501.336878863708	180.15509312911
1	6589	835733.576935204459	0
1	6598	837210.611285796718	0
1	6632	840273.55693293123	112.19301996629
1	6640	840707.460243936994	0
1	6666	845158.429144927597	0
1	6676	848030.403015932557	0
1	6692	849362.234848238186	0
1	6700	849682.571389017785	0
1	6718	852295.71109248814	0
1	6742	853827.781410403839	0
1	6759	855728.542427231147	0
1	6785	858909.398137312656	0
1	6794	861186.477584652887	0
1	6802	861781.999580792138	0
1	6837	866946.395613521026	0
1	6846	868679.707395452177	0
1	6863	870894.242386467809	0
1	6880	873051.626193920692	0
1	6888	873462.111913658043	0
1	6905	874856.584766441167	0
1	6913	875216.46347568143	0
1	6938	877012.993374965314	0
1	6963	879356.165524097518	0
1	6980	881310.340457077112	0
1	6997	883003.712588835815	0
1	7005	883384.979720593825	0
1	7039	886911.375772745452	0
1	7048	888234.540998172271	0
1	7073	891408.780062757831	149.63720541411
1	7092	897154.409549322468	0
1	7101	899538.116527624609	0
1	7118	901728.156191058067	0
1	7144	905063.825278219694	73.408449409175
1	7155	905356.508454928509	71.106151608201
1	7160	905680.774833222567	375.07083647883
1	7169	906499.991364670359	0
1	7195	908554.892747547896	259.53419627258
1	7200	908872.434835961941	531.12040772821
1	7227	910417.167720377191	0
1	7262	916265.326667112067	0
1	7270	917054.133945452798	0
1	7279	918002.231146409219	0
1	7287	918883.880071188594	0
1	7298	919201.004523823154	196.97459540391
1	7314	919771.537975936535	106.52984463795
1	7323	920044.80655109835	349.92866841439
1	7378	924885.697229377436	0
1	7386	925172.920562391083	270.26140943606
1	7394	925935.129240082552	0
1	7403	926252.427034153407	306.69178640072
1	7411	927126.572889414813	0
1	7419	927440.730304397987	268.18307432222
1	7482	940157.175889457987	0
1	7490	941511.854518065702	0
1	7499	942405.174172202642	0
1	7533	946144.436773813763	0
1	7542	948341.619729687888	0
1	7550	948723.757310256283	0
2	655	91441.568006165601	1
2	657	91441.568006165601	0
2	664	93154.795818165336	1
2	666	93154.795818165336	0
2	681	95714.878720482799	1
2	683	95714.878720482799	0
2	690	96123.245033849909	1
2	692	96123.245033849909	0
2	698	96367.366962343788	1
2	703	96426.840576979	0
2	714	97399.577618567317	1
2	716	97399.577618567317	0
2	719	97677.812513080732	1
2	724	97734.39672122103	0
2	773	102981.708164393614	1
2	775	102981.708164393614	0
2	781	103492.038128471172	1
2	783	103492.038128471172	0
2	811	115751.35573644174	1
2	813	115751.35573644174	0
2	821	118109.316769577207	1
2	823	118109.316769577207	0
2	846	121992.193564660458	1
2	848	121992.193564660458	0
2	855	122602.160634449557	1
2	857	122602.160634449557	0
2	881	126567.531219285998	1
2	883	126567.531219285998	0
2	890	128026.857177740824	1
2	892	128026.857177740824	0
2	898	129568.602961934765	1
2	900	129568.602961934765	0
2	923	131047.324912148017	1
2	925	131047.324912148017	0
2	931	131906.235041773807	1
2	933	131906.235041773807	0
2	948	133075.774418880651	1
2	950	133075.774418880651	0
2	961	133858.128814151192	1
2	967	134163.135513235295	0
2	981	135486.940504405965	1
2	986	135514.401857384787	0
2	998	136315.589069409291	1
2	1000	136315.589069409291	0
2	1033	143386.630435796431	1
2	1035	143386.630435796431	0
2	1052	148639.219335090035	1
2	1054	148639.219335090035	0
2	1061	151340.827727689338	1
2	1063	151340.827727689338	0
2	1077	151987.666257988495	1
2	1079	151987.666257988495	0
2	1086	152462.272965664815	1
2	1088	152462.272965664815	0
2	1103	154856.394835231227	1
2	1105	154856.394835231227	0
2	1139	163759.561350633563	1
2	1141	163759.561350633563	0
2	1149	166108.416237134887	1
2	1151	166108.416237134887	0
2	1166	168443.824943164647	1
2	1168	168443.824943164647	0
2	1183	170246.228859004665	1
2	1185	170246.228859004665	0
2	1200	172482.488012429599	1
2	1202	172482.488012429599	0
2	1226	177199.284809586257	1
2	1228	177199.284809586257	0
2	1235	179677.690620589395	1
2	1237	179677.690620589395	0
2	1240	179947.096932527294	1
2	1246	180012.00705506243	0
2	1260	180619.202317246546	1
2	1262	180619.202317246546	0
2	1265	180932.781237035626	1
2	1270	180955.113458552075	0
2	1276	181911.995173072784	1
2	1278	181911.995173072784	0
2	1293	182746.531389168767	1
2	1295	182746.531389168767	0
2	1343	186496.346657358364	1
2	1345	186496.346657358364	0
2	1361	191390.156188729662	1
2	1363	191390.156188729662	0
2	1370	192083.53681200288	1
2	1372	192083.53681200288	0
2	1375	192283.24356008232	1
2	1380	192436.377542161294	0
2	1412	196122.650667248477	1
2	1414	196122.650667248477	0
2	1420	197946.344059761417	1
2	1422	197946.344059761417	0
2	1429	198738.21836997222	1
2	1431	198738.21836997222	0
2	1454	201263.60235043396	1
2	1456	201263.60235043396	0
2	1471	202896.551952689773	1
2	1473	202896.551952689773	0
2	1494	206458.832348403211	1
2	1499	206718.320633690999	0
2	1506	209087.195222299449	1
2	1508	209087.195222299449	0
2	1519	209769.791378372545	1
2	1524	209987.677387382135	0
2	1528	210245.97123227556	1
2	1533	210299.836438683844	0
2	1548	212475.499817151097	1
2	1551	212544.037015699107	2
2	1556	212673.967317968518	1
2	1561	212970.622403133007	0
2	1572	213543.3022515023	1
2	1577	213550.463531690929	0
2	1589	214417.506415221353	1
2	1591	214417.506415221353	0
2	1633	222421.305503521909	1
2	1635	222421.305503521909	0
2	1651	227724.368887230425	1
2	1653	227724.368887230425	0
2	1660	228447.297994920665	1
2	1662	228447.297994920665	0
2	1668	229072.667149913441	1
2	1670	229072.667149913441	0
2	1703	235042.051985127579	1
2	1705	235042.051985127579	0
2	1708	235053.497582705614	1
2	1713	235349.577074613455	0
2	1737	239278.53774194544	1
2	1739	239278.53774194544	0
2	1746	240775.518487836933	1
2	1748	240775.518487836933	0
2	1772	244653.095683015033	1
2	1774	244653.095683015033	0
2	1791	250950.366901496781	1
2	1793	250950.366901496781	0
2	1800	252996.890695009387	1
2	1802	252996.890695009387	0
2	1816	253992.096074355905	1
2	1818	253992.096074355905	0
2	1825	255269.568129247512	1
2	1827	255269.568129247512	0
2	1847	257170.400597218861	1
2	1852	257380.065812741163	0
2	1859	258112.801200208152	1
2	1861	258112.801200208152	0
2	1881	260360.589051874363	1
2	1886	260532.877096306415	0
2	1892	261019.342360982668	1
2	1894	261019.342360982668	0
2	1926	265099.42282625659	1
2	1928	265099.42282625659	0
2	1935	266807.191452017124	1
2	1937	266807.191452017124	0
2	1960	269845.412345345124	1
2	1962	269845.412345345124	0
2	1979	274444.30496747516	1
2	1981	274444.30496747516	0
2	1987	275398.284664581951	1
2	1989	275398.284664581951	0
2	1996	276258.642107366213	1
2	1998	276258.642107366213	0
2	2004	277415.573913306227	1
2	2006	277415.573913306227	0
2	2048	284468.203940953435	1
2	2050	284468.203940953435	0
2	2056	285200.150028411104	1
2	2058	285200.150028411104	0
2	2065	286483.298259222616	1
2	2067	286483.298259222616	0
2	2079	288197.148053521296	1
2	2087	288392.678500252538	0
2	2107	290648.628517815229	1
2	2109	290648.628517815229	0
2	2134	297580.559945359031	1
2	2136	297580.559945359031	0
2	2143	298735.195675104947	1
2	2145	298735.195675104947	0
2	2165	301654.967160007599	1
2	2170	301789.983407754253	0
2	2177	303851.98328715879	1
2	2179	303851.98328715879	0
2	2182	303963.556077166784	1
2	2186	304069.355026173816	2
2	2189	304124.367859312256	3
2	2194	304168.794805288716	2
2	2197	304367.283549976046	3
2	2202	304493.647486992235	2
2	2210	304751.733275768373	1
2	2215	305041.054813015444	0
2	2226	305758.182274065949	1
2	2228	305758.182274065949	0
2	2285	311242.860481324245	1
2	2287	311242.860481324245	0
2	2294	312370.854872468951	1
2	2296	312370.854872468951	0
2	2311	314815.584486255627	1
2	2313	314815.584486255627	0
2	2324	315684.958363973972	1
2	2329	315878.777418376089	0
2	2336	317203.143150125429	1
2	2338	317203.143150125429	0
2	2353	318686.80173991934	1
2	2355	318686.80173991934	0
2	2383	321879.66269038523	1
2	2389	322120.851944208018	0
2	2395	322987.247029004237	1
2	2397	322987.247029004237	0
2	2409	325693.188405331788	1
2	2414	325720.666132677286	0
2	2441	335557.363164444162	1
2	2443	335557.363164444162	0
2	2450	336063.303430600173	1
2	2452	336063.303430600173	0
2	2476	341298.736667483871	1
2	2478	341298.736667483871	0
2	2485	342117.568320173038	1
2	2487	342117.568320173038	0
2	2494	344056.014618382822	1
2	2496	344056.014618382822	0
2	2499	344169.004404279951	1
2	2504	344341.372608512714	0
2	2526	345846.545264680354	1
2	2528	345846.545264680354	0
2	2557	349039.018083899582	1
2	2560	349098.683539811418	2
2	2565	349121.56145082847	1
2	2568	349295.412197761979	2
2	2573	349443.231254022481	1
2	2578	349767.216694187536	0
2	2581	349791.837568623974	1
2	2587	350080.10267184336	0
2	2593	350924.976836002519	1
2	2595	350924.976836002519	0
2	2643	355384.240212741964	1
2	2645	355384.240212741964	0
2	2661	358761.546029402382	1
2	2663	358761.546029402382	0
2	2669	359604.827576644001	1
2	2671	359604.827576644001	0
2	2678	360742.997872518765	1
2	2680	360742.997872518765	0
2	2691	361933.810886189964	1
2	2697	362154.37684913699	0
2	2711	363245.506823952429	1
2	2713	363245.506823952429	0
2	2728	364321.266840342495	1
2	2730	364321.266840342495	0
2	2736	365047.025975482664	1
2	2738	365047.025975482664	0
2	2752	365861.463602238275	1
2	2754	365861.463602238275	0
2	2769	367048.571508124694	1
2	2771	367048.571508124694	0
2	2799	369165.572149525632	1
2	2802	369183.072326074178	2
2	2807	369422.649898849051	1
2	2810	369521.365776671227	2
2	2815	369690.642869355183	1
2	2824	370008.627674682173	0
2	2835	370956.761237424172	1
2	2837	370956.761237424172	0
2	2849	372060.337731863817	1
2	2854	372235.482896492447	0
2	2865	372634.759834194804	1
2	2870	372873.073942670822	0
2	2910	376501.174433810582	1
2	2912	376501.174433810582	0
2	2928	381032.891554968928	1
2	2930	381032.891554968928	0
2	2946	384764.181183738743	1
2	2948	384764.181183738743	0
2	2966	392737.009130073317	1
2	2968	392737.009130073317	0
2	2974	393378.424343823803	1
2	2976	393378.424343823803	0
2	2983	395265.270386487317	1
2	2985	395265.270386487317	0
2	3000	396435.541455032724	1
2	3002	396435.541455032724	0
2	3005	396522.298237886585	1
2	3010	396689.684674422844	0
2	3041	399819.685678629318	1
2	3043	399819.685678629318	0
2	3046	399862.203596268653	1
2	3055	400063.348776631622	0
2	3058	400339.801814419698	1
2	3063	400351.034091072671	0
2	3074	401396.60803500178	1
2	3076	401396.60803500178	0
2	3104	403769.886232036614	1
2	3110	404046.728260026749	0
2	3125	406510.539020416044	1
2	3127	406510.539020416044	0
2	3142	408492.475973773236	1
2	3144	408492.475973773236	0
2	3169	414293.800501315936	1
2	3171	414293.800501315936	0
2	3183	417626.817815183447	1
2	3188	417819.978717747206	0
2	3195	418867.875190876486	1
2	3197	418867.875190876486	0
2	3204	420007.952629444301	1
2	3206	420007.952629444301	0
2	3217	420770.922287159563	1
2	3222	420861.421534138735	0
2	3225	421028.739842525997	1
2	3230	421170.713166762578	0
2	3236	421526.781762822444	1
2	3238	421526.781762822444	0
2	3286	424970.027984515883	1
2	3288	424970.027984515883	0
2	3295	426810.668165727768	1
2	3297	426810.668165727768	0
2	3312	428981.715892576213	1
2	3314	428981.715892576213	0
2	3339	435698.568239581525	1
2	3341	435698.568239581525	0
2	3344	435901.147265518622	1
2	3350	436017.39076865282	0
2	3373	439348.020488278544	1
2	3375	439348.020488278544	0
2	3392	444218.874984085784	1
2	3394	444218.874984085784	0
2	3397	444253.75681104607	1
2	3402	444519.114362674372	0
2	3409	446161.168558542382	1
2	3411	446161.168558542382	0
2	3434	448154.942804753762	1
2	3436	448154.942804753762	0
2	3451	450398.255737232308	1
2	3453	450398.255737232308	0
2	3456	450515.191280431199	1
2	3461	450683.798038776163	0
2	3472	451214.638709463372	1
2	3477	451292.754059041188	0
2	3484	452175.355659006479	1
2	3486	452175.355659006479	0
2	3526	456943.723984277091	1
2	3528	456943.723984277091	0
2	3535	459393.763920735193	1
2	3537	459393.763920735193	0
2	3543	459676.396542962627	1
2	3548	459695.234938826653	0
2	3578	464464.203873812711	1
2	3580	464464.203873812711	0
2	3587	467018.572763512184	1
2	3589	467018.572763512184	0
2	3604	468348.655555294215	1
2	3606	468348.655555294215	0
2	3609	468399.148804469342	1
2	3614	468699.991427122987	0
2	3617	468908.163802315129	1
2	3622	468977.710744883709	0
2	3628	469608.76096702006	1
2	3630	469608.76096702006	0
2	3633	469903.790952254815	1
2	3638	469934.892941186168	0
2	3653	471422.914442446641	1
2	3655	471422.914442446641	0
2	3666	471950.993339416265	1
2	3672	472078.016785493178	0
2	3727	475237.626579819114	1
2	3729	475237.626579819114	0
2	3736	476269.371162044979	1
2	3738	476269.371162044979	0
2	3745	478771.048612142039	1
2	3747	478771.048612142039	0
2	3770	480076.158559488717	1
2	3772	480076.158559488717	0
2	3796	485200.389804351633	1
2	3798	485200.389804351633	0
2	3805	486342.719572637782	1
2	3807	486342.719572637782	0
2	3813	486844.964885901922	1
2	3815	486844.964885901922	0
2	3818	486945.554935102636	1
2	3823	487107.365815071919	0
2	3838	489029.2119620465	1
2	3840	489029.2119620465	0
2	3851	489535.421757689094	1
2	3856	489617.782092728765	0
2	3879	490781.466710525095	1
2	3881	490781.466710525095	0
2	3884	490810.623931057305	1
2	3889	491057.923228232233	0
2	3904	492427.540819811146	1
2	3906	492427.540819811146	0
2	3946	497313.746450315522	1
2	3948	497313.746450315522	0
2	3955	499347.773106625444	1
2	3957	499347.773106625444	0
2	3963	499952.852786319913	1
2	3965	499952.852786319913	0
2	3997	503253.802508457264	1
2	3999	503253.802508457264	0
2	4006	504861.910192997691	1
2	4008	504861.910192997691	0
2	4014	505640.508112915638	1
2	4016	505640.508112915638	0
2	4048	509590.912813904588	1
2	4050	509590.912813904588	0
2	4057	511791.095387325138	1
2	4059	511791.095387325138	0
2	4071	512729.850120350007	1
2	4076	512983.734592478274	0
2	4079	513097.618306996906	1
2	4084	513382.445397767236	0
2	4087	513608.892417984269	1
2	4092	513660.335119531497	0
2	4099	514612.153849082196	1
2	4101	514612.153849082196	0
2	4140	517349.430446184096	1
2	4142	517349.430446184096	0
2	4166	521021.150743961604	1
2	4168	521021.150743961604	0
2	4175	523067.742537615547	1
2	4177	523067.742537615547	0
2	4205	535933.036231877675	1
2	4207	535933.036231877675	0
2	4224	541928.675544271181	1
2	4226	541928.675544271181	0
2	4242	545937.108579626736	1
2	4244	545937.108579626736	0
2	4265	559557.588994527872	1
2	4267	559557.588994527872	0
2	4274	560976.506874893401	1
2	4276	560976.506874893401	0
2	4279	561142.336195060251	1
2	4284	561302.336784892495	0
2	4299	563634.144294919138	1
2	4301	563634.144294919138	0
2	4313	564079.110336816678	1
2	4318	564172.041216388056	0
2	4332	565262.999768384565	1
2	4334	565262.999768384565	0
2	4340	565660.920883182721	1
2	4342	565660.920883182721	0
2	4354	566699.242984941518	1
2	4359	566711.951134037081	0
2	4398	569689.738884160491	1
2	4400	569689.738884160491	0
2	4403	569904.22758732773	1
2	4408	569971.585327179444	0
2	4415	570402.461758398752	1
2	4417	570402.461758398752	0
2	4423	571221.176149631109	1
2	4425	571221.176149631109	0
2	4431	571986.332057990619	1
2	4433	571986.332057990619	0
2	4482	577441.622956942477	1
2	4484	577441.622956942477	0
2	4491	577994.744335414619	1
2	4493	577994.744335414619	0
2	4519	586284.260823384437	1
2	4521	586284.260823384437	0
2	4527	587397.596285563657	1
2	4529	587397.596285563657	0
2	4536	588081.991948530117	1
2	4538	588081.991948530117	0
2	4570	592322.722456802235	1
2	4572	592322.722456802235	0
2	4579	595104.914910484701	1
2	4581	595104.914910484701	0
2	4587	595731.404170379714	1
2	4589	595731.404170379714	0
2	4604	597601.502835534249	1
2	4606	597601.502835534249	0
2	4630	600076.356621918225	1
2	4632	600076.356621918225	0
2	4638	600872.396052860294	1
2	4640	600872.396052860294	0
2	4673	606102.226651720492	1
2	4675	606102.226651720492	0
2	4682	608840.890777015828	1
2	4684	608840.890777015828	0
2	4699	610302.864663585844	1
2	4701	610302.864663585844	0
2	4716	612503.377397376858	1
2	4718	612503.377397376858	0
2	4721	612661.492042765393	1
2	4724	612695.69668391582	2
2	4729	612812.952846625308	1
2	4737	613143.163325752734	0
2	4748	613769.291442450382	1
2	4750	613769.291442450382	0
2	4779	616605.050612232201	1
2	4784	616659.279829963363	0
2	4809	623297.000100034995	1
2	4811	623297.000100034995	0
2	4829	631172.479329370349	1
2	4831	631172.479329370349	0
2	4834	631258.405965811772	1
2	4839	631440.134744313573	0
2	4845	631960.6523912361	1
2	4847	631960.6523912361	0
2	4854	632510.954929189886	1
2	4856	632510.954929189886	0
2	4868	634208.197975623384	1
2	4873	634382.23959312065	0
2	4895	635686.491866149737	1
2	4897	635686.491866149737	0
2	4912	636623.006407911829	1
2	4914	636623.006407911829	0
2	4917	636655.746158615056	1
2	4922	636875.67316645952	0
2	4925	636906.916338540166	1
2	4930	637181.291825706395	0
2	4975	640286.888479202694	1
2	4980	640501.625076469659	0
2	4987	642489.909686534098	1
2	4989	642489.909686534098	0
2	4995	643647.903027186724	1
2	4997	643647.903027186724	0
2	5031	651921.691035839838	1
2	5033	651921.691035839838	0
2	5040	652224.979292604708	1
2	5042	652224.979292604708	0
2	5048	653133.28668272519	1
2	5050	653133.28668272519	0
2	5056	653534.1492235229	1
2	5058	653534.1492235229	0
2	5061	653782.267557903663	1
2	5066	653827.209676409584	0
2	5094	655696.166206651873	1
2	5099	655918.726986393712	0
2	5131	659730.748739090432	1
2	5133	659730.748739090432	0
2	5140	660867.818833978484	1
2	5142	660867.818833978484	0
2	5145	661162.823924752882	1
2	5150	661192.518279278899	0
2	5156	661581.591067742632	1
2	5158	661581.591067742632	0
2	5173	663698.725558393916	1
2	5175	663698.725558393916	0
2	5195	664515.805878368946	1
2	5203	664852.949528099375	0
2	5211	665279.154252874972	1
2	5216	665464.690185818991	0
2	5249	671664.79758617883	1
2	5251	671664.79758617883	0
2	5258	672076.889958181905	1
2	5260	672076.889958181905	0
2	5266	673514.317908138013	1
2	5268	673514.317908138013	0
2	5301	678392.484359353769	1
2	5303	678392.484359353769	0
2	5310	680654.883527976197	1
2	5312	680654.883527976197	0
2	5318	681271.151215614688	1
2	5320	681271.151215614688	0
2	5340	683977.349198269993	1
2	5349	684143.221458538398	0
2	5369	687586.723677112618	1
2	5371	687586.723677112618	0
2	5387	690805.628383159443	1
2	5389	690805.628383159443	0
2	5405	694468.583036184752	1
2	5407	694468.583036184752	0
2	5413	695353.250981908329	1
2	5415	695353.250981908329	0
2	5418	695485.107107391765	1
2	5423	695704.354912016162	0
2	5430	697096.825094098916	1
2	5432	697096.825094098916	0
2	5460	699409.297012785074	1
2	5465	699580.831548763002	0
2	5468	699868.403291563147	1
2	5473	699908.915808928082	0
2	5489	702274.580218269017	1
2	5491	702274.580218269017	0
2	5524	709958.951872028731	1
2	5526	709958.951872028731	0
2	5533	710341.405941821648	1
2	5535	710341.405941821648	0
2	5542	712091.699372292064	1
2	5544	712091.699372292064	0
2	5572	715386.323610520482	1
2	5577	715472.358132907958	0
2	5584	717463.811304667577	1
2	5586	717463.811304667577	0
2	5601	718787.838747752378	1
2	5603	718787.838747752378	0
2	5623	721580.150090030738	1
2	5628	721779.159520514263	0
2	5635	723540.914118837835	1
2	5637	723540.914118837835	0
2	5644	724247.53234009385	1
2	5646	724247.53234009385	0
2	5652	724826.663814008027	1
2	5654	724826.663814008027	0
2	5682	727637.977896558266	1
2	5685	727710.98266923131	2
2	5693	727799.781649696291	1
2	5699	728048.42756599368	0
2	5707	728466.335334998801	1
2	5712	728635.770672690423	0
2	5744	732159.702817542903	1
2	5746	732159.702817542903	0
2	5753	734738.047302703055	1
2	5755	734738.047302703055	0
2	5769	735267.773489972172	1
2	5771	735267.773489972172	0
2	5774	735542.997145197407	1
2	5779	735609.42987214542	0
2	5800	738407.763924917709	1
2	5805	738725.33092632643	0
2	5825	741071.675025355828	1
2	5830	741325.656289020254	0
2	5847	746406.693694367304	1
2	5849	746406.693694367304	0
2	5856	748237.555193064767	1
2	5858	748237.555193064767	0
2	5869	749161.518476643041	1
2	5874	749238.498164788925	0
2	5880	749545.565646010097	1
2	5882	749545.565646010097	0
2	5897	751937.316599723247	1
2	5899	751937.316599723247	0
2	5919	752678.648326562742	1
2	5924	752948.046459280811	0
2	5936	755079.155954639084	1
2	5941	755190.808021228159	0
2	5953	756085.524120406016	1
2	5958	756142.858653508358	0
2	5961	756418.505108275082	1
2	5966	756509.942100761773	0
2	5997	759904.621137318714	1
2	5999	759904.621137318714	0
2	6006	761060.477712844795	1
2	6008	761060.477712844795	0
2	6023	763964.291124978523	1
2	6025	763964.291124978523	0
2	6037	764368.946212213096	1
2	6042	764542.10363035865	0
2	6049	766962.018104207387	1
2	6051	766962.018104207387	0
2	6074	768646.332961849762	1
2	6076	768646.332961849762	0
2	6100	772205.651692804012	1
2	6102	772205.651692804012	0
2	6109	775205.678150412094	1
2	6111	775205.678150412094	0
2	6125	775810.717192675127	1
2	6127	775810.717192675127	0
2	6135	778073.32986686321	1
2	6137	778073.32986686321	0
2	6169	783392.682488983942	1
2	6171	783392.682488983942	0
2	6178	785241.678079687713	1
2	6180	785241.678079687713	0
2	6195	786385.789747542921	1
2	6197	786385.789747542921	0
2	6203	787319.346159699464	1
2	6205	787319.346159699464	0
2	6212	788021.778196288319	1
2	6214	788021.778196288319	0
2	6228	789264.692391258416	1
2	6230	789264.692391258416	0
2	6245	790266.020599656115	1
2	6247	790266.020599656115	0
2	6287	794150.462003151824	1
2	6289	794150.462003151824	0
2	6292	794217.812351452576	1
2	6297	794436.577302019921	0
2	6304	796787.281984331078	1
2	6306	796787.281984331078	0
2	6309	796900.582464587241	1
2	6314	797061.741967427199	0
2	6337	798466.948899950402	1
2	6339	798466.948899950402	0
2	6367	801914.19339339996	1
2	6372	801960.312517538192	0
2	6389	807131.14740580942	1
2	6391	807131.14740580942	0
2	6397	807614.427003586506	1
2	6399	807614.427003586506	0
2	6406	808441.104828503807	1
2	6408	808441.104828503807	0
2	6414	808821.71679423978	1
2	6416	808821.71679423978	0
2	6460	820170.648102110048	1
2	6462	820170.648102110048	0
2	6468	820746.563175798128	1
2	6470	820746.563175798128	0
2	6476	821052.915397198309	1
2	6478	821052.915397198309	0
2	6484	821782.418617284762	1
2	6486	821782.418617284762	0
2	6527	826627.28936787959	1
2	6529	826627.28936787959	0
2	6536	829401.240131683594	1
2	6538	829401.240131683594	0
2	6553	830940.429102242426	1
2	6555	830940.429102242426	0
2	6576	834321.181785734595	1
2	6581	834501.336878863708	0
2	6587	835733.576935204459	1
2	6589	835733.576935204459	0
2	6596	837210.611285796718	1
2	6598	837210.611285796718	0
2	6627	840161.363912964937	1
2	6632	840273.55693293123	0
2	6638	840707.460243936994	1
2	6640	840707.460243936994	0
2	6664	845158.429144927597	1
2	6666	845158.429144927597	0
2	6674	848030.403015932557	1
2	6676	848030.403015932557	0
2	6690	849362.234848238186	1
2	6692	849362.234848238186	0
2	6698	849682.571389017785	1
2	6700	849682.571389017785	0
2	6716	852295.71109248814	1
2	6718	852295.71109248814	0
2	6740	853827.781410403839	1
2	6742	853827.781410403839	0
2	6757	855728.542427231147	1
2	6759	855728.542427231147	0
2	6783	858909.398137312656	1
2	6785	858909.398137312656	0
2	6792	861186.477584652887	1
2	6794	861186.477584652887	0
2	6800	861781.999580792138	1
2	6802	861781.999580792138	0
2	6835	866946.395613521026	1
2	6837	866946.395613521026	0
2	6844	868679.707395452177	1
2	6846	868679.707395452177	0
2	6861	870894.242386467809	1
2	6863	870894.242386467809	0
2	6878	873051.626193920692	1
2	6880	873051.626193920692	0
2	6886	873462.111913658043	1
2	6888	873462.111913658043	0
2	6903	874856.584766441167	1
2	6905	874856.584766441167	0
2	6911	875216.46347568143	1
2	6913	875216.46347568143	0
2	6936	877012.993374965314	1
2	6938	877012.993374965314	0
2	6961	879356.165524097518	1
2	6963	879356.165524097518	0
2	6978	881310.340457077112	1
2	6980	881310.340457077112	0
2	6995	883003.712588835815	1
2	6997	883003.712588835815	0
2	7003	883384.979720593825	1
2	7005	883384.979720593825	0
2	7037	886911.375772745452	1
2	7039	886911.375772745452	0
2	7046	888234.540998172271	1
2	7048	888234.540998172271	0
2	7068	891259.142857343722	1
2	7073	891408.780062757831	0
2	7090	897154.409549322468	1
2	7092	897154.409549322468	0
2	7099	899538.116527624609	1
2	7101	899538.116527624609	0
2	7116	901728.156191058067	1
2	7118	901728.156191058067	0
2	7139	904990.416828810519	1
2	7144	905063.825278219694	0
2	7147	905285.402303320308	1
2	7150	905305.70399674374	2
2	7155	905356.508454928509	1
2	7160	905680.774833222567	0
2	7167	906499.991364670359	1
2	7169	906499.991364670359	0
2	7181	908295.358551275315	1
2	7184	908341.314428233736	2
2	7195	908554.892747547896	1
2	7200	908872.434835961941	0
2	7225	910417.167720377191	1
2	7227	910417.167720377191	0
2	7260	916265.326667112067	1
2	7262	916265.326667112067	0
2	7268	917054.133945452798	1
2	7270	917054.133945452798	0
2	7277	918002.231146409219	1
2	7279	918002.231146409219	0
2	7285	918883.880071188594	1
2	7287	918883.880071188594	0
2	7290	919004.029928419246	1
2	7298	919201.004523823154	0
2	7306	919665.00813129859	1
2	7309	919694.877882683962	2
2	7314	919771.537975936535	1
2	7323	920044.80655109835	0
2	7376	924885.697229377436	1
2	7378	924885.697229377436	0
2	7381	924902.659152955024	1
2	7386	925172.920562391083	0
2	7392	925935.129240082552	1
2	7394	925935.129240082552	0
2	7397	925945.735247752689	1
2	7403	926252.427034153407	0
2	7409	927126.572889414813	1
2	7411	927126.572889414813	0
2	7414	927172.547230075767	1
2	7419	927440.730304397987	0
2	7480	940157.175889457987	1
2	7482	940157.175889457987	0
2	7488	941511.854518065702	1
2	7490	941511.854518065702	0
2	7497	942405.174172202642	1
2	7499	942405.174172202642	0
2	7531	946144.436773813763	1
2	7533	946144.436773813763	0
2	7540	948341.619729687888	1
2	7542	948341.619729687888	0
2	7548	948723.757310256283	1
2	7550	948723.757310256283	0
3	675	94305.711336110321	0
3	708	96732.957003585794	396.77660089767
3	733	98606.595630532065	0
3	741	98905.991086370416	1.606396343785
3	749	99258.851660792259	197.44851920254
3	758	100558.866045726032	0
3	766	100858.572286865895	243.44760894282
3	793	106242.631300172875	0
3	801	106578.468912769702	0
3	831	119169.688562120261	0
3	840	121323.738491666126	0
3	866	125263.178413179424	0
3	874	125568.940747332137	107.49838350143
3	908	129838.653619218337	156.99347284248
3	917	130628.991400241884	0
3	942	132326.596912551267	0
3	958	133839.180489649233	0
3	975	135208.337542890553	0
3	991	135829.355169980358	427.12031852862
3	1008	136951.913575586654	0
3	1017	138267.934000918458	0
3	1025	139839.531978714146	0
3	1045	146413.593211556458	0
3	1071	151658.913798108079	276.4507511939
3	1097	154327.202039077482	0
3	1113	155441.457022105641	0
3	1121	155767.78403643186	248.75312998588
3	1130	157366.714823055761	0
3	1159	166608.173287664469	0
3	1176	169228.67508821039	0
3	1193	171300.003217127074	0
3	1210	173545.786797907833	0
3	1219	175855.218207220592	0
3	1254	180294.936607198824	259.50806871027
3	1287	182231.456009664765	152.38952107218
3	1303	183022.128875718403	197.036224674
3	1311	183781.652275674044	0
3	1320	184091.365240890803	0
3	1328	184728.168081938832	0
3	1336	185553.944217679355	0
3	1354	189771.663424661771	0
3	1389	194699.919002806881	0
3	1397	195068.890320971235	0
3	1405	195358.837838005954	279.23918867885
3	1439	199069.92677716365	0
3	1448	200795.982997098706	0
3	1464	201588.127452606737	89.529788215704
3	1482	204338.356700713894	0
3	1491	206419.514148734814	0
3	1516	209652.807928583913	0
3	1542	212326.100181043277	0
3	1566	213222.286369155555	828.04886738282
3	1582	213878.499829590743	603.9156916033
3	1599	215781.762049089776	0
3	1608	216200.332550746315	0
3	1616	216494.800035773731	158.24436587629
3	1624	217848.088074355478	0
3	1644	225012.631851011401	0
3	1679	230627.265001265635	0
3	1687	231443.684101638519	0
3	1696	232235.019348805106	0
3	1723	238316.040917581718	0
3	1731	238636.248319333077	117.26640930607
3	1757	242547.209187603485	0
3	1766	244189.857788115461	0
3	1783	247706.00074131883	0
3	1810	253661.112568385941	0
3	1836	256437.845904453802	0
3	1844	257105.621446327385	0
3	1869	258417.878684865749	266.29289014787
3	1878	260232.263942817359	0
3	1902	261396.027620464834	0
3	1911	263676.267169917909	0
3	1919	263960.287983666899	46.922984698074
3	1945	267523.726175007098	0
3	1954	269507.139191543754	0
3	1972	273262.907471624606	0
3	2014	277697.405201729408	195.68157238038
3	2023	278461.405098181329	0
3	2031	279438.741828891518	0
3	2040	280528.801664808145	0
3	2076	288090.734221199277	0
3	2092	288692.252465156515	447.03802437708
3	2100	289391.315262781916	0
3	2117	291576.529682321038	0
3	2126	293748.480648609904	0
3	2154	300558.743133711181	0
3	2162	301507.626247961495	0
3	2220	305356.141269526614	608.98777502228
3	2237	306834.683685835239	0
3	2245	307150.948696430471	56.819940809352
3	2253	307467.657461304714	85.859300397195
3	2261	307751.590921558287	275.98217570107
3	2270	308038.59636855421	284.97387015614
3	2278	308326.395771745846	158.49297841197
3	2305	314450.176006563829	0
3	2321	315577.940590951335	0
3	2346	317508.1164108611	7.781171176778
3	2363	319018.8291761948	0
3	2372	320595.688551816752	0
3	2380	321845.774354558386	0
3	2406	325408.19512673103	0
3	2422	325946.853975852977	0
3	2432	328905.887936988288	0
3	2461	338587.118217797471	0
3	2469	339381.909782542579	0
3	2512	344648.458809213732	248.71391347825
3	2520	345382.695499474818	0
3	2537	346533.243446338617	0
3	2545	347732.850980564523	0
3	2554	348861.966341086734	0
3	2604	352319.434831618955	0
3	2612	352624.173181014379	135.73550540361
3	2620	352937.839722349485	192.4886794807
3	2628	353232.796988840005	180.16366097499
3	2637	354124.280341462767	0
3	2655	358347.017614056288	0
3	2688	361865.763064124481	0
3	2705	362565.117043656919	0
3	2721	363546.124702348462	0
3	2746	365393.303243612771	0
3	2763	366425.26821931684	0
3	2779	367379.649912821574	38.222223540389
3	2787	367705.641567667585	58.867368911219
3	2796	369145.150350412581	0
3	2829	370280.762616579093	459.70301697063
3	2845	371963.271923898753	0
3	2862	372533.83618135728	138.84381437268
3	2878	373196.500186912438	231.82632030026
3	2886	373691.241761713141	0
3	2895	375472.465685923295	0
3	2904	376044.270994486617	0
3	2921	379325.37314743902	0
3	2940	384087.537562448707	0
3	2957	387955.331039851047	0
3	2994	396036.544091402126	0
3	3018	397001.562525064473	92.558796987882
3	3027	398669.917854078029	0
3	3035	399284.841985746626	0
3	3068	400704.432202541866	781.61498319706
3	3085	402998.9021994889	0
3	3093	403416.554391471455	0
3	3101	403739.529532736995	224.71043314935
3	3118	404371.124448101633	69.581110803159
3	3135	407060.460575807977	0
3	3152	409118.57493354279	0
3	3161	411641.051260696683	0
3	3180	417528.648513304783	0
3	3214	420572.456744081419	0
3	3246	421819.325818132758	0
3	3255	423373.572566279439	0
3	3263	423690.159413983086	0
3	3271	423966.762523846063	246.55744774629
3	3280	424370.409139534268	0
3	3306	428216.936518721166	0
3	3322	429754.209863389363	0
3	3331	431842.828664030517	0
3	3359	438488.929575918748	0
3	3367	438865.245359448428	0
3	3385	442399.495455147102	0
3	3419	447342.339237419654	0
3	3427	447603.066297034685	161.64592274768
3	3444	449545.944109014875	0
3	3469	451036.576739464687	0
3	3494	453359.873766408885	0
3	3502	453921.813285803018	0
3	3511	454315.73128223671	0
3	3519	454932.663438119027	0
3	3554	460033.258116117017	383.2899530584
3	3563	462150.993226006033	0
3	3571	462455.417300476416	9.588642818509
3	3597	467385.358832127715	0
3	3647	470788.894233421984	0
3	3663	471822.777203727238	0
3	3680	472377.201198535621	205.61244228311
3	3688	472645.586331914827	168.32532634082
3	3696	473190.851923666476	0
3	3704	473520.551830519115	325.05201230446
3	3713	474451.818937017914	0
3	3721	474846.952844479049	0
3	3755	479101.11318847785	102.16927343276
3	3763	479395.732949979853	290.82488905425
3	3780	481763.114582554412	0
3	3789	482921.38027211403	0
3	3832	488246.777774874506	0
3	3848	489290.203461123096	32.113062771973
3	3864	489927.95712417081	84.706532898026
3	3873	490272.592041297989	116.2185569474
3	3897	491985.442553773838	0
3	3914	493010.295929733153	0
3	3922	493939.286179890148	0
3	3931	494216.344503841593	134.06319530579
3	3939	495320.677237205379	0
3	3974	500274.46334070162	165.75530024055
3	3983	502437.0243227745	0
3	3991	502856.335643150789	0
3	4025	506958.764460104991	0
3	4033	507591.800589094358	0
3	4042	508600.937097278621	0
3	4068	512703.43297008907	0
3	4109	514857.811981705393	220.40484306954
3	4118	516003.419968174009	0
3	4126	516506.077856687003	0
3	4134	516991.717975766933	0
3	4150	517760.350353250341	0
3	4160	520281.818821505158	0
3	4186	524121.63258636525	0
3	4194	525730.088128257112	0
3	4217	538981.265672554083	0
3	4236	544851.233924071216	0
3	4254	549119.648885379192	0
3	4293	562506.830917076948	0
3	4309	563941.703336528519	193.08588716137
3	4326	564444.761360429468	175.03546172131
3	4351	566398.282654514612	0
3	4367	567336.093973554277	0
3	4376	568088.959513791804	0
3	4384	568696.007290600146	0
3	4392	569358.383663308493	0
3	4442	573008.063240852598	0
3	4450	573246.317363041933	158.25234394064
3	4458	573560.577527698275	266.1494176446
3	4467	574263.801168631589	0
3	4475	575114.019357171959	0
3	4502	580341.441240684934	0
3	4510	581283.812590605198	0
3	4546	589368.486063192556	0
3	4555	590327.8453339598	0
3	4563	591468.283352216476	0
3	4598	596015.316018209654	41.672471325962
3	4615	598243.835580705441	0
3	4623	599157.224554713477	0
3	4648	601185.741818518204	103.65750567179
3	4657	603037.757104179886	0
3	4666	604105.953017260464	0
3	4692	609534.578752723962	0
3	4709	611694.897734072978	0
3	4742	613456.280628349982	403.96640047639
3	4759	615441.682212338818	0
3	4767	615850.763866336229	0
3	4776	616304.490630257697	0
3	4792	617243.599237717597	0
3	4801	619393.150358231494	0
3	4821	626079.387862533597	0
3	4865	634104.653913455849	0
3	4881	634690.145828387552	233.29286505444
3	4889	635011.849439754337	168.50672168304
3	4905	635958.682038178045	193.67100399076
3	4938	637518.368085623674	179.56339239999
3	4946	637888.411899993132	0
3	4955	639107.972284848461	0
3	4963	639896.95953765811	0
3	4972	640192.315911894089	52.211011302416
3	5006	644026.189415322913	0
3	5014	645215.32148073889	0
3	5023	646917.592001084359	0
3	5075	654542.740964287116	0
3	5083	654957.962014681551	0
3	5091	655630.662529325927	0
3	5108	656350.111806679336	0
3	5116	656653.623092350618	133.44846198378
3	5125	659063.475446517378	0
3	5167	663059.464960396348	0
3	5184	664161.551733125872	0
3	5192	664490.90461259724	204.11775203982
3	5208	665151.690847150039	395.79482860069
3	5225	666700.970000133214	0
3	5234	668138.670416413868	0
3	5242	668668.101665688279	0
3	5277	674460.308288588655	0
3	5285	675268.118667333808	0
3	5294	676372.518807534618	0
3	5328	681584.410622206635	264.07635119991
3	5337	683845.618454155904	0
3	5354	684466.313394470765	454.23594163802
3	5363	687120.021088031656	0
3	5381	690306.538015927996	0
3	5398	693713.838158627395	0
3	5440	697429.159828332088	227.48056642058
3	5448	697732.373274414385	27.876708705901
3	5457	699252.91129955532	0
3	5482	700187.726579133959	99.935339760486
3	5499	702916.684673335252	0
3	5507	703185.617754810189	113.05544909751
3	5516	705144.434984210625	0
3	5552	712559.500868178958	0
3	5560	713085.972333987527	0
3	5569	715170.933339600809	0
3	5595	718459.66780373209	0
3	5612	720325.750087007132	0
3	5620	721463.530282632321	0
3	5662	725142.144597913678	217.30186449428
3	5671	726786.212342555128	0
3	5679	727511.136846926687	0
3	5704	728337.31845409765	620.05478064982
3	5721	730347.911628973721	0
3	5729	730969.420208981004	0
3	5737	731374.239576428866	0
3	5763	734965.47898824513	6.410084656165
3	5788	737935.586616407944	0
3	5797	738372.049259060835	0
3	5813	739272.902905367978	0
3	5822	741007.06521078549	0
3	5840	744465.671061539781	0
3	5866	748918.701920873606	0
3	5891	750854.062177893512	0
3	5908	752332.771948727742	0
3	5916	752624.160082092123	142.44452415407
3	5933	754868.991188966515	0
3	5949	755823.790529612495	0
3	5975	758407.615471983418	0
3	5983	759110.27098017072	0
3	5991	759519.177881899806	0
3	6017	762496.199497339248	0
3	6034	764241.527891656209	0
3	6062	767304.453384656025	339.7185634753
3	6067	767570.59185567696	587.55774016888
3	6085	770069.440274970109	0
3	6093	771636.446802538914	0
3	6119	775450.253510323102	46.418402434614
3	6145	778346.007395096667	90.003982087622
3	6153	779083.405298893242	0
3	6162	781000.935737611895	0
3	6189	786033.861280528605	0
3	6222	788296.813438454526	0
3	6238	789682.551318987973	0
3	6255	790591.590976304422	40.003454249104
3	6263	790922.479688141366	174.89097614093
3	6272	792061.883159127295	0
3	6280	792795.66523932576	0
3	6322	797370.627513265693	0
3	6331	798073.946114878604	0
3	6348	800153.246507635806	0
3	6356	800487.032558486422	111.49202807557
3	6364	801666.914082928219	0
3	6382	804502.134479308113	0
3	6424	809933.590707571162	0
3	6433	810196.165106624476	242.50834205523
3	6441	811376.546662490115	0
3	6449	811691.984677811396	119.41023110163
3	6495	823102.789978959191	0
3	6503	823788.190184987457	0
3	6512	824115.208513222136	89.48042351181
3	6520	825387.495543008531	0
3	6546	829695.63226132123	150.03504534032
3	6564	832715.513308220411	0
3	6573	834209.799177116959	0
3	6606	837543.544453345611	224.96811975166
3	6615	838899.797020570615	0
3	6623	839936.521824311872	0
3	6649	843285.400198854403	0
3	6657	843633.910836915976	302.45593110757
3	6684	848324.500312385533	20.558798143948
3	6709	850714.545305353899	0
3	6726	852564.09721561968	181.47003315925
3	6734	852882.469670783985	0
3	6751	855084.452491946763	0
3	6768	857033.723936776271	0
3	6777	858588.322911926727	0
3	6811	862099.274835392036	0
3	6820	864245.95131962568	0
3	6828	865014.823325669427	0
3	6854	869876.647936204042	0
3	6871	871767.679776289286	0
3	6896	873723.651252481147	173.00065970333
3	6922	876400.666005938325	0
3	6930	876717.707400220514	312.44819613624
3	6946	877717.876117385747	0
3	6955	878618.634151485807	0
3	6971	879813.584936064006	0
3	6989	882302.100347198247	0
3	7014	884387.791258660413	0
3	7023	886116.862167165977	0
3	7031	886433.101349922214	15.925876466633
3	7056	889761.364581151241	0
3	7065	891166.005890894893	0
3	7082	893985.937113681925	0
3	7110	900151.254802428025	0
3	7127	902543.332163714977	0
3	7136	904723.857577303519	0
3	7178	908230.465808612599	0
3	7208	909179.509053616708	809.50324613271
3	7213	909501.626104178061	1116.1714290926
3	7218	909782.410102488358	896.97431987418
3	7235	911111.107082725739	0
3	7244	912366.549837980029	0
3	7252	913406.541727505067	0
3	7303	919456.363534359582	362.71559212674
3	7328	920343.927054249539	488.50152580242
3	7336	921239.345590671822	0
3	7344	921972.293955321181	0
3	7353	922523.267837046802	0
3	7361	922838.421861026287	222.09995662899
3	7369	923474.399120378912	0
3	7428	928120.971632342967	0
3	7436	928424.02345637046	299.93489673846
3	7444	929315.062418102326	0
3	7452	929650.850447383533	6.255347462345
3	7461	930019.919240099532	0
3	7469	930344.963403240002	0
3	7507	943109.167381414667	0
3	7516	944686.342084342356	0
3	7524	945106.668291068908	0
3	7558	949576.330232512645	0
4	673	94305.711336110321	1
4	675	94305.711336110321	0
4	695	96336.180402688122	1
4	708	96732.957003585794	0
4	731	98606.595630532065	1
4	733	98606.595630532065	0
4	736	98904.384690026631	1
4	741	98905.991086370416	0
4	744	99061.403141589724	1
4	749	99258.851660792259	0
4	756	100558.866045726032	1
4	758	100558.866045726032	0
4	761	100615.12467792307	1
4	766	100858.572286865895	0
4	791	106242.631300172875	1
4	793	106242.631300172875	0
4	799	106578.468912769702	1
4	801	106578.468912769702	0
4	829	119169.688562120261	1
4	831	119169.688562120261	0
4	838	121323.738491666126	1
4	840	121323.738491666126	0
4	864	125263.178413179424	1
4	866	125263.178413179424	0
4	869	125461.442363830705	1
4	874	125568.940747332137	0
4	903	129681.660146375857	1
4	908	129838.653619218337	0
4	915	130628.991400241884	1
4	917	130628.991400241884	0
4	940	132326.596912551267	1
4	942	132326.596912551267	0
4	956	133839.180489649233	1
4	958	133839.180489649233	0
4	973	135208.337542890553	1
4	975	135208.337542890553	0
4	978	135402.234851451734	1
4	991	135829.355169980358	0
4	1006	136951.913575586654	1
4	1008	136951.913575586654	0
4	1015	138267.934000918458	1
4	1017	138267.934000918458	0
4	1023	139839.531978714146	1
4	1025	139839.531978714146	0
4	1043	146413.593211556458	1
4	1045	146413.593211556458	0
4	1066	151382.463046914178	1
4	1071	151658.913798108079	0
4	1095	154327.202039077482	1
4	1097	154327.202039077482	0
4	1111	155441.457022105641	1
4	1113	155441.457022105641	0
4	1116	155519.030906445979	1
4	1121	155767.78403643186	0
4	1128	157366.714823055761	1
4	1130	157366.714823055761	0
4	1157	166608.173287664469	1
4	1159	166608.173287664469	0
4	1174	169228.67508821039	1
4	1176	169228.67508821039	0
4	1191	171300.003217127074	1
4	1193	171300.003217127074	0
4	1208	173545.786797907833	1
4	1210	173545.786797907833	0
4	1217	175855.218207220592	1
4	1219	175855.218207220592	0
4	1249	180035.428538488556	1
4	1254	180294.936607198824	0
4	1282	182079.066488592588	1
4	1287	182231.456009664765	0
4	1298	182825.092651044406	1
4	1303	183022.128875718403	0
4	1309	183781.652275674044	1
4	1311	183781.652275674044	0
4	1318	184091.365240890803	1
4	1320	184091.365240890803	0
4	1326	184728.168081938832	1
4	1328	184728.168081938832	0
4	1334	185553.944217679355	1
4	1336	185553.944217679355	0
4	1352	189771.663424661771	1
4	1354	189771.663424661771	0
4	1387	194699.919002806881	1
4	1389	194699.919002806881	0
4	1395	195068.890320971235	1
4	1397	195068.890320971235	0
4	1400	195079.598649327106	1
4	1405	195358.837838005954	0
4	1437	199069.92677716365	1
4	1439	199069.92677716365	0
4	1446	200795.982997098706	1
4	1448	200795.982997098706	0
4	1459	201498.597664391033	1
4	1464	201588.127452606737	0
4	1480	204338.356700713894	1
4	1482	204338.356700713894	0
4	1489	206419.514148734814	1
4	1491	206419.514148734814	0
4	1514	209652.807928583913	1
4	1516	209652.807928583913	0
4	1540	212326.100181043277	1
4	1542	212326.100181043277	0
4	1545	212394.237501772735	1
4	1566	213222.286369155555	0
4	1569	213274.584137987442	1
4	1582	213878.499829590743	0
4	1597	215781.762049089776	1
4	1599	215781.762049089776	0
4	1606	216200.332550746315	1
4	1608	216200.332550746315	0
4	1611	216336.555669897438	1
4	1616	216494.800035773731	0
4	1622	217848.088074355478	1
4	1624	217848.088074355478	0
4	1642	225012.631851011401	1
4	1644	225012.631851011401	0
4	1677	230627.265001265635	1
4	1679	230627.265001265635	0
4	1685	231443.684101638519	1
4	1687	231443.684101638519	0
4	1694	232235.019348805106	1
4	1696	232235.019348805106	0
4	1721	238316.040917581718	1
4	1723	238316.040917581718	0
4	1726	238518.981910027008	1
4	1731	238636.248319333077	0
4	1755	242547.209187603485	1
4	1757	242547.209187603485	0
4	1764	244189.857788115461	1
4	1766	244189.857788115461	0
4	1781	247706.00074131883	1
4	1783	247706.00074131883	0
4	1808	253661.112568385941	1
4	1810	253661.112568385941	0
4	1834	256437.845904453802	1
4	1836	256437.845904453802	0
4	1842	257105.621446327385	1
4	1844	257105.621446327385	0
4	1864	258151.585794717879	1
4	1869	258417.878684865749	0
4	1876	260232.263942817359	1
4	1878	260232.263942817359	0
4	1900	261396.027620464834	1
4	1902	261396.027620464834	0
4	1909	263676.267169917909	1
4	1911	263676.267169917909	0
4	1914	263913.364998968825	1
4	1919	263960.287983666899	0
4	1943	267523.726175007098	1
4	1945	267523.726175007098	0
4	1952	269507.139191543754	1
4	1954	269507.139191543754	0
4	1970	273262.907471624606	1
4	1972	273262.907471624606	0
4	2009	277501.723629349024	1
4	2014	277697.405201729408	0
4	2021	278461.405098181329	1
4	2023	278461.405098181329	0
4	2029	279438.741828891518	1
4	2031	279438.741828891518	0
4	2038	280528.801664808145	1
4	2040	280528.801664808145	0
4	2074	288090.734221199277	1
4	2076	288090.734221199277	0
4	2082	288245.214440779434	1
4	2092	288692.252465156515	0
4	2098	289391.315262781916	1
4	2100	289391.315262781916	0
4	2115	291576.529682321038	1
4	2117	291576.529682321038	0
4	2124	293748.480648609904	1
4	2126	293748.480648609904	0
4	2152	300558.743133711181	1
4	2154	300558.743133711181	0
4	2160	301507.626247961495	1
4	2162	301507.626247961495	0
4	2205	304747.153494504329	1
4	2220	305356.141269526614	0
4	2235	306834.683685835239	1
4	2237	306834.683685835239	0
4	2240	307094.128755621119	1
4	2245	307150.948696430471	0
4	2248	307381.798160907519	1
4	2253	307467.657461304714	0
4	2256	307475.608745857221	1
4	2261	307751.590921558287	0
4	2264	307753.622498398068	1
4	2270	308038.59636855421	0
4	2273	308167.902793333873	1
4	2278	308326.395771745846	0
4	2303	314450.176006563829	1
4	2305	314450.176006563829	0
4	2319	315577.940590951335	1
4	2321	315577.940590951335	0
4	2341	317500.335239684322	1
4	2346	317508.1164108611	0
4	2361	319018.8291761948	1
4	2363	319018.8291761948	0
4	2370	320595.688551816752	1
4	2372	320595.688551816752	0
4	2378	321845.774354558386	1
4	2380	321845.774354558386	0
4	2404	325408.19512673103	1
4	2406	325408.19512673103	0
4	2420	325946.853975852977	1
4	2422	325946.853975852977	0
4	2430	328905.887936988288	1
4	2432	328905.887936988288	0
4	2459	338587.118217797471	1
4	2461	338587.118217797471	0
4	2467	339381.909782542579	1
4	2469	339381.909782542579	0
4	2507	344399.744895735485	1
4	2512	344648.458809213732	0
4	2518	345382.695499474818	1
4	2520	345382.695499474818	0
4	2535	346533.243446338617	1
4	2537	346533.243446338617	0
4	2543	347732.850980564523	1
4	2545	347732.850980564523	0
4	2552	348861.966341086734	1
4	2554	348861.966341086734	0
4	2602	352319.434831618955	1
4	2604	352319.434831618955	0
4	2607	352488.437675610774	1
4	2612	352624.173181014379	0
4	2615	352745.351042868783	1
4	2620	352937.839722349485	0
4	2623	353052.63332786501	1
4	2628	353232.796988840005	0
4	2635	354124.280341462767	1
4	2637	354124.280341462767	0
4	2653	358347.017614056288	1
4	2655	358347.017614056288	0
4	2686	361865.763064124481	1
4	2688	361865.763064124481	0
4	2703	362565.117043656919	1
4	2705	362565.117043656919	0
4	2719	363546.124702348462	1
4	2721	363546.124702348462	0
4	2744	365393.303243612771	1
4	2746	365393.303243612771	0
4	2761	366425.26821931684	1
4	2763	366425.26821931684	0
4	2774	367341.427689281185	1
4	2779	367379.649912821574	0
4	2782	367646.774198756366	1
4	2787	367705.641567667585	0
4	2794	369145.150350412581	1
4	2796	369145.150350412581	0
4	2818	369821.059599608463	1
4	2829	370280.762616579093	0
4	2843	371963.271923898753	1
4	2845	371963.271923898753	0
4	2857	372394.992366984599	1
4	2862	372533.83618135728	0
4	2873	372964.673866612173	1
4	2878	373196.500186912438	0
4	2884	373691.241761713141	1
4	2886	373691.241761713141	0
4	2893	375472.465685923295	1
4	2895	375472.465685923295	0
4	2902	376044.270994486617	1
4	2904	376044.270994486617	0
4	2919	379325.37314743902	1
4	2921	379325.37314743902	0
4	2938	384087.537562448707	1
4	2940	384087.537562448707	0
4	2955	387955.331039851047	1
4	2957	387955.331039851047	0
4	2992	396036.544091402126	1
4	2994	396036.544091402126	0
4	3013	396909.003728076591	1
4	3018	397001.562525064473	0
4	3025	398669.917854078029	1
4	3027	398669.917854078029	0
4	3033	399284.841985746626	1
4	3035	399284.841985746626	0
4	3049	399922.817219344804	1
4	3068	400704.432202541866	0
4	3083	402998.9021994889	1
4	3085	402998.9021994889	0
4	3091	403416.554391471455	1
4	3093	403416.554391471455	0
4	3096	403514.819099587641	1
4	3101	403739.529532736995	0
4	3113	404301.543337298474	1
4	3118	404371.124448101633	0
4	3133	407060.460575807977	1
4	3135	407060.460575807977	0
4	3150	409118.57493354279	1
4	3152	409118.57493354279	0
4	3159	411641.051260696683	1
4	3161	411641.051260696683	0
4	3178	417528.648513304783	1
4	3180	417528.648513304783	0
4	3212	420572.456744081419	1
4	3214	420572.456744081419	0
4	3244	421819.325818132758	1
4	3246	421819.325818132758	0
4	3253	423373.572566279439	1
4	3255	423373.572566279439	0
4	3261	423690.159413983086	1
4	3263	423690.159413983086	0
4	3266	423720.205076099769	1
4	3271	423966.762523846063	0
4	3278	424370.409139534268	1
4	3280	424370.409139534268	0
4	3304	428216.936518721166	1
4	3306	428216.936518721166	0
4	3320	429754.209863389363	1
4	3322	429754.209863389363	0
4	3329	431842.828664030517	1
4	3331	431842.828664030517	0
4	3357	438488.929575918748	1
4	3359	438488.929575918748	0
4	3365	438865.245359448428	1
4	3367	438865.245359448428	0
4	3383	442399.495455147102	1
4	3385	442399.495455147102	0
4	3417	447342.339237419654	1
4	3419	447342.339237419654	0
4	3422	447441.420374287006	1
4	3427	447603.066297034685	0
4	3442	449545.944109014875	1
4	3444	449545.944109014875	0
4	3467	451036.576739464687	1
4	3469	451036.576739464687	0
4	3492	453359.873766408885	1
4	3494	453359.873766408885	0
4	3500	453921.813285803018	1
4	3502	453921.813285803018	0
4	3509	454315.73128223671	1
4	3511	454315.73128223671	0
4	3517	454932.663438119027	1
4	3519	454932.663438119027	0
4	3540	459649.968163058613	1
4	3554	460033.258116117017	0
4	3561	462150.993226006033	1
4	3563	462150.993226006033	0
4	3566	462445.828657657907	1
4	3571	462455.417300476416	0
4	3595	467385.358832127715	1
4	3597	467385.358832127715	0
4	3645	470788.894233421984	1
4	3647	470788.894233421984	0
4	3661	471822.777203727238	1
4	3663	471822.777203727238	0
4	3675	472171.588756252511	1
4	3680	472377.201198535621	0
4	3683	472477.261005574005	1
4	3688	472645.586331914827	0
4	3694	473190.851923666476	1
4	3696	473190.851923666476	0
4	3699	473195.499818214652	1
4	3704	473520.551830519115	0
4	3711	474451.818937017914	1
4	3713	474451.818937017914	0
4	3719	474846.952844479049	1
4	3721	474846.952844479049	0
4	3750	478998.943915045087	1
4	3755	479101.11318847785	0
4	3758	479104.908060925603	1
4	3763	479395.732949979853	0
4	3778	481763.114582554412	1
4	3780	481763.114582554412	0
4	3787	482921.38027211403	1
4	3789	482921.38027211403	0
4	3830	488246.777774874506	1
4	3832	488246.777774874506	0
4	3843	489258.090398351123	1
4	3848	489290.203461123096	0
4	3859	489843.250591272784	1
4	3864	489927.95712417081	0
4	3868	490156.373484350584	1
4	3873	490272.592041297989	0
4	3895	491985.442553773838	1
4	3897	491985.442553773838	0
4	3912	493010.295929733153	1
4	3914	493010.295929733153	0
4	3920	493939.286179890148	1
4	3922	493939.286179890148	0
4	3926	494082.281308535799	1
4	3931	494216.344503841593	0
4	3937	495320.677237205379	1
4	3939	495320.677237205379	0
4	3969	500108.708040461067	1
4	3974	500274.46334070162	0
4	3981	502437.0243227745	1
4	3983	502437.0243227745	0
4	3989	502856.335643150789	1
4	3991	502856.335643150789	0
4	4023	506958.764460104991	1
4	4025	506958.764460104991	0
4	4031	507591.800589094358	1
4	4033	507591.800589094358	0
4	4040	508600.937097278621	1
4	4042	508600.937097278621	0
[...]
7	1673	229355.827355306703	3
7	1676	230627.265001265635	2
7	1684	231443.684101638519	1
7	1693	232235.019348805106	0
7	1711	235349.577074613455	1
7	1716	235650.857889311291	2
7	1720	238316.040917581718	1
7	1725	238518.981910027008	0
7	1742	239571.097529548202	1
7	1751	241099.867271393203	2
7	1754	242547.209187603485	1
7	1763	244189.857788115461	0
7	1777	244994.035969353701	1
7	1780	247706.00074131883	0
7	1796	251262.094759260135	1
7	1805	253272.0156267745	2
7	1807	253661.112568385941	1
7	1822	254337.965134430498	2
7	1830	255495.950622147377	3
7	1833	256437.845904453802	2
7	1841	257105.621446327385	1
7	1855	257684.00330652897	2
7	1863	258151.585794717879	1
7	1867	258417.878684865749	2
7	1875	260232.263942817359	1
7	1889	260875.374457937674	2
7	1897	261326.605233627542	3
7	1899	261396.027620464834	2
7	1908	263676.267169917909	1
7	1913	263913.364998968825	0
7	1931	265413.892615680495	1
7	1940	267100.445517217617	2
7	1942	267523.726175007098	1
7	1951	269507.139191543754	0
7	1966	270079.435242487503	1
7	1969	273262.907471624606	0
7	1984	274713.889895785442	1
7	1992	275709.11821189828	2
7	2001	276559.437061268125	3
7	2008	277501.723629349024	2
7	2012	277697.405201729408	3
7	2020	278461.405098181329	2
7	2028	279438.741828891518	1
7	2037	280528.801664808145	0
7	2053	284792.279167809152	1
7	2061	285572.971820469504	2
7	2070	286745.79199061175	3
7	2073	288090.734221199277	2
7	2081	288245.214440779434	1
7	2090	288692.252465156515	2
7	2097	289391.315262781916	1
7	2112	290930.064947448493	2
7	2114	291576.529682321038	1
7	2123	293748.480648609904	0
7	2139	297897.963291389141	1
7	2148	298972.348395221437	2
7	2151	300558.743133711181	1
7	2159	301507.626247961495	0
7	2174	302117.584831750288	1
7	2192	304168.794805288716	2
7	2200	304493.647486992235	3
7	2204	304747.153494504329	2
7	2208	304751.733275768373	3
7	2213	305041.054813015444	4
7	2218	305356.141269526614	5
7	2232	306044.245027144324	6
7	2234	306834.683685835239	5
7	2239	307094.128755621119	4
7	2247	307381.798160907519	3
7	2255	307475.608745857221	2
7	2263	307753.622498398068	1
7	2272	308167.902793333873	0
7	2290	311494.029580201755	1
7	2299	312713.533182128698	2
7	2302	314450.176006563829	1
7	2316	315059.027235482647	2
7	2318	315577.940590951335	1
7	2333	316172.266851616209	2
7	2340	317500.335239684322	1
7	2344	317508.1164108611	2
7	2358	318959.022272465534	3
7	2360	319018.8291761948	2
7	2369	320595.688551816752	1
7	2377	321845.774354558386	0
7	2392	322449.533391524297	1
7	2400	323293.553836068882	2
7	2403	325408.19512673103	1
7	2417	325943.444283115519	2
7	2419	325946.853975852977	1
7	2429	328905.887936988288	0
7	2446	335829.057145471061	1
7	2455	336355.927770855966	2
7	2458	338587.118217797471	1
7	2466	339381.909782542579	0
7	2481	341562.046705902974	1
7	2490	342405.686795391625	2
7	2502	344341.372608512714	3
7	2506	344399.744895735485	2
7	2510	344648.458809213732	3
7	2517	345382.695499474818	2
7	2532	346163.641269921893	3
7	2534	346533.243446338617	2
7	2542	347732.850980564523	1
7	2551	348861.966341086734	0
7	2571	349443.231254022481	1
7	2576	349767.216694187536	2
7	2585	350080.10267184336	3
7	2590	350332.443222815981	4
7	2598	351198.249184896076	5
7	2601	352319.434831618955	4
7	2606	352488.437675610774	3
7	2614	352745.351042868783	2
7	2622	353052.63332786501	1
7	2634	354124.280341462767	0
7	2648	355668.764908273763	1
7	2652	358347.017614056288	0
7	2666	359088.198733356596	1
7	2674	359856.495000033382	2
7	2683	361061.009654698538	3
7	2685	361865.763064124481	2
7	2700	362468.753875508251	3
7	2702	362565.117043656919	2
7	2716	363510.552450744869	3
7	2718	363546.124702348462	2
7	2733	364616.77420197069	3
7	2741	365322.785251363154	4
7	2743	365393.303243612771	3
7	2758	366223.843453549116	4
7	2760	366425.26821931684	3
7	2773	367341.427689281185	2
7	2777	367379.649912821574	3
7	2781	367646.774198756366	2
7	2793	369145.150350412581	1
7	2813	369690.642869355183	2
7	2817	369821.059599608463	1
7	2822	370008.627674682173	2
7	2827	370280.762616579093	3
7	2840	371287.83533609441	4
7	2842	371963.271923898753	3
7	2856	372394.992366984599	2
7	2860	372533.83618135728	3
7	2872	372964.673866612173	2
7	2876	373196.500186912438	3
7	2883	373691.241761713141	2
7	2892	375472.465685923295	1
7	2901	376044.270994486617	0
7	2915	376800.131345058986	1
7	2918	379325.37314743902	0
7	2933	381337.400793594283	1
7	2937	384087.537562448707	0
7	2951	385056.532916713181	1
7	2954	387955.331039851047	0
7	2971	393055.290689400152	1
7	2979	393718.748952749092	2
7	2988	395487.915292155264	3
7	2991	396036.544091402126	2
7	3008	396689.684674422844	3
7	3012	396909.003728076591	2
7	3016	397001.562525064473	3
7	3024	398669.917854078029	2
7	3032	399284.841985746626	1
7	3048	399922.817219344804	0
7	3053	400063.348776631622	1
7	3061	400351.034091072671	2
7	3066	400704.432202541866	3
7	3079	401694.786414128081	4
7	3082	402998.9021994889	3
7	3090	403416.554391471455	2
7	3095	403514.819099587641	1
7	3112	404301.543337298474	0
7	3116	404371.124448101633	1
7	3130	406805.333705457143	2
7	3132	407060.460575807977	1
7	3147	408788.590126679292	2
7	3149	409118.57493354279	1
7	3158	411641.051260696683	0
7	3174	414654.149683935668	1
7	3177	417528.648513304783	0
7	3192	418076.675210273971	1
7	3200	419143.505494079615	2
7	3209	420274.237219285282	3
7	3211	420572.456744081419	2
7	3228	421170.713166762578	3
7	3233	421466.726169591569	4
7	3241	421781.70881743598	5
7	3243	421819.325818132758	4
7	3252	423373.572566279439	3
7	3260	423690.159413983086	2
7	3265	423720.205076099769	1
7	3277	424370.409139534268	0
7	3291	425297.357384710291	1
7	3300	427122.135417737171	2
7	3303	428216.936518721166	1
7	3317	429302.394729052228	2
7	3319	429754.209863389363	1
7	3328	431842.828664030517	0
7	3348	436017.39076865282	1
7	3353	436320.139705441198	2
7	3356	438488.929575918748	1
7	3364	438865.245359448428	0
7	3378	439669.927950178159	1
7	3382	442399.495455147102	0
7	3400	444519.114362674372	1
7	3405	444860.645063266876	2
7	3414	446466.838418687832	3
7	3416	447342.339237419654	2
7	3421	447441.420374287006	1
7	3439	448436.765892429294	2
7	3441	449545.944109014875	1
7	3459	450683.798038776163	2
7	3464	451003.445574681875	3
7	3466	451036.576739464687	2
7	3480	451599.244078817478	3
7	3489	452485.120296024068	4
7	3491	453359.873766408885	3
7	3499	453921.813285803018	2
7	3508	454315.73128223671	1
7	3516	454932.663438119027	0
7	3531	457279.317939144095	1
7	3539	459649.968163058613	0
7	3546	459695.234938826653	1
7	3552	460033.258116117017	2
7	3560	462150.993226006033	1
7	3565	462445.828657657907	0
7	3583	464772.611881652046	1
7	3592	467331.583523885725	2
7	3594	467385.358832127715	1
7	3612	468699.991427122987	2
7	3620	468977.710744883709	3
7	3625	469280.165522103134	4
7	3636	469934.892941186168	5
7	3642	470258.690339452185	6
7	3644	470788.894233421984	5
7	3658	471709.370995193571	6
7	3660	471822.777203727238	5
7	3674	472171.588756252511	4
7	3678	472377.201198535621	5
7	3682	472477.261005574005	4
7	3693	473190.851923666476	3
7	3698	473195.499818214652	2
7	3710	474451.818937017914	1
7	3718	474846.952844479049	0
7	3732	475563.590562807499	1
7	3741	476589.823852417475	2
7	3749	478998.943915045087	1
7	3753	479101.11318847785	2
7	3757	479104.908060925603	1
7	3775	480363.114068652734	2
7	3777	481763.114582554412	1
7	3786	482921.38027211403	0
7	3801	485484.432706501468	1
7	3810	486647.352786043337	2
7	3821	487107.365815071919	3
7	3826	487415.665576149153	4
7	3829	488246.777774874506	3
7	3842	489258.090398351123	2
7	3846	489290.203461123096	3
7	3858	489843.250591272784	2
7	3862	489927.95712417081	3
7	3867	490156.373484350584	2
7	3887	491057.923228232233	3
7	3892	491372.681890235552	4
7	3894	491985.442553773838	3
7	3909	492746.72454289627	4
7	3911	493010.295929733153	3
7	3919	493939.286179890148	2
7	3925	494082.281308535799	1
7	3936	495320.677237205379	0
7	3951	497562.50577426667	1
7	3960	499616.499551249443	2
7	3968	500108.708040461067	1
7	3972	500274.46334070162	2
7	3980	502437.0243227745	1
7	3988	502856.335643150789	0
7	4002	503579.830050028447	1
7	4011	505184.98143590565	2
7	4019	505960.000370638597	3
7	4022	506958.764460104991	2
7	4030	507591.800589094358	1
7	4039	508600.937097278621	0
7	4053	509890.188613298814	1
7	4063	512099.172893120202	2
7	4065	512703.43297008907	1
7	4082	513382.445397767236	2
7	4090	513660.335119531497	3
7	4095	513975.165292551655	4
7	4103	514637.407138635849	3
7	4107	514857.811981705393	4
7	4115	516003.419968174009	3
7	4123	516506.077856687003	2
7	4131	516991.717975766933	1
7	4145	517648.308624230747	2
7	4147	517760.350353250341	1
7	4157	520281.818821505158	0
7	4171	521318.997585474717	1
7	4180	523382.705218567509	2
7	4183	524121.63258636525	1
7	4191	525730.088128257112	0
7	4211	536195.164226163296	1
7	4214	538981.265672554083	0
7	4230	542215.073654403762	1
7	4233	544851.233924071216	0
7	4248	546226.93299082781	1
7	4251	549119.648885379192	0
7	4270	559869.738921518486	1
7	4282	561302.336784892495	2
7	4287	561542.611904897154	3
7	4290	562506.830917076948	2
7	4303	563748.617449367148	1
7	4307	563941.703336528519	2
7	4320	564269.725898708154	1
7	4324	564444.761360429468	2
7	4337	565538.823992089493	3
7	4346	566000.004433161309	4
7	4348	566398.282654514612	3
7	4362	567017.656658843968	4
7	4364	567336.093973554277	3
7	4373	568088.959513791804	2
7	4381	568696.007290600146	1
7	4389	569358.383663308493	0
7	4406	569971.585327179444	1
7	4412	570282.515556634542	2
7	4420	570658.700230917237	3
7	4428	571515.257289528112	4
7	4437	572310.390395913824	5
7	4439	573008.063240852598	4
7	4444	573088.065019101296	3
7	4452	573294.428110053675	2
7	4464	574263.801168631589	1
7	4472	575114.019357171959	0
7	4487	577677.608150660039	1
7	4496	578326.992761651311	2
7	4499	580341.441240684934	1
7	4507	581283.812590605198	0
7	4524	586606.136727432448	1
7	4532	587685.903863344987	2
7	4541	588341.046645164946	3
7	4543	589368.486063192556	2
7	4552	590327.8453339598	1
7	4560	591468.283352216476	0
7	4575	592609.9174801022	1
7	4584	595436.020320416051	2
7	4591	595973.643546883692	1
7	4596	596015.316018209654	2
7	4609	597882.506109819806	3
7	4612	598243.835580705441	2
7	4620	599157.224554713477	1
7	4635	600374.776917533938	2
7	4642	601082.084312846412	1
7	4646	601185.741818518204	2
7	4654	603037.757104179886	1
7	4663	604105.953017260464	0
7	4678	606398.777665330597	1
7	4687	609162.56899552247	2
7	4689	609534.578752723962	1
7	4704	610592.450217074604	2
7	4706	611694.897734072978	1
7	4727	612812.952846625308	2
7	4731	613052.314227873594	1
7	4735	613143.163325752734	2
7	4740	613456.280628349982	3
7	4754	614091.013703020642	4
7	4756	615441.682212338818	3
7	4764	615850.763866336229	2
7	4773	616304.490630257697	1
7	4787	616961.99037114937	2
7	4789	617243.599237717597	1
7	4798	619393.150358231494	0
7	4814	623587.303933567114	1
7	4818	626079.387862533597	0
7	4837	631440.134744313573	1
7	4842	631721.157502929997	2
7	4851	632269.66043997931	3
7	4859	632770.028833728688	4
7	4862	634104.653913455849	3
7	4875	634456.852963333113	2
7	4879	634690.145828387552	3
7	4883	634843.342718071299	2
7	4899	635765.011034187285	1
7	4903	635958.682038178045	2
7	4920	636875.67316645952	3
7	4928	637181.291825706395	4
7	4932	637338.804693223685	3
7	4936	637518.368085623674	4
7	4943	637888.411899993132	3
7	4952	639107.972284848461	2
7	4960	639896.95953765811	1
7	4966	640140.104900591673	0
7	4983	640776.440201894435	1
7	4992	642776.439802287604	2
7	5000	643937.354233458326	3
7	5003	644026.189415322913	2
7	5011	645215.32148073889	1
7	5020	646917.592001084359	0
7	5037	652205.487038960075	1
7	5045	652480.685861095766	2
7	5053	653455.276260726112	3
7	5064	653827.209676409584	4
7	5070	654138.764686430079	5
7	5072	654542.740964287116	4
7	5080	654957.962014681551	3
7	5088	655630.662529325927	2
7	5103	656209.638814107703	3
7	5105	656350.111806679336	2
7	5110	656520.174630366839	1
7	5122	659063.475446517378	0
7	5137	660044.987109251156	1
7	5148	661192.518279278899	2
7	5153	661489.635837087205	3
7	5161	661861.148860752071	4
7	5164	663059.464960396348	3
7	5178	663969.197923277108	4
7	5181	664161.551733125872	3
7	5186	664286.786860557417	2
7	5197	664755.896018549347	1
7	5206	665151.690847150039	2
7	5219	665789.244130039074	3
7	5222	666700.970000133214	2
7	5231	668138.670416413868	1
7	5239	668668.101665688279	0
7	5254	671932.900093269424	1
7	5263	672440.689639792626	2
7	5271	673852.5757286908	3
7	5274	674460.308288588655	2
7	5282	675268.118667333808	1
7	5291	676372.518807534618	0
7	5306	678692.201833166848	1
7	5315	680943.198952922344	2
7	5322	681320.334271006724	1
7	5326	681584.410622206635	2
7	5334	683845.618454155904	1
7	5343	684012.077452832745	0
7	5352	684466.313394470765	1
7	5360	687120.021088031656	0
7	5374	687890.131556435941	1
7	5378	690306.538015927996	0
7	5392	691094.884416853134	1
7	5395	693713.838158627395	0
7	5410	694725.316200629738	1
7	5421	695704.354912016162	2
7	5427	696038.990562021929	3
7	5434	697201.679261911505	2
7	5438	697429.159828332088	3
7	5442	697704.496565708484	2
7	5454	699252.91129955532	1
7	5471	699908.915808928082	2
7	5476	700087.791239373473	1
7	5480	700187.726579133959	2
7	5494	702535.837082135085	3
7	5496	702916.684673335252	2
7	5501	703072.56230571268	1
7	5513	705144.434984210625	0
7	5530	710236.423276965465	1
7	5538	710639.085916477865	2
7	5547	712394.334017831925	3
7	5549	712559.500868178958	2
7	5557	713085.972333987527	1
7	5566	715170.933339600809	0
7	5580	715777.750749308036	1
7	5589	717717.371684362196	2
7	5592	718459.66780373209	1
7	5606	719109.875817183221	2
7	5609	720325.750087007132	1
7	5617	721463.530282632321	0
7	5632	722080.891304847706	1
7	5640	723903.513853734849	2
7	5649	724611.488052059379	3
7	5656	724924.842733419394	2
7	5660	725142.144597913678	3
7	5668	726786.212342555128	2
7	5676	727511.136846926687	1
7	5687	727717.263673447833	0
7	5697	728048.42756599368	1
7	5702	728337.31845409765	2
7	5715	728917.788709289675	3
7	5718	730347.911628973721	2
7	5726	730969.420208981004	1
7	5734	731374.239576428866	0
7	5749	732429.894719562146	1
7	5757	734959.068903588965	0
7	5761	734965.47898824513	1
7	5777	735609.42987214542	2
7	5782	735907.619865126583	3
7	5785	737935.586616407944	2
7	5794	738372.049259060835	1
7	5808	739059.046979340192	2
7	5810	739272.902905367978	1
7	5819	741007.06521078549	0
7	5833	741599.312300009353	1
7	5837	744465.671061539781	0
7	5852	746728.847633255088	1
7	5861	748556.387656720346	2
7	5863	748918.701920873606	1
7	5877	749521.288649997711	2
7	5885	749829.912130212841	3
7	5888	750854.062177893512	2
7	5903	752209.806836499596	3
7	5905	752332.771948727742	2
7	5910	752481.715557938052	1
7	5927	753249.351057191873	2
7	5930	754868.991188966515	1
7	5944	755500.722603556933	2
7	5946	755823.790529612495	1
7	5964	756509.942100761773	2
7	5969	756801.10621707251	3
7	5972	758407.615471983418	2
7	5980	759110.27098017072	1
7	5988	759519.177881899806	0
7	6003	760173.35021060598	1
7	6011	761335.538828673868	2
7	6014	762496.199497339248	1
7	6029	764222.322499058411	2
7	6031	764241.527891656209	1
7	6045	764720.872611132757	2
7	6053	766964.734821180724	1
7	6056	766983.034115508078	0
7	6060	767304.453384656025	1
7	6079	768927.892988480213	2
7	6082	770069.440274970109	1
7	6090	771636.446802538914	0
7	6105	772515.027669024623	1
7	6113	775403.835107888488	0
7	6117	775450.253510323102	1
7	6131	776158.456949494735	2
7	6139	778256.003413009045	1
7	6143	778346.007395096667	2
7	6150	779083.405298893242	1
7	6159	781000.935737611895	0
7	6174	783725.298067085135	1
7	6183	785606.072224548797	2
7	6186	786033.861280528605	1
7	6200	786685.662424925614	2
7	6208	787635.428024343031	3
7	6217	788286.405082357574	4
7	6219	788296.813438454526	3
7	6233	789598.010945376846	4
7	6235	789682.551318987973	3
7	6249	790551.587522055318	2
7	6253	790591.590976304422	3
7	6257	790747.588712000441	2
7	6269	792061.883159127295	1
7	6277	792795.66523932576	0
7	6295	794436.577302019921	1
7	6300	794761.074677682753	2
7	6312	797061.741967427199	3
7	6317	797369.952570826603	4
7	6319	797370.627513265693	3
7	6328	798073.946114878604	2
7	6342	798757.786394553951	3
7	6345	800153.246507635806	2
7	6350	800375.540530410851	1
7	6361	801666.914082928219	0
7	6376	802276.673087570036	1
7	6379	804502.134479308113	0
7	6394	807464.095353333217	1
7	6402	807899.275038167896	2
7	6411	808744.660507538675	3
7	6419	809092.25315880347	4
7	6421	809933.590707571162	3
7	6426	809953.656764569244	2
7	6438	811376.546662490115	1
7	6443	811572.574446709765	0
7	6465	820489.886939836779	1
7	6473	821011.502735363227	2
7	6481	821288.47936981991	3
7	6490	822073.670260511479	4
7	6492	823102.789978959191	3
7	6500	823788.190184987457	2
7	6506	824025.728089710326	1
7	6517	825387.495543008531	0
7	6532	826940.940057782446	1
7	6540	829545.597215980908	0
7	6544	829695.63226132123	1
7	6558	831213.426292275269	2
7	6561	832715.513308220411	1
7	6570	834209.799177116959	0
7	6584	834855.934955358658	1
7	6593	836033.89284238951	2
7	6600	837318.576333593949	1
7	6604	837543.544453345611	2
7	6612	838899.797020570615	1
7	6620	839936.521824311872	0
7	6635	840607.944468747207	1
7	6643	840994.24026248203	2
7	6646	843285.400198854403	1
7	6651	843331.454905808404	0
7	6669	845452.362435712604	1
7	6678	848303.941514241585	0
7	6682	848324.500312385533	1
7	6695	849675.141535695908	2
7	6703	849955.352061524597	3
7	6706	850714.545305353899	2
7	6720	852382.627182460431	1
7	6724	852564.09721561968	2
7	6731	852882.469670783985	1
7	6746	854065.251653847912	2
7	6748	855084.452491946763	1
7	6763	856009.383679849114	2
7	6765	857033.723936776271	1
7	6774	858588.322911926727	0
7	6788	859187.167168799785	1
7	6797	861510.425605435463	2
7	6806	862048.064341915427	3
7	6808	862099.274835392036	2
7	6817	864245.95131962568	1
7	6825	865014.823325669427	0
7	6840	867204.802537605612	1
7	6849	869027.802224674819	2
7	6851	869876.647936204042	1
7	6866	871203.229768839263	2
7	6868	871767.679776289286	1
7	6883	873355.929829876685	2
7	6890	873550.650592777815	1
7	6894	873723.651252481147	2
7	6908	875151.006296183222	3
7	6916	875494.626253788828	4
7	6919	876400.666005938325	3
7	6924	876405.259204084269	2
7	6941	877288.789003299561	3
7	6943	877717.876117385747	2
7	6952	878618.634151485807	1
7	6966	879657.179015170131	2
7	6968	879813.584936064006	1
7	6983	881624.153412033206	2
7	6986	882302.100347198247	1
7	7000	883314.647910611799	2
7	7008	883751.398148142083	3
7	7011	884387.791258660413	2
7	7020	886116.862167165977	1
7	7025	886417.175473455581	0
7	7042	887184.710173970678	1
7	7051	888555.964844109835	2
7	7053	889761.364581151241	1
7	7062	891166.005890894893	0
7	7076	891737.835764997596	1
7	7079	893985.937113681925	0
7	7095	897435.687310438009	1
7	7104	899810.822395461372	2
7	7107	900151.254802428025	1
7	7122	902035.532442812334	2
7	7124	902543.332163714977	1
7	7133	904723.857577303519	0
7	7153	905356.508454928509	1
7	7158	905680.774833222567	2
7	7163	905962.282525786615	3
7	7172	906778.237411357252	4
7	7175	908230.465808612599	3
7	7186	908370.005807484	2
7	7189	908385.454675085416	1
7	7198	908872.434835961941	2
7	7202	908885.435782614176	1
7	7206	909179.509053616708	2
7	7230	910688.34386587608	3
7	7232	911111.107082725739	2
7	7241	912366.549837980029	1
7	7249	913406.541727505067	0
7	7265	916553.302091255538	1
7	7273	917368.835965016098	2
7	7282	918290.49702233096	3
7	7292	919093.64794223284	2
7	7296	919201.004523823154	3
7	7301	919456.363534359582	4
7	7316	919855.425528447114	3
7	7321	920044.80655109835	4
7	7326	920343.927054249539	5
7	7333	921239.345590671822	4
7	7341	921972.293955321181	3
7	7350	922523.267837046802	2
7	7355	922616.3219043973	1
7	7366	923474.399120378912	0
7	7384	925172.920562391083	1
7	7389	925480.197602597688	2
7	7401	926252.427034153407	3
7	7406	926573.899407734509	4
7	7417	927440.730304397987	5
7	7422	927737.02612124586	6
7	7425	928120.971632342967	5
7	7430	928124.088559631998	4
7	7441	929315.062418102326	3
7	7446	929644.595099921188	2
7	7458	930019.919240099532	1
7	7466	930344.963403240002	0
7	7485	940437.716548592607	1
7	7493	941844.429725586789	2
7	7502	942697.007426160905	3
7	7504	943109.167381414667	2
7	7513	944686.342084342356	1
7	7521	945106.668291068908	0
7	7536	946471.323384343374	1
7	7545	948631.366355593894	2
7	7553	948987.906786275801	3
7	7555	949576.330232512645	2
