file 140633 1483966553                                          
version 2
run QueueMeasurement-109-20170109-13:55:53-4142
attr configname QueueMeasurement
attr datetime 20170109-13:55:53
attr experiment QueueMeasurement
attr inifile queueStudy.ini
attr iterationvars ""
attr iterationvars2 $repetition=109
attr measurement ""
attr network controltower.SimNetwork
attr processid 4142
attr repetition 109
attr replication #109
attr resultdir results
attr runnumber 109
attr seedset 109
param SimNetwork.a.parkingLot.parkingDelay "truncnormal(45min, 5 min)"
param SimNetwork.a.runway.landingTime "truncnormal(5min, 0.5min)"
param SimNetwork.a.runway.takeoffTime "truncnormal(5min, 0.5min)"
param SimNetwork.a.runway.throughputCheckInterval 33.333min
param SimNetwork.wg.interArrivalTime exponential(33.333min)

vector 7  SimNetwork.a.parkingLot  parkingOccupancy:vector  ETV
attr source  parkingOccupancy
vector 4  SimNetwork.a.takeoffQueue  queueLength:vector  ETV
attr source  queueLengthSignal
vector 3  SimNetwork.a.takeoffQueue  queueTime:vector  ETV
attr source  queueTimeSignal
vector 0  SimNetwork.wg  responseTime:vector  ETV
attr source  responseTimeSignal
vector 5  SimNetwork.a.runway  landedThroughput:vector  ETV
attr source  landedThroughputSignal
vector 6  SimNetwork.a.runway  tookoffThroughput:vector  ETV
attr source  tookoffThroughputSignal
vector 2  SimNetwork.a.landingQueue  queueLength:vector  ETV
attr source  queueLengthSignal
vector 1  SimNetwork.a.landingQueue  queueTime:vector  ETV
attr source  queueTimeSignal
0	1474 18663 690 8097 87827.902918697206 949602.932572031712 437 3167.6763288394 12999.704226103 2348518.5247292 14017672429.034
1	20137 14380 705 8111 90155.064248774071 950248.560907093015 438 0 465.97966360648 20758.86973902 4641966.7785419
2	34517 25253 703 8111 90155.064248774071 950248.560907093015 876 0 2 450 462
3	59770 14296 687 8094 87530.643319566125 949303.298787569997 437 0 934.21607321688 28921.623999126 11185142.067573
4	74066 25208 685 8094 87530.643319566125 949303.298787569997 874 0 3 461 497
5	99274 8081 692 8104 87999.12 949990.5 432 0 5 436 828
6	107355 8081 692 8104 87999.12 949990.5 432 0 5 438 850
7	115436 25197 684 8109 87530.643319566125 950248.560907093015 874 0 6 1605 4269
