version 2
run QueueMeasurement-73-20170109-13:55:37-4070
attr configname QueueMeasurement
attr datetime 20170109-13:55:37
attr experiment QueueMeasurement
attr inifile queueStudy.ini
attr iterationvars ""
attr iterationvars2 $repetition=73
attr measurement ""
attr network controltower.SimNetwork
attr processid 4070
attr repetition 73
attr replication #73
attr resultdir results
attr runnumber 73
attr seedset 73
param SimNetwork.a.parkingLot.parkingDelay "truncnormal(45min, 5 min)"
param SimNetwork.a.runway.landingTime "truncnormal(5min, 0.5min)"
param SimNetwork.a.runway.takeoffTime "truncnormal(5min, 0.5min)"
param SimNetwork.a.runway.throughputCheckInterval 33.333min
param SimNetwork.wg.interArrivalTime exponential(33.333min)

statistic SimNetwork.wg 	responseTime:stats
field count 397
field mean 5590.7357186975
field stddev 2109.6754311176
field sum 2219522.0803229
field sqrsum 14171250621.065
field min 2702.2947281501
field max 16704.833601476
attr source  responseTimeSignal
scalar SimNetwork.a.landingQueue 	queueLength:timeavg 	0.025043648982319
attr source  queueLengthSignal
statistic SimNetwork.a.landingQueue 	queueLength:stats
field count 790
field mean 0.53037974683544
field stddev 0.53374218257508
field sum 419
field sqrsum 447
field min 0
field max 3
attr source  queueLengthSignal
statistic SimNetwork.a.landingQueue 	queueTime:stats
field count 395
field mean 54.647841596169
field stddev 113.42480877305
field sum 21585.897430487
field sqrsum 6248506.4781023
field min 0
field max 841.28433913987
attr source  queueTimeSignal
scalar SimNetwork.a.takeoffQueue 	queueLength:timeavg 	0.028042255402959
attr source  queueLengthSignal
statistic SimNetwork.a.takeoffQueue 	queueLength:stats
field count 794
field mean 0.5176322418136
field stddev 0.51735717563507
field sum 411
field sqrsum 425
field min 0
field max 2
attr source  queueLengthSignal
statistic SimNetwork.a.takeoffQueue 	queueTime:stats
field count 397
field mean 60.989227842951
field stddev 141.79124519857
field sum 24212.723453652
field sqrsum 9438199.1645377
field min 0
field max 1048.1331630782
attr source  queueTimeSignal
scalar SimNetwork.a.parkingLot 	parkingOccupancy:timeavg 	1.2355495195899
attr source  parkingOccupancy
statistic SimNetwork.a.parkingLot 	parkingOccupancy:stats
field count 792
field mean 1.7070707070707
field stddev 1.1488687361908
field sum 1352
field sqrsum 3352
field min 0
field max 6
attr source  parkingOccupancy
