version 2
run QueueMeasurement-2-20170109-13:55:10-3931
attr configname QueueMeasurement
attr datetime 20170109-13:55:10
attr experiment QueueMeasurement
attr inifile queueStudy.ini
attr iterationvars ""
attr iterationvars2 $repetition=2
attr measurement ""
attr network controltower.SimNetwork
attr processid 3931
attr repetition 2
attr replication #2
attr resultdir results
attr runnumber 2
attr seedset 2
param SimNetwork.a.parkingLot.parkingDelay "truncnormal(45min, 5 min)"
param SimNetwork.a.runway.landingTime "truncnormal(5min, 0.5min)"
param SimNetwork.a.runway.takeoffTime "truncnormal(5min, 0.5min)"
param SimNetwork.a.runway.throughputCheckInterval 33.333min
param SimNetwork.wg.interArrivalTime exponential(33.333min)

statistic SimNetwork.wg 	responseTime:stats
field count 403
field mean 5570.0367779896
field stddev 2126.4552073423
field sum 2244724.8215298
field sqrsum 14320968135.418
field min 2631.8463939097
field max 16778.208581524
attr source  responseTimeSignal
scalar SimNetwork.a.landingQueue 	queueLength:timeavg 	0.022414393734587
attr source  queueLengthSignal
statistic SimNetwork.a.landingQueue 	queueLength:stats
field count 804
field mean 0.51492537313433
field stddev 0.51481282858066
field sum 414
field sqrsum 426
field min 0
field max 2
attr source  queueLengthSignal
statistic SimNetwork.a.landingQueue 	queueTime:stats
field count 402
field mean 47.994114197603
field stddev 95.36363163553
field sum 19293.633907436
field sqrsum 4572763.9867658
field min 0
field max 510.7239752134
attr source  queueTimeSignal
scalar SimNetwork.a.takeoffQueue 	queueLength:timeavg 	0.036359367915718
attr source  queueLengthSignal
statistic SimNetwork.a.takeoffQueue 	queueLength:stats
field count 804
field mean 0.53980099502488
field stddev 0.55092627555318
field sum 434
field sqrsum 478
field min 0
field max 3
attr source  queueLengthSignal
statistic SimNetwork.a.takeoffQueue 	queueTime:stats
field count 402
field mean 77.902722580928
field stddev 187.75758814797
field sum 31316.894477533
field sqrsum 16576089.017344
field min 0
field max 1611.2712255044
attr source  queueTimeSignal
scalar SimNetwork.a.parkingLot 	parkingOccupancy:timeavg 	1.2557296887934
attr source  parkingOccupancy
statistic SimNetwork.a.parkingLot 	parkingOccupancy:stats
field count 803
field mean 1.772104607721
field stddev 1.2309876532727
field sum 1423
field sqrsum 3737
field min 0
field max 7
attr source  parkingOccupancy
