version 2
run QueueMeasurement-40-20170109-13:55:24-4002
attr configname QueueMeasurement
attr datetime 20170109-13:55:24
attr experiment QueueMeasurement
attr inifile queueStudy.ini
attr iterationvars ""
attr iterationvars2 $repetition=40
attr measurement ""
attr network controltower.SimNetwork
attr processid 4002
attr repetition 40
attr replication #40
attr resultdir results
attr runnumber 40
attr seedset 40
param SimNetwork.a.parkingLot.parkingDelay "truncnormal(45min, 5 min)"
param SimNetwork.a.runway.landingTime "truncnormal(5min, 0.5min)"
param SimNetwork.a.runway.takeoffTime "truncnormal(5min, 0.5min)"
param SimNetwork.a.runway.throughputCheckInterval 33.333min
param SimNetwork.wg.interArrivalTime exponential(33.333min)

statistic SimNetwork.wg 	responseTime:stats
field count 448
field mean 5378.6173819665
field stddev 1973.510069094
field sum 2409620.587121
field sqrsum 14701376844.622
field min 2722.2055602677
field max 15596.900448495
attr source  responseTimeSignal
scalar SimNetwork.a.landingQueue 	queueLength:timeavg 	0.031634211241027
attr source  queueLengthSignal
statistic SimNetwork.a.landingQueue 	queueLength:stats
field count 894
field mean 0.52908277404922
field stddev 0.53200359507024
field sum 473
field sqrsum 503
field min 0
field max 3
attr source  queueLengthSignal
statistic SimNetwork.a.landingQueue 	queueTime:stats
field count 447
field mean 61.135713675413
field stddev 109.72539506892
field sum 27327.664012909
field sqrsum 7040385.638583
field min 0
field max 653.56181321123
attr source  queueTimeSignal
scalar SimNetwork.a.takeoffQueue 	queueLength:timeavg 	0.054557689835107
attr source  queueLengthSignal
statistic SimNetwork.a.takeoffQueue 	queueLength:stats
field count 896
field mean 0.5625
field stddev 0.58710538869113
field sum 504
field sqrsum 592
field min 0
field max 3
attr source  queueLengthSignal
statistic SimNetwork.a.takeoffQueue 	queueTime:stats
field count 448
field mean 105.19610594117
field stddev 269.58117719331
field sum 47127.855461646
field sqrsum 37442949.836252
field min 0
field max 2077.0448286081
attr source  queueTimeSignal
scalar SimNetwork.a.parkingLot 	parkingOccupancy:timeavg 	1.3905215351989
attr source  parkingOccupancy
statistic SimNetwork.a.parkingLot 	parkingOccupancy:stats
field count 895
field mean 1.9687150837989
field stddev 1.3340842498217
field sum 1762
field sqrsum 5060
field min 0
field max 7
attr source  parkingOccupancy
