file 144265 1483966533                                          
version 2
run QueueMeasurement-62-20170109-13:55:33-4047
attr configname QueueMeasurement
attr datetime 20170109-13:55:33
attr experiment QueueMeasurement
attr inifile queueStudy.ini
attr iterationvars ""
attr iterationvars2 $repetition=62
attr measurement ""
attr network controltower.SimNetwork
attr processid 4047
attr repetition 62
attr replication #62
attr resultdir results
attr runnumber 62
attr seedset 62
param SimNetwork.a.parkingLot.parkingDelay "truncnormal(45min, 5 min)"
param SimNetwork.a.runway.landingTime "truncnormal(5min, 0.5min)"
param SimNetwork.a.runway.takeoffTime "truncnormal(5min, 0.5min)"
param SimNetwork.a.runway.throughputCheckInterval 33.333min
param SimNetwork.wg.interArrivalTime exponential(33.333min)

vector 2  SimNetwork.a.landingQueue  queueLength:vector  ETV
attr source  queueLengthSignal
vector 1  SimNetwork.a.landingQueue  queueTime:vector  ETV
attr source  queueTimeSignal
vector 7  SimNetwork.a.parkingLot  parkingOccupancy:vector  ETV
attr source  parkingOccupancy
vector 5  SimNetwork.a.runway  landedThroughput:vector  ETV
attr source  landedThroughputSignal
vector 6  SimNetwork.a.runway  tookoffThroughput:vector  ETV
attr source  tookoffThroughputSignal
vector 4  SimNetwork.a.takeoffQueue  queueLength:vector  ETV
attr source  queueLengthSignal
vector 3  SimNetwork.a.takeoffQueue  queueTime:vector  ETV
attr source  queueTimeSignal
vector 0  SimNetwork.wg  responseTime:vector  ETV
attr source  responseTimeSignal
0	1468 19205 812 8417 90213.293826183743 949310.528790021603 449 2885.5609618804 15867.872417026 2400972.8502162 14317647794.889
1	20673 15009 799 8405 86871.464153723255 947005.100217251568 450 0 646.33883283922 25472.374884126 6464019.8182737
2	35682 25960 797 8405 86871.464153723255 947005.100217251568 900 0 3 478 510
3	61642 14618 808 8414 89848.913787369068 949033.107930820507 449 0 998.591835362 30490.88244502 12384246.748845
4	76260 25908 806 8414 89848.913787369068 949033.107930820507 898 0 2 473 497
5	102168 8085 804 8419 87999.12 949990.5 432 0 5 450 848
6	110253 8085 804 8419 87999.12 949990.5 432 0 5 449 867
7	118338 25927 802 8411 87216.964331609728 949033.107930820507 899 0 6 1652 4298
