version 2
run QueueMeasurement-136-20170109-13:56:04-4195
attr configname QueueMeasurement
attr datetime 20170109-13:56:04
attr experiment QueueMeasurement
attr inifile queueStudy.ini
attr iterationvars ""
attr iterationvars2 $repetition=136
attr measurement ""
attr network controltower.SimNetwork
attr processid 4195
attr repetition 136
attr replication #136
attr resultdir results
attr runnumber 136
attr seedset 136
param SimNetwork.a.parkingLot.parkingDelay "truncnormal(45min, 5 min)"
param SimNetwork.a.runway.landingTime "truncnormal(5min, 0.5min)"
param SimNetwork.a.runway.takeoffTime "truncnormal(5min, 0.5min)"
param SimNetwork.a.runway.throughputCheckInterval 33.333min
param SimNetwork.wg.interArrivalTime exponential(33.333min)

statistic SimNetwork.wg 	responseTime:stats
field count 437
field mean 5444.0385769876
field stddev 2067.1559340648
field sum 2379044.8581436
field sqrsum 14814698258.02
field min 2861.2643959727
field max 14677.599720225
attr source  responseTimeSignal
scalar SimNetwork.a.landingQueue 	queueLength:timeavg 	0.029634574255626
attr source  queueLengthSignal
statistic SimNetwork.a.landingQueue 	queueLength:stats
field count 876
field mean 0.5365296803653
field stddev 0.53434183839648
field sum 470
field sqrsum 502
field min 0
field max 2
attr source  queueLengthSignal
statistic SimNetwork.a.landingQueue 	queueTime:stats
field count 438
field mean 58.090938152752
field stddev 109.14463972435
field sum 25443.830910905
field sqrsum 6683841.398118
field min 0
field max 605.5839680416
attr source  queueTimeSignal
scalar SimNetwork.a.takeoffQueue 	queueLength:timeavg 	0.048156546570759
attr source  queueLengthSignal
statistic SimNetwork.a.takeoffQueue 	queueLength:stats
field count 876
field mean 0.55022831050228
field stddev 0.54593558420427
field sum 482
field sqrsum 526
field min 0
field max 2
attr source  queueLengthSignal
statistic SimNetwork.a.takeoffQueue 	queueTime:stats
field count 438
field mean 94.916443300412
field stddev 195.79971794163
field sum 41573.40216558
field sqrsum 20699499.881067
field min 0
field max 1263.923337776
attr source  queueTimeSignal
scalar SimNetwork.a.parkingLot 	parkingOccupancy:timeavg 	1.3739176806613
attr source  parkingOccupancy
statistic SimNetwork.a.parkingLot 	parkingOccupancy:stats
field count 876
field mean 1.9497716894977
field stddev 1.3265594399855
field sum 1708
field sqrsum 4870
field min 0
field max 7
attr source  parkingOccupancy
