file 147982 1483966528                                          
version 2
run QueueMeasurement-49-20170109-13:55:28-4021
attr configname QueueMeasurement
attr datetime 20170109-13:55:28
attr experiment QueueMeasurement
attr inifile queueStudy.ini
attr iterationvars ""
attr iterationvars2 $repetition=49
attr measurement ""
attr network controltower.SimNetwork
attr processid 4021
attr repetition 49
attr replication #49
attr resultdir results
attr runnumber 49
attr seedset 49
param SimNetwork.a.parkingLot.parkingDelay "truncnormal(45min, 5 min)"
param SimNetwork.a.runway.landingTime "truncnormal(5min, 0.5min)"
param SimNetwork.a.runway.takeoffTime "truncnormal(5min, 0.5min)"
param SimNetwork.a.runway.throughputCheckInterval 33.333min
param SimNetwork.wg.interArrivalTime exponential(33.333min)

vector 7  SimNetwork.a.parkingLot  parkingOccupancy:vector  ETV
attr source  parkingOccupancy
vector 2  SimNetwork.a.landingQueue  queueLength:vector  ETV
attr source  queueLengthSignal
vector 1  SimNetwork.a.landingQueue  queueTime:vector  ETV
attr source  queueTimeSignal
vector 5  SimNetwork.a.runway  landedThroughput:vector  ETV
attr source  landedThroughputSignal
vector 6  SimNetwork.a.runway  tookoffThroughput:vector  ETV
attr source  tookoffThroughputSignal
vector 4  SimNetwork.a.takeoffQueue  queueLength:vector  ETV
attr source  queueLengthSignal
vector 3  SimNetwork.a.takeoffQueue  queueTime:vector  ETV
attr source  queueTimeSignal
vector 0  SimNetwork.wg  responseTime:vector  ETV
attr source  responseTimeSignal
0	1468 19788 862 8649 89120.778494049642 949760.724490359814 463 2846.5285019759 12547.12819971 2454143.6138716 14598038407.293
1	21256 15336 839 8654 86558.761364561531 949921.217298695447 461 0 686.19724606446 27201.107473319 7731668.5879713
2	36592 26569 839 8654 86558.761364561531 949921.217298695447 921 0 3 502 552
3	63161 15243 856 8646 88765.547307107814 949422.331810808095 463 0 1434.5420237166 33608.629698507 15939769.52112
4	78404 26719 854 8646 88765.547307107814 949422.331810808095 926 0 2 487 511
5	105123 8090 844 8656 87999.12 949990.5 432 0 5 462 946
6	113213 8090 844 8656 87999.12 949990.5 432 0 5 463 967
7	121303 26679 837 8658 86558.761364561531 950194.152552278129 925 0 7 1839 5299
