file 133113 1483966569                                          
version 2
run QueueMeasurement-148-20170109-13:56:09-4220
attr configname QueueMeasurement
attr datetime 20170109-13:56:09
attr experiment QueueMeasurement
attr inifile queueStudy.ini
attr iterationvars ""
attr iterationvars2 $repetition=148
attr measurement ""
attr network controltower.SimNetwork
attr processid 4220
attr repetition 148
attr replication #148
attr resultdir results
attr runnumber 148
attr seedset 148
param SimNetwork.a.parkingLot.parkingDelay "truncnormal(45min, 5 min)"
param SimNetwork.a.runway.landingTime "truncnormal(5min, 0.5min)"
param SimNetwork.a.runway.takeoffTime "truncnormal(5min, 0.5min)"
param SimNetwork.a.runway.throughputCheckInterval 33.333min
param SimNetwork.wg.interArrivalTime exponential(33.333min)

vector 7  SimNetwork.a.parkingLot  parkingOccupancy:vector  ETV
attr source  parkingOccupancy
vector 4  SimNetwork.a.takeoffQueue  queueLength:vector  ETV
attr source  queueLengthSignal
vector 3  SimNetwork.a.takeoffQueue  queueTime:vector  ETV
attr source  queueTimeSignal
vector 2  SimNetwork.a.landingQueue  queueLength:vector  ETV
attr source  queueLengthSignal
vector 0  SimNetwork.wg  responseTime:vector  ETV
attr source  responseTimeSignal
vector 1  SimNetwork.a.landingQueue  queueTime:vector  ETV
attr source  queueTimeSignal
vector 5  SimNetwork.a.runway  landedThroughput:vector  ETV
attr source  landedThroughputSignal
vector 6  SimNetwork.a.runway  tookoffThroughput:vector  ETV
attr source  tookoffThroughputSignal
0	1474 17601 928 7913 87993.438758939651 948090.678726462592 412 2889.9698617537 16101.856177084 2259738.1594551 14190322306.181
1	19075 13344 930 7926 87993.438758939651 949692.501145791797 411 0 529.2802458555 17368.493591205 3909733.6644843
2	32419 23731 925 7926 87898.026398874448 949692.501145791797 822 0 2 419 427
3	56150 13243 919 7909 87716.691397806317 947800.619639945749 412 0 1004.5833793997 22660.047199333 8587626.7685639
4	69393 23781 917 7909 87716.691397806317 947800.619639945749 824 0 3 434 464
5	93174 8092 932 7931 87999.12 949990.5 432 0 4 411 781
6	101266 8092 932 7931 87999.12 949990.5 432 0 5 413 811
7	109358 23755 916 7929 87716.691397806317 949956.077680222348 823 0 6 1499 3903
