version 2
run QueueMeasurement-109-20170109-13:55:53-4142
attr configname QueueMeasurement
attr datetime 20170109-13:55:53
attr experiment QueueMeasurement
attr inifile queueStudy.ini
attr iterationvars ""
attr iterationvars2 $repetition=109
attr measurement ""
attr network controltower.SimNetwork
attr processid 4142
attr repetition 109
attr replication #109
attr resultdir results
attr runnumber 109
attr seedset 109
param SimNetwork.a.parkingLot.parkingDelay "truncnormal(45min, 5 min)"
param SimNetwork.a.runway.landingTime "truncnormal(5min, 0.5min)"
param SimNetwork.a.runway.takeoffTime "truncnormal(5min, 0.5min)"
param SimNetwork.a.runway.throughputCheckInterval 33.333min
param SimNetwork.wg.interArrivalTime exponential(33.333min)

vector 7  SimNetwork.a.parkingLot  parkingOccupancy:vector  ETV
attr source  parkingOccupancy
vector 4  SimNetwork.a.takeoffQueue  queueLength:vector  ETV
attr source  queueLengthSignal
vector 3  SimNetwork.a.takeoffQueue  queueTime:vector  ETV
attr source  queueTimeSignal
vector 0  SimNetwork.wg  responseTime:vector  ETV
attr source  responseTimeSignal
vector 5  SimNetwork.a.runway  landedThroughput:vector  ETV
attr source  landedThroughputSignal
vector 6  SimNetwork.a.runway  tookoffThroughput:vector  ETV
attr source  tookoffThroughputSignal
vector 2  SimNetwork.a.landingQueue  queueLength:vector  ETV
attr source  queueLengthSignal
vector 1  SimNetwork.a.landingQueue  queueTime:vector  ETV
attr source  queueTimeSignal
0	690	87827.902918697206	4755.908726803
0	699	88994.263151266506	5174.1846641561
0	749	93702.014854113782	8296.0669720337
0	758	94132.237538923658	3183.06170711
0	772	94504.467116223821	4349.4028674497
0	782	95171.859489346817	3974.4901293828
0	799	96817.285905267543	4605.0177231061
0	807	97191.768207288517	4298.404602572
0	832	99324.043144494719	5055.8020028716
0	857	100826.830589344675	4640.7157385613
0	881	101934.645914424932	4296.638994815
0	890	102703.675585583326	4433.3737116446
0	898	103193.566346109294	3167.6763288394
0	918	104745.257136718045	4596.3935612483
0	923	105043.566848260576	3994.0480876109
0	940	107251.865469493755	6119.7941586496
0	949	109063.423094779146	5522.2319494379
0	979	114649.714699492923	8857.462387655
0	996	116288.880077582288	5018.3138013554
0	1009	117740.499485692098	4928.1074677795
0	1034	119981.003864863583	5616.7771791066
0	1052	122010.072361875103	5831.5825205637
0	1060	122414.547559376935	3354.0232318836
0	1068	123659.076793515109	4327.983096087
0	1096	130657.22036667725	10105.898152683
0	1111	133197.290063245184	6161.1046009359
0	1142	136921.949945963367	6910.7452927845
0	1147	137238.249384114828	4226.6591770406
0	1164	139199.54920290515	6183.1725326159
0	1181	141324.901485863329	5359.1864100893
0	1199	144595.249921604164	6582.262612513
0	1210	145230.147682206829	4484.8396160045
0	1233	149204.58417025316	7423.4689603891
0	1250	151027.298460361063	6061.4084343043
0	1262	153586.100835032686	6110.1779484879
0	1285	157207.959683964975	6767.8947960384
0	1294	158818.593533804309	5424.9239422319
0	1323	162530.349638886759	7237.337306876
0	1345	164752.456024032585	5717.1803585617
0	1361	165638.362172169045	4476.9128479481
0	1370	167671.426007114574	5326.5071799957
0	1379	168679.984342167284	4529.8370571433
0	1397	173418.800136375737	8418.875272478
0	1424	179748.744189121092	9541.7088491264
0	1434	182444.067371864995	6251.5716993777
0	1456	189858.215443774251	10946.039510798
0	1479	193516.917606581857	7211.6794623454
0	1489	196041.464733591417	6423.8857220387
0	1522	199929.85198630628	7158.7654381214
0	1542	201206.725251111732	4080.8893925726
0	1547	201570.187825564917	4075.5527725146
0	1564	203638.119821959933	5845.9417457653
0	1573	205117.210627087852	4574.5232221395
0	1603	210922.385102900293	8936.0331651159
0	1625	213383.788698326296	5732.4904578598
0	1637	214114.548124681952	3827.4173078539
0	1659	216147.929589764399	5442.3727684885
0	1667	217296.703736904928	4676.0219802343
0	1676	218283.30114643604	4348.1631303609
0	1717	221214.623595907094	5749.7231642765
0	1729	222530.198399483652	4214.5151504747
0	1734	222817.795822354422	3391.2205789026
0	1742	223158.205720034513	3455.196213115
0	1777	228098.475017162933	8255.1934720433
0	1785	228673.854455428373	3890.3673363809
0	1810	231094.092076132703	6012.6436131296
0	1821	231946.602290070913	4782.1314730453
0	1835	232822.951617443043	4027.3781042332
0	1852	235202.204356788022	5659.0498253882
0	1872	236487.585337905574	4711.6954714238
0	1886	238685.670106735313	5777.6956102136
0	1902	239976.188200943824	4448.6002906988
0	1920	242798.834982625292	6418.062777854
0	1937	245132.363027388447	5910.2355783746
0	1946	246894.992600973669	5214.8303083261
0	1973	252114.026166509349	8140.6441535814
0	1989	253869.194095743638	5488.3038933214
0	1999	257137.964368825991	6351.5617552953
0	2033	261559.744218941282	8310.4211440998
0	2083	264205.767906184047	3901.3065985404
0	2094	264564.461631182208	6230.6521063368
0	2110	265368.626254649552	4758.3205941413
0	2115	265662.076422028799	3341.9731845123
0	2124	266058.159826594544	4118.0468227651
0	2135	266437.600297343628	3379.1547794382
0	2140	266779.556252395916	4109.9439263594
0	2156	267708.440482930486	4198.7785866703
0	2173	269808.570526987382	5370.5650736401
0	2191	272538.754776738977	5601.4784576736
0	2208	274425.842880806213	5254.9762119586
0	2233	276860.227986469127	5792.8771854476
0	2250	278082.519017208505	4712.8103555494
0	2258	279361.061097971349	4842.1094118368
0	2267	280167.504747852004	4912.7386605329
0	2287	283737.328106431817	6755.8891901271
0	2321	287014.127294154022	6144.6686162006
0	2326	287299.508007810048	3628.1887753875
0	2343	289935.971487498912	6071.4930130739
0	2352	290634.415805992707	4233.1502897871
0	2387	297479.813142417707	10091.529032774
0	2399	298499.728916322142	4816.8159606059
0	2404	298764.301038241571	4001.9620279067
0	2430	303456.51600325481	8673.845634435
0	2439	305940.747907945105	5832.3171274018
0	2485	310701.047976966247	3515.4249149293
0	2490	310991.117260258228	8156.4236306357
0	2498	311402.567685479398	4050.9706110738
0	2506	311966.809986679818	4176.3664877535
0	2533	317026.721445063817	8250.5268198999
0	2553	319692.418658034682	3259.6614150642
0	2562	320003.445804648184	6596.3485915292
0	2608	323317.382692704613	6161.7201570375
0	2616	323649.475338173837	3764.6932809713
0	2633	324336.282150124998	3805.4884027227
0	2644	325120.398820659976	3938.5985204124
0	2657	325961.213434880744	4312.5886873751
0	2666	327090.987810045305	4402.3644533486
0	2675	328796.836779170553	4988.5072656046
0	2701	332400.712197799179	7477.866055236
0	2718	334410.438934293006	5036.128825577
0	2751	337072.04402121656	5593.9144257479
0	2771	338820.092262331983	5294.39817605
0	2776	339044.557747170363	3549.0332603356
0	2787	339896.897878428747	4201.1366436722
0	2793	340160.445942206322	4407.346228936
0	2810	343063.277309682309	5875.3485318159
0	2828	347065.874660836934	6720.576739795
0	2862	350722.443421421997	6968.4281286256
0	2874	352422.029800508783	3486.9590426094
0	2879	352722.515953043717	5284.570491992
0	2905	357302.754992459079	8214.7553392111
0	2922	358637.7605570567	4906.5956357067
0	2939	361040.753783041269	5389.6653974924
0	2948	362415.96135271869	4314.4722044478
0	2966	366806.562483427083	7837.5221192827
0	3001	373578.845533076466	10423.467872669
0	3018	374893.514288587401	4501.1791347435
0	3026	375735.757213950948	4076.8829085067
0	3035	377156.239244372573	4322.8758083075
0	3077	380740.040637075807	6817.5951332747
0	3093	381717.35467589738	4281.7085834882
0	3102	382519.430643101502	4328.9369410921
0	3113	382831.031207839078	3383.4092142664
0	3127	384022.551291184799	4295.9449331414
0	3152	386355.792248968911	5382.2181424226
0	3160	387006.008930935038	4246.2019317309
0	3180	388732.909657874589	4528.7800686674
0	3202	390666.343244597668	5395.9828562009
0	3235	392498.226735175038	4967.3062328344
0	3243	393152.84808561786	4661.9427504422
0	3259	393825.317779647615	4135.212259235
0	3276	394742.259892089587	3752.578509015
0	3287	395691.24312445486	4496.6767504361
0	3304	396541.749640342927	5278.8320636618
0	3317	397417.409385833491	4194.1096797024
0	3326	398418.165351238108	4472.3909672557
0	3343	400528.655882060144	5072.1854190928
0	3360	403389.706919313834	6994.0587826014
0	3370	406608.790586329918	6665.9695761075
0	3396	411085.981835636737	8537.4860662713
0	3405	412509.343875752168	4726.2029128081
0	3434	416381.360520977206	7127.027418535
0	3464	418985.921478764283	5564.531307626
0	3472	419666.633343465922	4151.2065039157
0	3492	421318.44550265393	5174.2849694324
0	3497	421599.999529435469	3497.8354690059
0	3506	422998.787758590784	4576.4967970492
0	3555	428641.943186444689	8543.614850895
0	3565	429275.084625484716	4240.205666683
0	3585	431073.716747590123	3240.999802774
0	3593	431385.415523229775	5584.1195803692
0	3615	432352.147543690254	4434.2259651837
0	3623	433150.184829391261	4568.4840054591
0	3635	434861.539249386962	3754.9690951406
0	3643	435142.063604017369	5490.4541314878
0	3666	437997.288060250181	6278.9635276942
0	3683	440706.86458635143	5765.5711206986
0	3699	441912.638925890755	4552.8520159298
0	3720	444123.900530587427	5173.3201391819
0	3745	446909.364537310807	5721.3572257904
0	3750	447231.388545517423	3685.1577257849
0	3767	448788.478764286783	4918.5341244765
0	3776	450460.982599761386	5159.8617057924
0	3813	454385.565981004148	7010.1237056772
0	3827	456362.421865607416	4944.8361113259
0	3835	457445.201443544122	4161.1891469976
0	3843	457793.825290125255	4428.478778157
0	3873	462161.880407854586	7848.2767682755
0	3878	462480.315209542445	4203.2526059173
0	3901	470843.072281841616	11561.058763396
0	3924	474321.697673987095	6756.1735668377
0	3941	476719.120560717521	5904.6100285384
0	3950	479624.571482433296	6382.2756139229
0	3979	483197.880434573319	3310.7480146211
0	3984	483521.737783962391	7498.5063617863
0	4018	486684.187615977345	6717.3604857249
0	4029	487501.644136947716	3821.2481059839
0	4037	487788.140171225154	3375.8827626135
0	4076	491344.182293857504	6867.1606991086
0	4088	492195.070883550897	3306.8323006101
0	4093	492451.840597686347	4738.651905836
0	4126	494409.050939462271	5342.1228815679
0	4143	496393.586871584053	5654.6302460036
0	4154	496724.871617837131	3244.0955464313
0	4162	497041.208232737493	4174.0569081225
0	4176	498160.111470582393	4676.2620045734
0	4192	499885.132096872441	5325.7158570526
0	4201	501446.103672286767	4421.3650888111
0	4221	508490.401604065476	10242.623032339
0	4270	514119.149416063956	9025.3701946977
0	4280	514746.719875971816	3771.1594287351
0	4288	515347.133544926762	4204.4059840258
0	4297	516092.138004113977	4040.4304727062
0	4305	517366.824345812301	4172.3246127549
0	4323	521410.625338891013	7313.75051466
0	4367	528678.745844544551	10569.673989278
0	4375	529497.141346776408	4509.3069050127
0	4392	530242.288544245579	3801.7343460223
0	4400	531324.069275337375	4123.5120393305
0	4409	533061.561457547978	5011.6215359957
0	4438	537166.32895614762	7638.0582241228
0	4452	538199.033852167525	4248.2760862702
0	4469	540817.850222984648	5898.4469040533
0	4481	542504.336038893993	5339.9698160728
0	4496	546026.003672212018	6447.4409267449
0	4523	552074.093348836247	9706.0189867553
0	4547	553473.403887521844	5324.609105806
0	4556	555764.951888821747	6015.5641409917
0	4565	556609.061397225258	4071.452766948
0	4596	565611.677418387043	12999.704226103
0	4601	565946.489929929821	3956.2008761575
0	4635	569204.659050218608	6723.6196334635
0	4647	570104.386556070016	3943.8310871295
0	4661	572110.840386612037	5622.5326084238
0	4669	573268.653833466732	4884.3887607065
0	4704	578326.663924517059	8323.2040865103
0	4712	578823.53972090668	3708.6496008636
0	4720	579921.108366473388	3894.258412649
0	4739	585557.064931496715	9356.5766184932
0	4758	591919.724963902912	9526.8646738958
0	4784	595178.839811901508	6403.6797481525
0	4801	596240.261064620446	3952.6513146622
0	4810	598639.640793068916	5845.3283017529
0	4827	601756.150283866572	6165.4737470603
0	4871	608368.63947923948	9284.3536355377
0	4879	609357.052924221778	4635.2332360876
0	4887	609761.702052333827	3679.347926519
0	4904	610880.871954872803	4238.9080436908
0	4921	613616.19431318126	6958.2152521815
0	4930	614612.304410251474	4381.6322928558
0	4975	618170.747428405889	6428.2227014594
0	4980	618446.478710068532	3215.9566682278
0	4992	620458.690572288259	5149.0600860034
0	4997	620769.929994613828	3437.5430579804
0	5048	627306.630762448401	9674.1623275562
0	5068	629239.609539175226	5709.6586831904
0	5079	629515.30799519979	3404.9741387016
0	5084	629852.256617051724	4681.6281953216
0	5090	630135.480079332707	4011.0816490542
0	5098	631812.543567365484	5570.317896444
0	5127	635532.211616712379	6958.1180243677
0	5132	635787.279317844266	3964.1374076054
0	5179	643207.637230944453	3343.0864362795
0	5184	643465.341945315184	10799.141652594
0	5209	644468.003456582539	4409.8095109342
0	5237	646437.349420313353	5428.3824274766
0	5248	646731.025604335249	4342.4441707268
0	5258	647256.074506575418	3607.3176731877
0	5278	648812.143441439956	3269.7126910495
0	5283	649127.263264078853	5375.912209883
0	5292	650017.175714137835	4405.3265759956
0	5308	651187.833129463404	4541.9774940303
0	5317	653799.777527135725	6441.5973494988
0	5349	663125.433259200735	12582.064541541
0	5398	665240.522088849009	5429.4132847678
0	5437	666748.925411701396	4665.0132780577
0	5442	667049.927833432325	4006.689236824
0	5450	667368.470002127666	4129.3147550924
0	5466	667938.128406466243	4527.9680638168
0	5472	668259.843801945922	4549.9918771937
0	5477	668594.193300647088	4065.2743036969
0	5491	669234.388311172598	3375.0483630449
0	5501	669812.406948261983	4771.5271236336
0	5510	670929.125842667295	4782.4464099644
0	5527	672100.27460577705	4917.4157986161
0	5536	674343.839800141274	5312.4897794578
0	5553	677659.121423904175	6184.7803817251
0	5580	682460.022570202626	7838.6591437497
0	5592	684657.637343206873	5331.4295515264
0	5614	687843.58698550077	6357.8033013432
0	5623	689895.929473778691	5413.3993276996
0	5641	693670.895616825735	6970.3797010685
0	5663	698186.282124127007	7956.9447194441
0	5685	701134.294795781582	5446.3174297888
0	5718	703335.185998603378	5414.3753569666
0	5743	704700.145083343017	5051.0183124064
0	5751	705153.583936502958	3823.5072645756
0	5767	705964.227160228646	3886.5169574056
0	5784	706708.858298587465	4360.3572693704
0	5800	707819.146311713729	4288.8883388728
0	5812	708253.030118193089	4173.9348253096
0	5833	709249.241123056104	3905.4777438358
0	5842	710357.761765099632	4184.9268265821
0	5858	711575.092760438792	4330.597184506
0	5867	712149.702995136949	3980.5787651899
0	5892	714149.635609001005	5842.2572608543
0	5900	715072.210500783929	4141.1836856473
0	5909	716538.745080352679	4210.3680446244
0	5935	720522.866827622293	7572.0114480254
0	5943	721068.912290330512	4359.0916286703
0	5969	724954.725361696766	8210.3488549142
0	5994	727349.638344459019	6069.3390153105
0	6030	729477.571639392836	5227.7066080561
0	6035	729809.542073873324	3931.6450053735
0	6044	731698.897965057534	4934.9731459362
0	6055	731953.023002519927	3271.85482616
0	6061	732240.683943049793	3901.4712432059
0	6087	736327.770442298653	7611.4541837432
0	6095	737108.986914346712	4266.4263739232
0	6145	741291.132796604838	7508.2764961479
0	6153	741714.679104977894	3843.4187581336
0	6167	741980.918155083036	4101.5279412451
0	6178	742587.34924858014	3789.6829254738
0	6186	742947.183923841056	3988.1877906477
0	6207	746018.985170033312	6654.8987310844
0	6220	747776.25751611222	5807.8412911152
0	6237	749049.028129416851	4538.715787182
0	6254	751451.231496458785	5563.3404391282
0	6263	753447.767731633438	4970.9210198791
0	6298	758172.584680660536	8597.7642120042
0	6306	758834.239066318047	3950.8597102389
0	6314	759736.059789218501	4606.5795535574
0	6352	765802.702557173857	9381.6252252567
0	6358	766135.619273516542	3806.7276978008
0	6366	767158.959746699195	4674.9821930631
0	6384	770934.124501904766	7911.9527405176
0	6429	774634.826112189083	6491.3491492811
0	6434	774936.153550740878	3540.0495997829
0	6446	777108.029996241879	5479.0736044644
0	6451	777442.806150671312	4002.6829720925
0	6485	780982.883198621912	7510.104326045
0	6510	782720.158012008811	4910.9171593484
0	6519	784450.001870197463	5116.5845231483
0	6530	784838.004107422459	4489.536624585
0	6543	785374.526375639832	3947.6552262412
0	6560	787728.196087913631	5832.0240008019
0	6581	790298.554669130411	5608.124903811
0	6625	793655.040080715864	6546.9850724991
0	6636	794255.913142059462	4551.927006792
0	6652	795502.478549284154	5272.2952362234
0	6661	796318.5431655386	3873.4101427928
0	6672	796891.19389359132	4357.4238098893
0	6680	797130.12677262944	4192.1319230643
0	6694	798476.110524505253	5079.1083689062
0	6705	799931.998063363851	5012.4726970554
0	6720	803196.723936586688	6166.5550860457
0	6762	806565.721907129798	6851.7721912077
0	6778	807496.091253873184	4158.0648128328
0	6790	808014.498738282721	4082.1010142008
0	6798	808365.57031910389	3678.8409410362
0	6812	810347.716328965248	5081.7780485564
0	6820	811359.181695208367	4384.1156321051
0	6838	814722.509966901842	6546.8359564695
0	6872	819829.818068151066	8201.0315645736
0	6881	820665.340756647733	4055.1287796596
0	6889	821302.853549293672	3829.6460168164
0	6941	828469.466283158376	10840.539930976
0	6949	828823.633295300275	3811.4806076719
0	6985	830530.785134369762	4972.8788960781
0	6996	830816.73706199689	3498.8294692041
0	7009	831436.668166886596	4078.5626264581
0	7014	831762.472628529514	4091.5674730335
0	7026	832967.08852725835	4086.4049789069
0	7034	833280.946555671226	4227.2261220845
0	7048	834335.384634422048	4332.3543679938
0	7065	836998.030157342239	6415.9978031388
0	7076	837811.881635991473	4670.2289707834
0	7115	840711.726504678803	6216.725888743
0	7135	842119.840893667884	4512.7058172735
0	7143	842436.509322130819	3609.84123044
0	7148	842711.988726316031	4016.5969032128
0	7165	844150.462675560121	5322.163193355
0	7206	846594.456401786068	5680.916453177
0	7237	848387.725763484263	3337.9387538534
0	7242	848677.354369372662	4079.063771744
0	7247	849023.348082844021	5774.7011963662
0	7255	849517.530299189459	4271.4572657919
0	7267	850975.07245248911	4966.3592093361
0	7272	851259.906962537277	3777.8257770587
0	7298	854699.267706539143	6923.4237526102
0	7326	857437.186268438099	5799.6363192806
0	7359	859068.157314846463	4961.0959766697
0	7373	860283.087599627814	4943.8618795851
0	7384	860721.685732083316	3287.9564114263
0	7392	860975.314603196512	4117.2358940639
0	7397	861257.475275528953	3688.5684178382
0	7405	861864.372913169472	3634.0757113341
0	7434	870913.063926100986	12072.565143194
0	7450	871989.952237214031	4546.5069366008
0	7468	875159.456846881516	6788.0715402952
0	7485	877509.024734121664	6013.0915482392
0	7494	878973.862411276528	4728.7763031696
0	7536	883354.265726585107	7430.0444212404
0	7548	884382.046574833222	4467.6595221187
0	7561	885090.268254478377	4254.1544407815
0	7569	885428.455302506047	3243.3948449001
0	7586	887821.356920699717	5382.1351603061
0	7596	890365.477140184839	6209.4532356905
0	7629	893814.550422519383	6860.651720959
0	7646	894856.3531237951	3764.9542302455
0	7654	895234.880891539573	3566.0266928931
0	7674	897385.453889931787	4920.693160708
0	7688	899566.561744737609	5606.0586638014
0	7697	900948.154323195179	4803.044019485
0	7739	905859.38016806475	8578.8379453282
0	7764	907193.373291416655	5161.9186833749
0	7773	908108.94933381168	4191.2006398915
0	7781	908657.453293244054	4072.572260027
0	7792	909237.076194551141	4021.5609780217
0	7797	909508.692683300295	3196.2463585506
0	7824	915690.937055073809	9147.8698188707
0	7833	916166.333581829517	3991.3137978495
0	7880	925765.67889904687	12811.968388
0	7886	926065.005690832277	3685.1894070977
0	7914	928264.20493110873	3335.5142965114
0	7919	928605.11776449699	6078.3134995413
0	7946	929747.333740756676	4729.104894645
0	7952	930085.522940884994	3797.5701002609
0	7968	931746.183658439882	5415.3308832594
0	7977	932848.650703517333	4232.5323000041
0	7985	933556.189072406866	4424.8904044184
0	8028	938112.123647726345	7867.4140807532
0	8036	939047.662045976222	3989.5277858205
0	8047	939790.858051717352	4160.2421314396
0	8053	940134.132562096441	3627.8420548857
0	8081	948388.34920906535	11834.324472723
0	8097	949602.932572031712	4598.5586641546
1	705	90155.064248774071	0
1	713	90949.175831813645	0
1	721	91289.561285727183	92.191925763176
1	730	92212.268182161472	0
1	738	92893.363604716486	0
1	774	94504.467116223821	236.22597460072
1	788	96186.114850783385	0
1	812	97638.00691960996	0
1	821	98270.301873938752	0
1	838	100025.890017269861	0
1	849	100272.752057662182	123.8884821924
1	862	101049.518760649721	0
1	873	101380.58100884977	248.50969800564
1	903	103541.191145341216	0
1	928	105792.252311837926	0
1	955	111270.566276226932	0
1	964	112812.392017912571	0
1	981	114649.714699492923	285.48801373594
1	998	116288.880077582288	110.39023627093
1	1015	119060.52432749335	0
1	1026	119377.968659046042	46.874961617957
1	1040	120551.322213994603	0
1	1075	127036.185462309329	0
1	1085	130011.204653178899	0
1	1113	133197.290063245184	185.69985617092
1	1118	133482.356333895773	465.97966360648
1	1127	135965.715075774053	0
1	1153	138012.987309091144	0
1	1170	140745.308066202315	0
1	1186	141781.11520986408	0
1	1212	145230.147682206829	264.25765615002
1	1221	147475.922886544788	0
1	1239	150440.064887926558	0
1	1264	153586.100835032686	192.43124346027
1	1273	155293.012332010746	0
1	1299	159035.275665470863	0
1	1308	161161.449324220976	0
1	1325	162530.349638886759	185.43081176788
1	1334	164150.147285023972	0
1	1350	164999.924863897713	0
1	1385	170207.035339994647	0
1	1404	176192.495672487297	0
1	1413	178912.175932975909	0
1	1441	186305.238144236443	0
1	1458	189858.215443774251	240.63643222155
1	1468	192771.086548184847	0
1	1494	197125.835858539156	0
1	1502	197494.635053050294	0
1	1510	197795.701973747448	3.523897552812
1	1528	200542.687404948335	0
1	1552	201986.351937784377	0
1	1579	207651.298240466477	0
1	1589	210287.130816828022	0
1	1605	210922.385102900293	216.82828162443
1	1614	212620.681756670615	0
1	1639	214114.548124681952	179.41010860684
1	1647	215464.900431630558	0
1	1681	218315.68324900894	0
1	1689	219426.575243451839	0
1	1697	219752.636610922636	49.627104003098
1	1706	220028.955107815609	185.673562696
1	1748	224783.487119047423	0
1	1756	225108.912420640409	27.463957637304
1	1765	227164.470817025568	0
1	1790	228795.573513209867	0
1	1798	229543.154531399789	0
1	1823	231946.602290070913	170.71242358918
1	1840	232907.974496521747	0
1	1857	235527.587910244981	0
1	1874	236487.585337905574	106.81313313432
1	1891	239222.127449013867	0
1	1908	241680.162292647578	0
1	1925	243973.382012927967	0
1	1952	248380.890202422251	0
1	1961	250786.402613530691	0
1	1978	253249.323074841438	0
1	2005	258333.809524845426	0
1	2014	260304.461307643686	0
1	2022	260635.354803919475	25.049143411216
1	2038	261940.113003829404	0
1	2047	262320.103237516506	0
1	2055	262669.612326036512	0
1	2063	263058.44551790547	0
1	2071	263509.661896260138	0
1	2096	264564.461631182208	126.45617783493
1	2145	266937.276319065397	0
1	2162	269170.8666688476	0
1	2179	271067.350801021527	0
1	2196	273369.708661659129	0
1	2213	274518.951686134575	0
1	2221	275254.766087319058	0
1	2238	276981.438916304755	0
1	2272	280869.458677953413	0
1	2289	283737.328106431817	66.008874009273
1	2298	283999.967081162169	135.48860673716
1	2307	286401.265516205561	0
1	2331	287388.284109643256	0
1	2358	293682.912955716214	0
1	2367	294762.339010334857	0
1	2375	295021.07442856016	238.40405974035
1	2410	300108.430780543335	0
1	2419	302834.69362962252	0
1	2445	307185.623062036903	0
1	2453	307480.61334546265	129.01627105704
1	2461	307831.390377702079	40.946878775732
1	2470	308776.194625163943	0
1	2512	313407.097213118945	0
1	2522	316432.757242970519	0
1	2538	317155.662535667118	0
1	2564	320003.445804648184	118.66374744565
1	2572	320530.793747402296	0
1	2580	321181.800300247574	0
1	2588	321648.624747505668	0
1	2597	322688.623356696753	0
1	2621	323808.329513565987	0
1	2646	325120.398820659976	197.55267809684
1	2680	329374.310108715988	0
1	2689	331478.12959546863	0
1	2706	333525.69408628195	0
1	2723	335495.52448683474	0
1	2734	335795.182878057384	99.421643300863
1	2740	336069.124156573567	316.02444330322
1	2756	337187.928777866396	0
1	2798	340345.297921041982	0
1	2815	343754.015292796425	0
1	2833	347437.945461051714	0
1	2842	348935.070757899384	0
1	2850	349206.136252256319	118.1365990083
1	2884	353731.164921349997	0
1	2893	355651.088385548903	0
1	2911	358101.48914827091	0
1	2927	358969.04036414438	0
1	2953	363155.377660407858	0
1	2973	370392.335153843888	0
1	2981	371658.874305444243	0
1	2990	372833.363436065087	0
1	3006	373922.445503801106	0
1	3040	377435.646092409135	0
1	3049	378190.493702009405	0
1	3057	379447.621993572701	0
1	3065	379726.606358043438	0
1	3082	380973.57410654633	0
1	3115	382831.031207839078	71.224208634974
1	3132	384204.12958920722	0
1	3140	385270.360388396737	0
1	3165	387530.920502340686	0
1	3182	388732.909657874589	242.00432269893
1	3190	389690.10552041263	0
1	3207	390989.681383074537	0
1	3218	391341.251168262888	146.6847942441
1	3223	391609.42429376197	346.50671708083
1	3248	393223.299706131087	0
1	3264	393945.774383982378	0
1	3289	395691.24312445486	234.77266148755
1	3306	396541.749640342927	146.1015036305
1	3331	399942.821010222406	0
1	3349	402548.495769365486	0
1	3375	407783.140962944092	0
1	3384	409254.333102442189	0
1	3410	413421.390171138241	0
1	3419	415515.426839550262	0
1	3436	416381.360520977206	237.19998775572
1	3445	418102.16406042958	0
1	3453	418422.290961541557	0
1	3478	420098.328335549702	0
1	3512	425034.878958801702	0
1	3520	425801.295942860565	0
1	3529	427832.716944816133	0
1	3541	428073.305944344681	155.38436583814
1	3557	428641.943186444689	60.242362512496
1	3570	429651.609472529578	0
1	3595	431385.415523229775	278.84536898337
1	3603	431718.324532555961	0
1	3645	435142.063604017369	200.77013836452
1	3654	437359.786909960914	0
1	3671	438950.580391405478	0
1	3688	441188.007311520419	0
1	3705	443546.230819732535	0
1	3722	444123.900530587427	253.95589077713
1	3730	445301.120893968957	0
1	3755	447375.442275326918	0
1	3781	451417.585754281544	0
1	3790	453284.012296546529	0
1	3798	453618.47485463243	253.12834266422
1	3815	454385.565981004148	71.962341425105
1	3849	458277.062603625136	0
1	3857	459282.013518446098	0
1	3885	467565.52410714938	0
1	3903	470843.072281841616	28.561749662507
1	3912	473242.29586851039	0
1	3930	476023.231422176046	0
1	3955	479887.132419952191	0
1	3964	480184.450462026232	217.62333177383
1	3989	483680.396030963815	0
1	3998	484412.257408611677	0
1	4006	484698.060053296883	221.03845854799
1	4039	487788.140171225154	74.951479374806
1	4048	488888.238582940816	0
1	4056	489151.941090616905	85.013032722524
1	4065	490738.956625580462	0
1	4098	492867.151324614948	0
1	4106	493480.776071405837	0
1	4117	493787.683864117879	303.83439810885
1	4131	494559.416239819855	0
1	4164	497041.208232737493	16.469649261795
1	4181	498247.778571726498	0
1	4208	505093.77922136626	0
1	4227	510975.560447236692	0
1	4235	511253.556539253872	110.82897835291
1	4244	512051.707531407786	0
1	4252	513194.499733057429	0
1	4272	514119.149416063956	22.274591832898
1	4311	518109.071855266504	0
1	4330	524987.834441763746	0
1	4339	526440.554198223277	0
1	4347	527200.557236006826	0
1	4356	528049.939921552314	0
1	4380	529528.270732024858	0
1	4414	533950.7577658973	0
1	4423	534919.403318931369	0
1	4440	537166.32895614762	1.962733326389
1	4457	539578.562745467137	0
1	4483	542504.336038893993	136.26167681307
1	4502	548148.794781715884	0
1	4510	549749.387747830036	0
1	4528	552537.608630277267	0
1	4536	552826.787477652869	214.81428536876
1	4572	561990.289053772294	0
1	4581	562481.039416755072	0
1	4607	566160.555468940521	0
1	4615	566505.54861603843	17.240837850184
1	4624	568384.265072760261	0
1	4649	570104.386556070016	100.92671806327
1	4675	575114.890120043096	0
1	4684	576026.849953824384	0
1	4692	576353.183407376328	152.69509437285
1	4727	582392.860290007079	0
1	4746	588775.160063748987	0
1	4764	592287.609749958285	0
1	4772	592794.312491315985	0
1	4789	595590.676536806256	0
1	4815	599084.28584370182	0
1	4834	604721.819688134166	0
1	4843	606082.354125814817	0
1	4851	606641.963911181953	0
1	4859	606933.704576298292	275.72551529848
1	4893	610230.672117395654	0
1	4909	611742.524726946451	0
1	4935	615230.522041840755	0
1	4943	615472.133944382276	162.5034580974
1	4952	617332.386936633381	0
1	4960	617637.172305434668	4.703870542481
1	5003	623529.950855984847	0
1	5012	625170.628421730079	0
1	5021	626110.333856498182	0
1	5032	626391.506330100486	267.10789982194
1	5040	626706.884947987928	464.65927706647
1	5054	628574.093592344644	0
1	5103	631823.141910238861	0
1	5112	632666.200292721262	0
1	5139	639864.55079466495	0
1	5148	640170.49401202442	112.30006637607
1	5156	641008.966992836717	0
1	5165	642388.581433608488	0
1	5189	643648.756833387691	0
1	5197	643907.227337318965	155.87628312311
1	5214	645542.430750390474	0
1	5225	645823.511959306138	211.66282116393
1	5250	646731.025604335249	85.169968902156
1	5263	647358.180177636911	0
1	5297	650543.368717659502	0
1	5325	659811.108804081182	0
1	5335	662083.912133643711	0
1	5351	663125.433259200735	82.194662592379
1	5359	663391.205919693622	152.05067265837
1	5370	663730.539120564	320.3787779146
1	5376	664012.516326677046	302.66440192486
1	5384	664528.918996950217	0
1	5400	665240.522088849009	199.64226422058
1	5408	665859.339948127665	0
1	5423	666213.579516218001	66.900083515066
1	5452	667368.470002127666	185.61119496673
1	5493	669234.388311172598	203.03829048911
1	5515	671474.341042179122	0
1	5541	674621.363426452881	0
1	5559	679326.207791680487	0
1	5568	681485.783684157611	0
1	5594	684657.637343206873	175.10719712774
1	5603	686700.515915757284	0
1	5629	690229.337404682879	0
1	5647	695687.977365992805	0
1	5665	698186.282124127007	265.47148249019
1	5673	699649.1267709366	0
1	5690	701330.076671927342	0
1	5699	702077.710202823054	0
1	5707	702403.962291897781	55.461262680725
1	5723	703530.257972840893	0
1	5732	704079.095292883516	0
1	5756	705343.763379220285	0
1	5773	706172.834938517564	0
1	5789	707244.495575932787	0
1	5814	708253.030118193089	83.905888246035
1	5822	708575.976376590838	268.59802844414
1	5847	710931.026815136597	0
1	5872	712328.377035728274	0
1	5880	712950.855379596887	0
1	5914	716709.820661660229	0
1	5922	717046.428552711189	302.05204592862
1	5948	721280.299329148485	0
1	5958	724249.865031336714	0
1	5974	725877.897068499852	0
1	5983	726763.924819121378	0
1	6000	728339.212699843873	0
1	6011	728686.114147301198	4.945970941235
1	6019	729009.015506975613	292.69924842018
1	6066	732842.560540423467	0
1	6074	733782.856300456896	0
1	6100	737871.260346844307	0
1	6109	738185.299702216765	305.90948837885
1	6117	738797.666323106334	0
1	6125	739105.340283056191	146.34414986279
1	6133	739380.182215567962	16.095776619071
1	6169	741980.918155083036	12.501930086051
1	6192	744510.312342234806	0
1	6209	746018.985170033312	131.09411270275
1	6226	748476.846711754357	0
1	6242	749574.820468656303	0
1	6269	754883.379356079119	0
1	6277	755217.181671013436	87.701435352328
1	6286	756421.077331917151	0
1	6321	762328.891575715723	0
1	6329	762636.817847352449	152.84029371633
1	6337	763022.171761387137	0
1	6372	768143.476962907999	0
1	6389	771396.10395095796	0
1	6397	771732.102755184054	103.14636340661
1	6406	773440.123178578811	0
1	6414	773728.836792109074	256.05791953212
1	6456	777809.24085266044	0
1	6465	779333.417347049209	0
1	6474	780348.467482837477	0
1	6490	781426.871149398653	0
1	6498	781896.172087111767	0
1	6532	784838.004107422459	147.57434210306
1	6549	787108.055008216756	0
1	6566	789703.986135267501	0
1	6583	790298.554669130411	68.371356069699
1	6592	792445.133022745847	0
1	6600	792749.79792880302	216.02784510096
1	6611	793075.51177462184	137.51692505667
1	6627	793655.040080715864	258.03792511677
1	6641	794919.525366308456	0
1	6682	797130.12677262944	99.957922088457
1	6707	799931.998063363851	218.04834744177
1	6725	803338.026441040342	0
1	6733	803932.397724081919	0
1	6742	804686.729378067706	0
1	6750	805265.938280408836	0
1	6767	806975.066063103246	0
1	6800	808365.57031910389	189.89630867154
1	6825	811628.786503577495	0
1	6844	816610.211976988121	0
1	6852	817473.207532477312	0
1	6860	817783.534973146766	154.60862096405
1	6896	825012.152687628355	0
1	6904	825557.906238291669	0
1	6913	827317.907592792769	0
1	6924	827629.099322398387	270.99378196986
1	6932	827911.951169868607	241.04601437263
1	6954	828880.683548351497	0
1	6962	829204.456268612573	150.73583502586
1	6971	830003.030266428203	0
1	6998	830816.73706199689	234.70470779341
1	7036	833280.946555671226	139.2938904632
1	7053	834495.000615935785	0
1	7078	837811.881635991473	204.74655959706
1	7087	838695.391823103197	0
1	7098	839013.633076019622	186.96498432878
1	7103	839269.018677086616	440.71919488146
1	7120	840913.539948609111	0
1	7153	843248.646886477821	0
1	7170	844598.290597628634	0
1	7178	845049.787009630849	0
1	7186	845339.393384823295	93.32035142574
1	7195	846008.713243152967	0
1	7211	847482.081185478615	0
1	7225	847802.160971048065	26.31701711915
1	7277	851637.549949157515	0
1	7287	854107.061338176733	0
1	7303	855339.22572004273	0
1	7312	856858.078709132635	0
1	7328	857437.186268438099	3.456947781121
1	7336	857696.310457943494	127.4036002527
1	7345	858230.297201835349	0
1	7361	859068.157314846463	227.65853193982
1	7413	867443.445300613192	0
1	7422	868371.385306586326	0
1	7439	871495.9331858825	0
1	7457	874245.086108106906	0
1	7473	875924.221305344733	0
1	7499	879914.387052714536	0
1	7508	880836.113813696918	0
1	7517	882185.060457605972	0
1	7525	882468.323894924894	29.102134531278
1	7550	884382.046574833222	226.02267033888
1	7575	886953.898701560392	0
1	7601	891091.39889354959	0
1	7609	891668.854198646441	0
1	7618	892464.760729223779	0
1	7634	893960.503080936184	0
1	7660	896145.110303710205	0
1	7676	897385.453889931787	104.91166719524
1	7703	902031.454608041786	0
1	7711	903917.748693920179	0
1	7720	904584.881033217043	0
1	7728	905215.515216529458	0
1	7745	906312.446324749723	0
1	7753	906570.447212150582	27.379975947453
1	7804	912175.019783980065	0
1	7812	912953.710511047263	0
1	7841	922379.816283734587	0
1	7849	922682.603136034027	155.79887107836
1	7858	924928.69063459738	0
1	7866	925226.23835698625	208.00951087455
1	7891	926287.95284062407	0
1	7899	926650.468274360964	319.6154991805
1	7924	928616.11840351325	0
1	7932	929131.29866798851	0
1	7957	930244.709566973133	0
1	7991	935058.134260155679	0
1	7999	935630.615920277766	0
1	8008	936506.290507210755	0
1	8016	936799.734565600783	245.70982925796
1	8060	945004.373907877085	0
1	8069	946213.235103839584	0
1	8086	948964.046257812556	0
1	8102	949985.992974326622	0
1	8111	950248.560907093015	60.289899783676
2	703	90155.064248774071	1
2	705	90155.064248774071	0
2	711	90949.175831813645	1
2	713	90949.175831813645	0
2	716	91197.369359964007	1
2	721	91289.561285727183	0
2	728	92212.268182161472	1
2	730	92212.268182161472	0
2	736	92893.363604716486	1
2	738	92893.363604716486	0
2	769	94268.241141623106	1
2	774	94504.467116223821	0
2	786	96186.114850783385	1
2	788	96186.114850783385	0
2	810	97638.00691960996	1
2	812	97638.00691960996	0
2	819	98270.301873938752	1
2	821	98270.301873938752	0
2	836	100025.890017269861	1
2	838	100025.890017269861	0
2	844	100148.863575469787	1
2	849	100272.752057662182	0
2	860	101049.518760649721	1
2	862	101049.518760649721	0
2	865	101132.071310844129	1
2	873	101380.58100884977	0
2	901	103541.191145341216	1
2	903	103541.191145341216	0
2	926	105792.252311837926	1
2	928	105792.252311837926	0
2	953	111270.566276226932	1
2	955	111270.566276226932	0
2	962	112812.392017912571	1
2	964	112812.392017912571	0
2	976	114364.226685756983	1
2	981	114649.714699492923	0
2	993	116178.489841311362	1
2	998	116288.880077582288	0
2	1013	119060.52432749335	1
2	1015	119060.52432749335	0
2	1018	119331.093697428085	1
2	1026	119377.968659046042	0
2	1038	120551.322213994603	1
2	1040	120551.322213994603	0
2	1073	127036.185462309329	1
2	1075	127036.185462309329	0
2	1083	130011.204653178899	1
2	1085	130011.204653178899	0
2	1105	133011.59020707426	1
2	1108	133016.376670289297	2
2	1113	133197.290063245184	1
2	1118	133482.356333895773	0
2	1125	135965.715075774053	1
2	1127	135965.715075774053	0
2	1151	138012.987309091144	1
2	1153	138012.987309091144	0
2	1168	140745.308066202315	1
2	1170	140745.308066202315	0
2	1184	141781.11520986408	1
2	1186	141781.11520986408	0
2	1207	144965.890026056812	1
2	1212	145230.147682206829	0
2	1219	147475.922886544788	1
2	1221	147475.922886544788	0
2	1237	150440.064887926558	1
2	1239	150440.064887926558	0
2	1259	153393.669591572419	1
2	1264	153586.100835032686	0
2	1271	155293.012332010746	1
2	1273	155293.012332010746	0
2	1297	159035.275665470863	1
2	1299	159035.275665470863	0
2	1306	161161.449324220976	1
2	1308	161161.449324220976	0
2	1320	162344.918827118881	1
2	1325	162530.349638886759	0
2	1332	164150.147285023972	1
2	1334	164150.147285023972	0
2	1348	164999.924863897713	1
2	1350	164999.924863897713	0
2	1383	170207.035339994647	1
2	1385	170207.035339994647	0
2	1402	176192.495672487297	1
2	1404	176192.495672487297	0
2	1411	178912.175932975909	1
2	1413	178912.175932975909	0
2	1439	186305.238144236443	1
2	1441	186305.238144236443	0
2	1453	189617.579011552701	1
2	1458	189858.215443774251	0
2	1466	192771.086548184847	1
2	1468	192771.086548184847	0
2	1492	197125.835858539156	1
2	1494	197125.835858539156	0
2	1500	197494.635053050294	1
2	1502	197494.635053050294	0
2	1505	197792.178076194636	1
2	1510	197795.701973747448	0
2	1526	200542.687404948335	1
2	1528	200542.687404948335	0
2	1550	201986.351937784377	1
2	1552	201986.351937784377	0
2	1577	207651.298240466477	1
2	1579	207651.298240466477	0
2	1587	210287.130816828022	1
2	1589	210287.130816828022	0
2	1600	210705.556821275861	1
2	1605	210922.385102900293	0
2	1612	212620.681756670615	1
2	1614	212620.681756670615	0
2	1633	213935.138016075112	1
2	1639	214114.548124681952	0
2	1645	215464.900431630558	1
2	1647	215464.900431630558	0
2	1679	218315.68324900894	1
2	1681	218315.68324900894	0
2	1687	219426.575243451839	1
2	1689	219426.575243451839	0
2	1692	219703.009506919538	1
2	1697	219752.636610922636	0
2	1700	219843.281545119605	1
2	1706	220028.955107815609	0
2	1746	224783.487119047423	1
2	1748	224783.487119047423	0
2	1751	225081.448463003105	1
2	1756	225108.912420640409	0
2	1763	227164.470817025568	1
2	1765	227164.470817025568	0
2	1788	228795.573513209867	1
2	1790	228795.573513209867	0
2	1796	229543.154531399789	1
2	1798	229543.154531399789	0
2	1818	231775.889866481737	1
2	1823	231946.602290070913	0
2	1838	232907.974496521747	1
2	1840	232907.974496521747	0
2	1855	235527.587910244981	1
2	1857	235527.587910244981	0
2	1869	236380.772204771258	1
2	1874	236487.585337905574	0
2	1889	239222.127449013867	1
2	1891	239222.127449013867	0
2	1906	241680.162292647578	1
2	1908	241680.162292647578	0
2	1923	243973.382012927967	1
2	1925	243973.382012927967	0
2	1950	248380.890202422251	1
2	1952	248380.890202422251	0
2	1959	250786.402613530691	1
2	1961	250786.402613530691	0
2	1976	253249.323074841438	1
2	1978	253249.323074841438	0
2	2003	258333.809524845426	1
2	2005	258333.809524845426	0
2	2012	260304.461307643686	1
2	2014	260304.461307643686	0
2	2017	260610.305660508259	1
2	2022	260635.354803919475	0
2	2036	261940.113003829404	1
2	2038	261940.113003829404	0
2	2045	262320.103237516506	1
2	2047	262320.103237516506	0
2	2053	262669.612326036512	1
2	2055	262669.612326036512	0
2	2061	263058.44551790547	1
2	2063	263058.44551790547	0
2	2069	263509.661896260138	1
2	2071	263509.661896260138	0
2	2091	264438.005453347277	1
2	2096	264564.461631182208	0
2	2143	266937.276319065397	1
2	2145	266937.276319065397	0
2	2160	269170.8666688476	1
2	2162	269170.8666688476	0
2	2177	271067.350801021527	1
2	2179	271067.350801021527	0
2	2194	273369.708661659129	1
2	2196	273369.708661659129	0
2	2211	274518.951686134575	1
2	2213	274518.951686134575	0
2	2219	275254.766087319058	1
2	2221	275254.766087319058	0
2	2236	276981.438916304755	1
2	2238	276981.438916304755	0
2	2270	280869.458677953413	1
2	2272	280869.458677953413	0
2	2284	283671.319232422544	1
2	2289	283737.328106431817	0
2	2292	283864.478474425013	1
2	2298	283999.967081162169	0
2	2305	286401.265516205561	1
2	2307	286401.265516205561	0
2	2329	287388.284109643256	1
2	2331	287388.284109643256	0
2	2356	293682.912955716214	1
2	2358	293682.912955716214	0
2	2365	294762.339010334857	1
2	2367	294762.339010334857	0
2	2370	294782.670368819809	1
2	2375	295021.07442856016	0
2	2408	300108.430780543335	1
2	2410	300108.430780543335	0
2	2417	302834.69362962252	1
2	2419	302834.69362962252	0
2	2443	307185.623062036903	1
2	2445	307185.623062036903	0
2	2448	307351.597074405608	1
2	2453	307480.61334546265	0
2	2456	307790.443498926347	1
2	2461	307831.390377702079	0
2	2468	308776.194625163943	1
2	2470	308776.194625163943	0
2	2510	313407.097213118945	1
2	2512	313407.097213118945	0
2	2520	316432.757242970519	1
2	2522	316432.757242970519	0
2	2536	317155.662535667118	1
2	2538	317155.662535667118	0
2	2558	319884.782057202537	1
2	2564	320003.445804648184	0
2	2570	320530.793747402296	1
2	2572	320530.793747402296	0
2	2578	321181.800300247574	1
2	2580	321181.800300247574	0
2	2586	321648.624747505668	1
2	2588	321648.624747505668	0
2	2595	322688.623356696753	1
2	2597	322688.623356696753	0
2	2619	323808.329513565987	1
2	2621	323808.329513565987	0
2	2641	324922.846142563135	1
2	2646	325120.398820659976	0
2	2678	329374.310108715988	1
2	2680	329374.310108715988	0
2	2687	331478.12959546863	1
2	2689	331478.12959546863	0
2	2704	333525.69408628195	1
2	2706	333525.69408628195	0
2	2721	335495.52448683474	1
2	2723	335495.52448683474	0
2	2726	335695.761234756521	1
2	2729	335753.099713270348	2
2	2734	335795.182878057384	1
2	2740	336069.124156573567	0
2	2754	337187.928777866396	1
2	2756	337187.928777866396	0
2	2796	340345.297921041982	1
2	2798	340345.297921041982	0
2	2813	343754.015292796425	1
2	2815	343754.015292796425	0
2	2831	347437.945461051714	1
2	2833	347437.945461051714	0
2	2840	348935.070757899384	1
2	2842	348935.070757899384	0
2	2845	349087.999653248021	1
2	2850	349206.136252256319	0
2	2882	353731.164921349997	1
2	2884	353731.164921349997	0
2	2891	355651.088385548903	1
2	2893	355651.088385548903	0
2	2909	358101.48914827091	1
2	2911	358101.48914827091	0
2	2925	358969.04036414438	1
2	2927	358969.04036414438	0
2	2951	363155.377660407858	1
2	2953	363155.377660407858	0
2	2971	370392.335153843888	1
2	2973	370392.335153843888	0
2	2979	371658.874305444243	1
2	2981	371658.874305444243	0
2	2988	372833.363436065087	1
2	2990	372833.363436065087	0
2	3004	373922.445503801106	1
2	3006	373922.445503801106	0
2	3038	377435.646092409135	1
2	3040	377435.646092409135	0
2	3047	378190.493702009405	1
2	3049	378190.493702009405	0
2	3055	379447.621993572701	1
2	3057	379447.621993572701	0
2	3063	379726.606358043438	1
2	3065	379726.606358043438	0
2	3080	380973.57410654633	1
2	3082	380973.57410654633	0
2	3110	382759.806999204104	1
2	3115	382831.031207839078	0
2	3130	384204.12958920722	1
2	3132	384204.12958920722	0
2	3138	385270.360388396737	1
2	3140	385270.360388396737	0
2	3163	387530.920502340686	1
2	3165	387530.920502340686	0
2	3177	388490.905335175663	1
2	3182	388732.909657874589	0
2	3188	389690.10552041263	1
2	3190	389690.10552041263	0
2	3205	390989.681383074537	1
2	3207	390989.681383074537	0
2	3210	391194.566374018784	1
2	3213	391262.917576681136	2
2	3218	391341.251168262888	1
2	3223	391609.42429376197	0
2	3246	393223.299706131087	1
2	3248	393223.299706131087	0
2	3262	393945.774383982378	1
2	3264	393945.774383982378	0
2	3284	395456.470462967313	1
2	3289	395691.24312445486	0
2	3301	396395.648136712423	1
2	3306	396541.749640342927	0
2	3329	399942.821010222406	1
2	3331	399942.821010222406	0
2	3347	402548.495769365486	1
2	3349	402548.495769365486	0
2	3373	407783.140962944092	1
2	3375	407783.140962944092	0
2	3382	409254.333102442189	1
2	3384	409254.333102442189	0
2	3408	413421.390171138241	1
2	3410	413421.390171138241	0
2	3417	415515.426839550262	1
2	3419	415515.426839550262	0
2	3431	416144.160533221482	1
2	3436	416381.360520977206	0
2	3443	418102.16406042958	1
2	3445	418102.16406042958	0
2	3451	418422.290961541557	1
2	3453	418422.290961541557	0
2	3476	420098.328335549702	1
2	3478	420098.328335549702	0
2	3510	425034.878958801702	1
2	3512	425034.878958801702	0
2	3518	425801.295942860565	1
2	3520	425801.295942860565	0
2	3527	427832.716944816133	1
2	3529	427832.716944816133	0
2	3532	427917.921578506537	1
2	3541	428073.305944344681	0
2	3552	428581.700823932193	1
2	3557	428641.943186444689	0
2	3568	429651.609472529578	1
2	3570	429651.609472529578	0
2	3590	431106.570154246401	1
2	3595	431385.415523229775	0
2	3601	431718.324532555961	1
2	3603	431718.324532555961	0
2	3640	434941.293465652848	1
2	3645	435142.063604017369	0
2	3652	437359.786909960914	1
2	3654	437359.786909960914	0
2	3669	438950.580391405478	1
2	3671	438950.580391405478	0
2	3686	441188.007311520419	1
2	3688	441188.007311520419	0
2	3703	443546.230819732535	1
2	3705	443546.230819732535	0
2	3716	443869.944639810295	1
2	3722	444123.900530587427	0
2	3728	445301.120893968957	1
2	3730	445301.120893968957	0
2	3753	447375.442275326918	1
2	3755	447375.442275326918	0
2	3779	451417.585754281544	1
2	3781	451417.585754281544	0
2	3788	453284.012296546529	1
2	3790	453284.012296546529	0
2	3793	453365.346511968212	1
2	3798	453618.47485463243	0
2	3810	454313.603639579043	1
2	3815	454385.565981004148	0
2	3847	458277.062603625136	1
2	3849	458277.062603625136	0
2	3855	459282.013518446098	1
2	3857	459282.013518446098	0
2	3883	467565.52410714938	1
2	3885	467565.52410714938	0
2	3898	470814.510532179109	1
2	3903	470843.072281841616	0
2	3910	473242.29586851039	1
2	3912	473242.29586851039	0
2	3928	476023.231422176046	1
2	3930	476023.231422176046	0
2	3953	479887.132419952191	1
2	3955	479887.132419952191	0
2	3958	479966.827130252401	1
2	3964	480184.450462026232	0
2	3987	483680.396030963815	1
2	3989	483680.396030963815	0
2	3996	484412.257408611677	1
2	3998	484412.257408611677	0
2	4001	484477.021594748894	1
2	4006	484698.060053296883	0
2	4034	487713.188691850348	1
2	4039	487788.140171225154	0
2	4046	488888.238582940816	1
2	4048	488888.238582940816	0
2	4051	489066.928057894381	1
2	4056	489151.941090616905	0
2	4063	490738.956625580462	1
2	4065	490738.956625580462	0
2	4096	492867.151324614948	1
2	4098	492867.151324614948	0
2	4104	493480.776071405837	1
2	4106	493480.776071405837	0
2	4109	493483.849466009027	1
2	4117	493787.683864117879	0
2	4129	494559.416239819855	1
2	4131	494559.416239819855	0
2	4159	497024.738583475698	1
2	4164	497041.208232737493	0
2	4179	498247.778571726498	1
2	4181	498247.778571726498	0
2	4206	505093.77922136626	1
2	4208	505093.77922136626	0
2	4225	510975.560447236692	1
2	4227	510975.560447236692	0
2	4230	511142.727560900962	1
2	4235	511253.556539253872	0
2	4242	512051.707531407786	1
2	4244	512051.707531407786	0
2	4250	513194.499733057429	1
2	4252	513194.499733057429	0
2	4267	514096.874824231058	1
2	4272	514119.149416063956	0
2	4309	518109.071855266504	1
2	4311	518109.071855266504	0
2	4328	524987.834441763746	1
2	4330	524987.834441763746	0
2	4337	526440.554198223277	1
2	4339	526440.554198223277	0
2	4345	527200.557236006826	1
2	4347	527200.557236006826	0
2	4354	528049.939921552314	1
2	4356	528049.939921552314	0
2	4378	529528.270732024858	1
2	4380	529528.270732024858	0
2	4412	533950.7577658973	1
2	4414	533950.7577658973	0
2	4421	534919.403318931369	1
2	4423	534919.403318931369	0
2	4435	537164.366222821231	1
2	4440	537166.32895614762	0
2	4455	539578.562745467137	1
2	4457	539578.562745467137	0
2	4478	542368.074362080926	1
2	4483	542504.336038893993	0
2	4500	548148.794781715884	1
2	4502	548148.794781715884	0
2	4508	549749.387747830036	1
2	4510	549749.387747830036	0
2	4526	552537.608630277267	1
2	4528	552537.608630277267	0
2	4531	552611.973192284106	1
2	4536	552826.787477652869	0
2	4570	561990.289053772294	1
2	4572	561990.289053772294	0
2	4579	562481.039416755072	1
2	4581	562481.039416755072	0
2	4605	566160.555468940521	1
2	4607	566160.555468940521	0
2	4610	566488.307778188246	1
2	4615	566505.54861603843	0
2	4622	568384.265072760261	1
2	4624	568384.265072760261	0
2	4644	570003.459838006748	1
2	4649	570104.386556070016	0
2	4673	575114.890120043096	1
2	4675	575114.890120043096	0
2	4682	576026.849953824384	1
2	4684	576026.849953824384	0
2	4687	576200.488313003477	1
2	4692	576353.183407376328	0
2	4725	582392.860290007079	1
2	4727	582392.860290007079	0
2	4744	588775.160063748987	1
2	4746	588775.160063748987	0
2	4762	592287.609749958285	1
2	4764	592287.609749958285	0
2	4770	592794.312491315985	1
2	4772	592794.312491315985	0
2	4787	595590.676536806256	1
2	4789	595590.676536806256	0
2	4813	599084.28584370182	1
2	4815	599084.28584370182	0
2	4832	604721.819688134166	1
2	4834	604721.819688134166	0
2	4841	606082.354125814817	1
2	4843	606082.354125814817	0
2	4849	606641.963911181953	1
2	4851	606641.963911181953	0
2	4854	606657.979060999807	1
2	4859	606933.704576298292	0
2	4891	610230.672117395654	1
2	4893	610230.672117395654	0
2	4907	611742.524726946451	1
2	4909	611742.524726946451	0
2	4933	615230.522041840755	1
2	4935	615230.522041840755	0
2	4938	615309.630486284878	1
2	4943	615472.133944382276	0
2	4950	617332.386936633381	1
2	4952	617332.386936633381	0
2	4955	617632.468434892187	1
2	4960	617637.172305434668	0
2	5001	623529.950855984847	1
2	5003	623529.950855984847	0
2	5010	625170.628421730079	1
2	5012	625170.628421730079	0
2	5019	626110.333856498182	1
2	5021	626110.333856498182	0
2	5024	626124.398430278544	1
2	5027	626242.225670921459	2
2	5032	626391.506330100486	1
2	5040	626706.884947987928	0
2	5052	628574.093592344644	1
2	5054	628574.093592344644	0
2	5101	631823.141910238861	1
2	5103	631823.141910238861	0
2	5110	632666.200292721262	1
2	5112	632666.200292721262	0
2	5137	639864.55079466495	1
2	5139	639864.55079466495	0
2	5143	640058.193945648346	1
2	5148	640170.49401202442	0
2	5154	641008.966992836717	1
2	5156	641008.966992836717	0
2	5163	642388.581433608488	1
2	5165	642388.581433608488	0
2	5187	643648.756833387691	1
2	5189	643648.756833387691	0
2	5192	643751.351054195854	1
2	5197	643907.227337318965	0
2	5212	645542.430750390474	1
2	5214	645542.430750390474	0
2	5220	645611.849138142207	1
2	5225	645823.511959306138	0
2	5245	646645.855635433093	1
2	5250	646731.025604335249	0
2	5261	647358.180177636911	1
2	5263	647358.180177636911	0
2	5295	650543.368717659502	1
2	5297	650543.368717659502	0
2	5323	659811.108804081182	1
2	5325	659811.108804081182	0
2	5333	662083.912133643711	1
2	5335	662083.912133643711	0
2	5346	663043.238596608356	1
2	5351	663125.433259200735	0
2	5354	663239.155247035253	1
2	5359	663391.205919693622	0
2	5362	663410.160342649398	1
2	5365	663709.851924752182	2
2	5370	663730.539120564	1
2	5376	664012.516326677046	0
2	5382	664528.918996950217	1
2	5384	664528.918996950217	0
2	5395	665040.879824628429	1
2	5400	665240.522088849009	0
2	5406	665859.339948127665	1
2	5408	665859.339948127665	0
2	5415	666146.679432702935	1
2	5423	666213.579516218001	0
2	5447	667182.858807160941	1
2	5452	667368.470002127666	0
2	5488	669031.350020683489	1
2	5493	669234.388311172598	0
2	5513	671474.341042179122	1
2	5515	671474.341042179122	0
2	5539	674621.363426452881	1
2	5541	674621.363426452881	0
2	5557	679326.207791680487	1
2	5559	679326.207791680487	0
2	5566	681485.783684157611	1
2	5568	681485.783684157611	0
2	5589	684482.530146079132	1
2	5594	684657.637343206873	0
2	5601	686700.515915757284	1
2	5603	686700.515915757284	0
2	5627	690229.337404682879	1
2	5629	690229.337404682879	0
2	5645	695687.977365992805	1
2	5647	695687.977365992805	0
2	5659	697920.810641636814	1
2	5665	698186.282124127007	0
2	5671	699649.1267709366	1
2	5673	699649.1267709366	0
2	5688	701330.076671927342	1
2	5690	701330.076671927342	0
2	5697	702077.710202823054	1
2	5699	702077.710202823054	0
2	5702	702348.501029217056	1
2	5707	702403.962291897781	0
2	5721	703530.257972840893	1
2	5723	703530.257972840893	0
2	5730	704079.095292883516	1
2	5732	704079.095292883516	0
2	5754	705343.763379220285	1
2	5756	705343.763379220285	0
2	5771	706172.834938517564	1
2	5773	706172.834938517564	0
2	5787	707244.495575932787	1
2	5789	707244.495575932787	0
2	5809	708169.124229947054	1
2	5814	708253.030118193089	0
2	5817	708307.378348146701	1
2	5822	708575.976376590838	0
2	5845	710931.026815136597	1
2	5847	710931.026815136597	0
2	5870	712328.377035728274	1
2	5872	712328.377035728274	0
2	5878	712950.855379596887	1
2	5880	712950.855379596887	0
2	5912	716709.820661660229	1
2	5914	716709.820661660229	0
2	5917	716744.376506782573	1
2	5922	717046.428552711189	0
2	5946	721280.299329148485	1
2	5948	721280.299329148485	0
2	5956	724249.865031336714	1
2	5958	724249.865031336714	0
2	5972	725877.897068499852	1
2	5974	725877.897068499852	0
2	5981	726763.924819121378	1
2	5983	726763.924819121378	0
2	5998	728339.212699843873	1
2	6000	728339.212699843873	0
2	6003	728681.168176359963	1
2	6011	728686.114147301198	0
2	6014	728716.316258555437	1
2	6019	729009.015506975613	0
2	6064	732842.560540423467	1
2	6066	732842.560540423467	0
2	6072	733782.856300456896	1
2	6074	733782.856300456896	0
2	6098	737871.260346844307	1
2	6100	737871.260346844307	0
2	6103	737879.390213837912	1
2	6109	738185.299702216765	0
2	6115	738797.666323106334	1
2	6117	738797.666323106334	0
2	6120	738958.996133193397	1
2	6125	739105.340283056191	0
2	6128	739364.086438948891	1
2	6133	739380.182215567962	0
2	6164	741968.416224996985	1
2	6169	741980.918155083036	0
2	6190	744510.312342234806	1
2	6192	744510.312342234806	0
2	6203	745887.891057330557	1
2	6209	746018.985170033312	0
2	6224	748476.846711754357	1
2	6226	748476.846711754357	0
2	6240	749574.820468656303	1
2	6242	749574.820468656303	0
2	6267	754883.379356079119	1
2	6269	754883.379356079119	0
2	6272	755129.480235661108	1
2	6277	755217.181671013436	0
2	6284	756421.077331917151	1
2	6286	756421.077331917151	0
2	6319	762328.891575715723	1
2	6321	762328.891575715723	0
2	6324	762483.977553636114	1
2	6329	762636.817847352449	0
2	6335	763022.171761387137	1
2	6337	763022.171761387137	0
2	6370	768143.476962907999	1
2	6372	768143.476962907999	0
2	6387	771396.10395095796	1
2	6389	771396.10395095796	0
2	6392	771628.95639177744	1
2	6397	771732.102755184054	0
2	6404	773440.123178578811	1
2	6406	773440.123178578811	0
2	6409	773472.77887257695	1
2	6414	773728.836792109074	0
2	6454	777809.24085266044	1
2	6456	777809.24085266044	0
2	6463	779333.417347049209	1
2	6465	779333.417347049209	0
2	6472	780348.467482837477	1
2	6474	780348.467482837477	0
2	6488	781426.871149398653	1
2	6490	781426.871149398653	0
2	6496	781896.172087111767	1
2	6498	781896.172087111767	0
2	6527	784690.429765319399	1
2	6532	784838.004107422459	0
2	6547	787108.055008216756	1
2	6549	787108.055008216756	0
2	6564	789703.986135267501	1
2	6566	789703.986135267501	0
2	6578	790230.183313060712	1
2	6583	790298.554669130411	0
2	6590	792445.133022745847	1
2	6592	792445.133022745847	0
2	6595	792533.770083702062	1
2	6600	792749.79792880302	0
2	6606	792937.994849565173	1
2	6611	793075.51177462184	0
2	6622	793397.002155599089	1
2	6627	793655.040080715864	0
2	6639	794919.525366308456	1
2	6641	794919.525366308456	0
2	6677	797030.168850540983	1
2	6682	797130.12677262944	0
2	6702	799713.949715922082	1
2	6707	799931.998063363851	0
2	6723	803338.026441040342	1
2	6725	803338.026441040342	0
2	6731	803932.397724081919	1
2	6733	803932.397724081919	0
2	6740	804686.729378067706	1
2	6742	804686.729378067706	0
2	6748	805265.938280408836	1
2	6750	805265.938280408836	0
2	6765	806975.066063103246	1
2	6767	806975.066063103246	0
2	6795	808175.674010432351	1
2	6800	808365.57031910389	0
2	6823	811628.786503577495	1
2	6825	811628.786503577495	0
2	6842	816610.211976988121	1
2	6844	816610.211976988121	0
2	6850	817473.207532477312	1
2	6852	817473.207532477312	0
2	6855	817628.926352182715	1
2	6860	817783.534973146766	0
2	6894	825012.152687628355	1
2	6896	825012.152687628355	0
2	6902	825557.906238291669	1
2	6904	825557.906238291669	0
2	6911	827317.907592792769	1
2	6913	827317.907592792769	0
2	6916	827358.105540428526	1
2	6924	827629.099322398387	0
2	6927	827670.905155495977	1
2	6932	827911.951169868607	0
2	6952	828880.683548351497	1
2	6954	828880.683548351497	0
2	6957	829053.720433586712	1
2	6962	829204.456268612573	0
2	6969	830003.030266428203	1
2	6971	830003.030266428203	0
2	6990	830582.032354203475	1
2	6998	830816.73706199689	0
2	7031	833141.65266520803	1
2	7036	833280.946555671226	0
2	7051	834495.000615935785	1
2	7053	834495.000615935785	0
2	7073	837607.135076394415	1
2	7078	837811.881635991473	0
2	7085	838695.391823103197	1
2	7087	838695.391823103197	0
2	7090	838826.668091690845	1
2	7093	838828.299482205158	2
2	7098	839013.633076019622	1
2	7103	839269.018677086616	0
2	7118	840913.539948609111	1
2	7120	840913.539948609111	0
2	7151	843248.646886477821	1
2	7153	843248.646886477821	0
2	7168	844598.290597628634	1
2	7170	844598.290597628634	0
2	7176	845049.787009630849	1
2	7178	845049.787009630849	0
2	7181	845246.073033397555	1
2	7186	845339.393384823295	0
2	7193	846008.713243152967	1
2	7195	846008.713243152967	0
2	7209	847482.081185478615	1
2	7211	847482.081185478615	0
2	7220	847775.843953928915	1
2	7225	847802.160971048065	0
2	7275	851637.549949157515	1
2	7277	851637.549949157515	0
2	7285	854107.061338176733	1
2	7287	854107.061338176733	0
2	7301	855339.22572004273	1
2	7303	855339.22572004273	0
2	7310	856858.078709132635	1
2	7312	856858.078709132635	0
2	7323	857433.729320656978	1
2	7328	857437.186268438099	0
2	7331	857568.906857690793	1
2	7336	857696.310457943494	0
2	7343	858230.297201835349	1
2	7345	858230.297201835349	0
2	7356	858840.498782906644	1
2	7361	859068.157314846463	0
2	7411	867443.445300613192	1
2	7413	867443.445300613192	0
2	7420	868371.385306586326	1
2	7422	868371.385306586326	0
2	7437	871495.9331858825	1
2	7439	871495.9331858825	0
2	7455	874245.086108106906	1
2	7457	874245.086108106906	0
2	7471	875924.221305344733	1
2	7473	875924.221305344733	0
2	7497	879914.387052714536	1
2	7499	879914.387052714536	0
2	7506	880836.113813696918	1
2	7508	880836.113813696918	0
2	7515	882185.060457605972	1
2	7517	882185.060457605972	0
2	7520	882439.221760393616	1
2	7525	882468.323894924894	0
2	7545	884156.023904494342	1
2	7550	884382.046574833222	0
2	7573	886953.898701560392	1
2	7575	886953.898701560392	0
2	7599	891091.39889354959	1
2	7601	891091.39889354959	0
2	7607	891668.854198646441	1
2	7609	891668.854198646441	0
2	7616	892464.760729223779	1
2	7618	892464.760729223779	0
2	7632	893960.503080936184	1
2	7634	893960.503080936184	0
2	7658	896145.110303710205	1
2	7660	896145.110303710205	0
2	7671	897280.54222273655	1
2	7676	897385.453889931787	0
2	7701	902031.454608041786	1
2	7703	902031.454608041786	0
2	7709	903917.748693920179	1
2	7711	903917.748693920179	0
2	7718	904584.881033217043	1
2	7720	904584.881033217043	0
2	7726	905215.515216529458	1
2	7728	905215.515216529458	0
2	7743	906312.446324749723	1
2	7745	906312.446324749723	0
2	7748	906543.067236203129	1
2	7753	906570.447212150582	0
2	7802	912175.019783980065	1
2	7804	912175.019783980065	0
2	7810	912953.710511047263	1
2	7812	912953.710511047263	0
2	7839	922379.816283734587	1
2	7841	922379.816283734587	0
2	7844	922526.804264955667	1
2	7849	922682.603136034027	0
2	7856	924928.69063459738	1
2	7858	924928.69063459738	0
2	7861	925018.228846111698	1
2	7866	925226.23835698625	0
2	7889	926287.95284062407	1
2	7891	926287.95284062407	0
2	7894	926330.852775180465	1
2	7899	926650.468274360964	0
2	7922	928616.11840351325	1
2	7924	928616.11840351325	0
2	7930	929131.29866798851	1
2	7932	929131.29866798851	0
2	7955	930244.709566973133	1
2	7957	930244.709566973133	0
2	7989	935058.134260155679	1
2	7991	935058.134260155679	0
2	7997	935630.615920277766	1
2	7999	935630.615920277766	0
2	8006	936506.290507210755	1
2	8008	936506.290507210755	0
2	8011	936554.024736342827	1
2	8016	936799.734565600783	0
2	8058	945004.373907877085	1
2	8060	945004.373907877085	0
2	8067	946213.235103839584	1
2	8069	946213.235103839584	0
2	8084	948964.046257812556	1
2	8086	948964.046257812556	0
2	8100	949985.992974326622	1
2	8102	949985.992974326622	0
2	8106	950188.271007309339	1
2	8111	950248.560907093015	0
3	687	87530.643319566125	0
3	696	88651.504893939726	0
3	746	93334.721574145583	0
3	754	93868.318555002236	0
3	763	94136.468150485831	0
3	779	94829.399755886447	637.29626582463
3	796	96487.549733054669	181.62678247466
3	804	96888.325775785982	0
3	829	99038.999704377277	0
3	854	100552.260120821721	481.54365283403
3	878	101648.611661908423	297.04949020117
3	887	102403.619394799018	0
3	895	102894.317431284399	0
3	912	104417.552870363773	0
3	920	104745.257136718045	237.77963103942
3	937	106985.196070633629	0
3	946	108756.636857122719	0
3	973	114333.861847708508	0
3	989	115989.588675860319	0
3	1006	117469.176964105864	0
3	1031	119725.976435313268	384.28669008686
3	1048	121713.527676295425	0
3	1057	122132.180734608208	0
3	1065	123386.949332929209	0
3	1093	130363.76103295056	235.02904494545
3	1102	132859.849355498814	0
3	1136	136625.558568539709	0
3	1144	136921.949945963367	195.64409092812
3	1161	138897.951291583758	0
3	1178	141011.846693967285	215.22789069285
3	1196	144320.471985756871	0
3	1204	144890.295434793677	0
3	1230	148911.483112961317	0
3	1247	150750.792364526025	236.36044741276
3	1256	153280.425730009243	0
3	1282	156910.74828847169	0
3	1291	158485.050433255117	0
3	1317	162260.7577709011	0
3	1342	164455.724553837628	218.67150720084
3	1358	165338.213065286492	0
3	1367	167368.922684341577	0
3	1376	168413.10219195888	0
3	1394	173129.798876586898	0
3	1421	179420.35523075358	0
3	1431	182176.247470601416	0
3	1450	189565.79563961909	0
3	1476	193219.809750315061	0
3	1485	195779.715418579094	0
3	1519	199624.004622162438	0
3	1536	200868.501656158358	288.15568562747
3	1544	201206.725251111732	291.82033088838
3	1561	203430.14787477786	0
3	1570	204810.244976151718	0
3	1597	210628.99747812184	18.313528393584
3	1622	213071.127151849439	0
3	1630	213803.327132807677	0
3	1655	215810.44802870086	179.02099038873
3	1664	217015.895772804395	0
3	1673	218005.23363870359	0
3	1714	220942.365288766336	0
3	1723	222267.632546985504	0
3	1731	222530.198399483652	26.744442702935
3	1739	222869.578136336931	0
3	1773	227784.881943678017	0
3	1782	228362.397593359993	0
3	1807	230768.495712745102	0
3	1815	231614.04889476524	0
3	1832	232543.762781442411	0
3	1849	234918.247665585638	0
3	1866	236175.339561677508	0
3	1883	238425.627338712105	0
3	1899	239707.655378666209	0
3	1917	242495.75625691444	0
3	1934	244842.720942023117	0
3	1943	246627.325397637114	0
3	1969	251818.281073839383	0
3	1986	253576.005738868225	77.095838755064
3	1996	256788.704492092986	0
3	2030	261262.203313373231	0
3	2079	263883.200952569682	206.24604316246
3	2088	264336.153535934773	0
3	2104	265042.220025273753	0
3	2112	265368.626254649552	240.90455787662
3	2120	265745.908065804365	0
3	2129	266123.778295559987	0
3	2137	266437.600297343628	176.93090658469
3	2153	267443.396857656463	0
3	2170	269479.888153698092	29.34375844655
3	2188	272245.658348698662	0
3	2205	274104.021785348158	0
3	2230	276596.555864270914	0
3	2246	277753.620064744855	0
3	2255	279079.044876662466	0
3	2263	279912.045607256635	0
3	2281	283406.872089764693	0
3	2315	286678.0555714019	230.06636060981
3	2323	287014.127294154022	82.267017654328
3	2340	289598.925196007847	0
3	2349	290313.060281922694	0
3	2384	297173.731941127202	0
3	2393	298236.178484927993	0
3	2401	298499.728916322142	27.261425429705
3	2427	303165.444031602157	21.25021814363
3	2436	305638.120539146738	0
3	2479	310420.187905965848	0
3	2487	310701.047976966247	170.99771905459
3	2495	311097.623919195256	0
3	2503	311661.619137511709	0
3	2530	316730.466709797075	285.19799988728
3	2547	319416.479085885279	0
3	2555	319692.418658034682	215.81914545014
3	2605	323048.820099403205	0
3	2613	323354.808214769634	0
3	2630	324050.961676979783	31.202682517539
3	2638	324788.714247329779	0
3	2654	325662.980437008068	0
3	2663	326816.911647013904	0
3	2672	328513.105194860076	0
3	2698	332068.007636426431	0
3	2715	334085.448113159676	0
3	2748	336744.061197022319	0
3	2765	338520.849263755762	0
3	2773	338820.092262331983	129.2597540236
3	2781	339589.488468209535	0
3	2789	339896.897878428747	295.22342746806
3	2807	342805.295471362042	0
3	2825	346759.631746657249	0
3	2859	350444.18872781295	0
3	2868	352135.710585827579	0
3	2876	352422.029800508783	227.33709697895
3	2902	356966.253066952714	0
3	2919	358352.88363396573	191.71989140704
3	2936	360751.881208521437	0
3	2945	362177.968861612339	0
3	2963	366477.734664157205	0
3	2998	373271.094982790076	0
3	3015	374566.177425068883	0
3	3023	375422.028129351694	0
3	3032	376848.702259352347	0
3	3074	380435.590908408628	0
3	3090	381363.573916128643	0
3	3099	382223.406448450607	0
3	3107	382551.819746742873	0
3	3123	383793.242738794899	0
3	3149	386006.701586051965	0
3	3157	386680.758679663539	0
3	3174	388400.974804784878	0
3	3199	390335.301753915269	0
3	3232	392201.146526004571	0
3	3240	392841.846253882442	0
3	3256	393516.078331521092	0
3	3273	394377.567636662261	0
3	3281	395372.024968145777	0
3	3298	396317.898238058987	0
3	3314	397153.246094614295	0
3	3323	398138.890979853196	0
3	3340	400280.187676920776	92.175263689536
3	3357	403097.763755327946	0
3	3367	406328.23609476686	0
3	3393	410776.24861144896	0
3	3402	412211.806261889295	0
3	3428	416066.745738241772	0
3	3461	418697.082454430928	162.90344071662
3	3469	419377.685292311093	0
3	3486	421050.150143327948	0
3	3494	421318.44550265393	15.281696933354
3	3503	422656.098972582062	0
3	3546	428375.026659215377	423.87394920064
3	3562	428967.633177341429	399.41489505856
3	3579	430797.986095208929	0
3	3587	431073.716747590123	116.48672090806
3	3612	432036.870380608417	174.48412778663
3	3620	432834.054894481913	0
3	3629	434544.587862219207	0
3	3637	434861.539249386962	258.70405929315
3	3662	437697.451894038887	0
3	3680	440419.931670573487	0
3	3696	441611.510188307358	0
3	3713	443802.667982394366	253.89217427731
3	3739	446572.735608630804	0
3	3747	446909.364537310807	25.082025345543
3	3764	448532.619374425811	0
3	3773	450158.210360671894	0
3	3807	454080.6721737018	0
3	3824	456124.825771129592	0
3	3832	457141.086259803984	0
3	3840	457510.777973912479	0
3	3866	461807.542694373418	0
3	3875	462161.880407854586	233.01286781959
3	3895	470588.485581218941	0
3	3921	473999.533949072604	0
3	3938	476403.919940379485	0
3	3947	479340.198901735526	0
3	3973	482886.235015430428	0
3	3981	483197.880434573319	12.021781258255
3	4015	486416.570454767366	0
3	4023	487193.615277331304	0
3	4031	487501.644136947716	153.5521612237
3	4073	491060.179210776661	85.334719650518
3	4081	491890.659536840781	0
3	4090	492195.070883550897	273.73656252412
3	4123	494061.706514871656	504.56260902454
3	4140	496108.615536209964	0
3	4148	496403.772021325713	0
3	4156	496724.871617837131	215.36624199565
3	4172	497848.345732365452	0
3	4189	499568.285749979505	0
3	4198	501142.686112041536	0
3	4218	508198.154340154868	0
3	4260	513843.195978506122	0
3	4277	514440.010859488876	430.37903833092
3	4285	515041.770961604489	0
3	4293	515785.437477622404	0
3	4302	517042.392215538173	0
3	4320	521120.082427220069	0
3	4364	528347.484588545805	39.721072965986
3	4372	529222.142469618522	0
3	4388	529976.247720005227	0
3	4397	531023.101387015546	0
3	4406	532778.991981669722	0
3	4432	536867.114923912131	0
3	4448	537881.056872152213	0
3	4466	540476.444754961817	0
3	4475	542228.278439630473	0
3	4492	545789.664212955549	0
3	4519	551745.104226025887	0
3	4544	553171.003629001787	123.44003958803
3	4553	555463.219570085624	0
3	4562	556302.439861767625	0
3	4590	565259.699147691343	0
3	4598	565611.677418387043	144.45761028326
3	4632	568890.901009056252	0
3	4640	569832.15418070437	0
3	4657	571767.292078685971	0
3	4666	572977.575317703081	0
3	4701	578000.820916229542	0
3	4709	578552.145030922819	0
3	4717	579639.86762506175	0
3	4736	585284.586371655949	0
3	4755	591574.959469629294	0
3	4781	594873.938896862599	0
3	4797	595951.897028520651	0
3	4807	598300.939545927122	0
3	4824	601508.209285223227	0
3	4868	608009.480209276757	0
3	4876	608988.782717612286	0
3	4884	609452.924317195114	0
3	4901	610543.290209802121	0
3	4918	613281.275913289026	0
3	4927	614324.159599338416	0
3	4968	617925.236239233127	17.792651565449
3	4977	618170.747428405889	211.38487935368
3	4986	620188.475267586219	0
3	4994	620458.690572288259	46.094379300188
3	5045	626983.649143442302	418.45235824828
3	5062	628899.665488817544	263.54278634542
3	5070	629239.609539175226	192.04717086754
3	5081	629515.30799519979	246.91125068172
3	5086	629852.256617051724	517.68526305129
3	5095	631518.415579282063	0
3	5121	635241.584403678018	0
3	5129	635532.211616712379	21.149207845992
3	5173	642888.309267271105	0
3	5181	643207.637230944453	99.845985613865
3	5206	644208.313502985045	169.21048094448
3	5231	646158.50209927007	582.23555945296
3	5239	646437.349420313353	10.803135945257
3	5255	646982.85183844986	473.40782572021
3	5272	648490.684903970839	0
3	5280	648812.143441439956	5.076511908525
3	5288	649690.948654431723	0
3	5305	650902.91968528372	331.75788773509
3	5314	653477.396256055587	0
3	5343	662797.327652017886	0
3	5392	664925.057771795814	0
3	5431	666484.957049306602	463.99021057795
3	5439	666748.925411701396	535.88037620552
3	5444	667049.927833432325	592.2585781612
3	5460	667676.414147754654	934.21607321688
3	5468	667938.128406466243	429.10844674649
3	5474	668259.843801945922	522.42213606947
3	5482	668946.491086252346	0
3	5498	669504.015363434689	485.2065948417
3	5507	670591.009043105311	0
3	5523	671785.631644833864	0
3	5533	674071.076575333202	0
3	5550	677369.115843297697	0
3	5577	682173.229412333451	0
3	5586	684411.161668841477	0
3	5611	687567.606895081368	0
3	5620	689627.163064287742	0
3	5638	693404.358243835545	0
3	5656	697880.433526015746	0
3	5682	700807.318974198492	0
3	5715	703066.280804165977	0
3	5740	704377.809244318451	287.37025382913
3	5748	704879.120429392563	0
3	5764	705662.327469338099	91.867240714039
3	5781	706444.143036723838	130.16466163357
3	5797	707500.240762285398	108.78412194232
3	5805	707891.964386062262	0
3	5830	708957.428209163835	0
3	5839	710000.373327548227	0
3	5855	711281.295106190857	0
3	5863	711885.152350011541	0
3	5888	713867.989437657441	0
3	5897	714757.694210213825	0
3	5906	716223.626257028487	0
3	5932	720276.183313729445	0
3	5940	720738.096055976088	0
3	5966	724643.650550561503	0
3	5991	727049.688179529242	103.15046696925
3	6024	729250.181085934057	564.85822150466
3	6032	729477.571639392836	132.71677747448
3	6041	731416.473324624851	0
3	6049	731710.621627220371	0
3	6057	731953.023002519927	1.52717605011
3	6084	736000.789350091159	0
3	6092	736832.657495210977	0
3	6142	740968.993780972445	0
3	6150	741361.30961526224	0
3	6158	741718.610704517046	0
3	6175	742310.735986377939	394.98814176197
3	6183	742682.951830846111	0
3	6200	745702.002102801112	0
3	6217	747440.938157248597	0
3	6234	748763.807861968205	0
3	6251	751093.161657081223	0
3	6260	753063.738981314261	0
3	6294	757840.15890270719	0
3	6303	758504.198245236124	0
3	6311	759447.854048636346	0
3	6346	765525.650584874024	0
3	6354	765802.702557173857	159.33164965332
3	6363	766840.39300613424	0
3	6381	770665.236071010777	0
3	6423	774275.511387664438	0
3	6431	774634.826112189083	49.374716354346
3	6440	776846.251325358742	0
3	6448	777108.029996241879	58.729560872013
3	6482	780684.323665419014	285.35546824491
3	6507	782380.271029534467	0
3	6516	784099.458189313033	0
3	6524	784580.929002475031	0
3	6540	785151.459647915787	178.62497107371
3	6557	787448.70363148373	0
3	6575	790025.809777684355	0
3	6619	793355.036673539328	463.53077506249
3	6632	793967.134918494102	878.29130344512
3	6649	795193.117079396484	0
3	6657	795983.671314406463	0
3	6666	796575.042203751013	0
3	6674	796891.19389359132	122.30549187074
3	6691	798202.910986856717	0
3	6699	799624.109271862637	0
3	6717	802883.469583890156	0
3	6759	806259.764052675255	0
3	6775	807235.186999527757	167.54264600063
3	6783	807651.462186671781	0
3	6792	808014.498738282721	93.168060606985
3	6809	810005.530955258831	0
3	6817	811098.534099657212	0
3	6835	814455.581150545708	0
3	6869	819506.896891390147	0
3	6878	820299.245235911547	0
3	6886	820973.457366909055	0
3	6938	828179.67947712234	612.67168220847
3	6946	828516.384954056451	0
3	6979	830271.505989836387	66.734861201117
3	6987	830530.785134369762	81.615867597739
3	7003	831101.990359017262	423.34176598856
3	7011	831436.668166886596	281.0438834636
3	7020	832609.907499991169	0
3	7028	832967.08852725835	254.21586632795
3	7045	834005.903547406653	0
3	7062	836704.393503230475	0
3	7070	837519.603456515712	0
3	7112	840374.034143325549	0
3	7128	841871.316173590794	0
3	7137	842119.840893667884	234.84866719193
3	7145	842436.509322130819	141.93892947695
3	7161	843830.938851922146	0
3	7203	846309.675274030398	229.28921280369
3	7234	848049.257125213512	427.05412602439
3	7239	848387.725763484263	642.35687653919
3	7244	848677.354369372662	753.50606494113
3	7252	849238.141826919932	0
3	7261	850636.052284036037	0
3	7269	850975.07245248911	260.58456940664
3	7295	854419.891457751528	0
3	7320	857105.483860243329	121.19909211575
3	7353	858769.914540426604	0
3	7370	860008.49535170149	0
3	7378	860414.22229472739	0
3	7386	860721.685732083316	195.50034347607
3	7394	860975.314603196512	2.339441166467
3	7402	861500.230821232586	0
3	7431	870608.531527384399	0
3	7447	871747.151840276967	122.68644919089
3	7465	874853.260367679191	0
3	7482	877272.285235531645	0
3	7491	878643.005200224919	0
3	7533	883066.701466147663	0
3	7542	884132.116158522909	0
3	7558	884833.621312784211	0
3	7566	885176.283008094829	0
3	7583	887504.647308218934	0
3	7593	890067.989746385279	0
3	7626	893494.202571182097	0
3	7643	894576.68407669845	0
3	7651	894982.454530356556	0
3	7668	897090.101861225257	0
3	7685	899249.677416764867	0
3	7694	900668.640331883802	0
3	7736	905546.674781492707	75.28850031736
3	7761	906857.8138284915	0
3	7769	907857.267479226511	0
3	7778	908344.73475217455	0
3	7786	908942.087640665028	0
3	7794	909237.076194551141	33.561339510285
3	7821	915391.359779472798	0
3	7829	915848.426447091725	0
3	7874	925486.772418417496	221.01775894045
3	7882	925765.67889904687	85.895665597048
3	7907	927944.405758782087	0
3	7916	928264.20493110873	196.73500727374
3	7940	929461.664945951227	32.768592914698
3	7948	929747.333740756676	258.15020975745
3	7965	931516.589688752128	0
3	7974	932511.291434579734	0
3	7982	933275.66514067574	0
3	8024	937791.705452729396	0
3	8033	938744.887866998157	0
3	8041	939532.717253007316	0
3	8049	939790.858051717352	249.57076965127
3	8078	948035.788156549793	0
3	8094	949303.298787569997	174.96962761453
4	685	87530.643319566125	1
4	687	87530.643319566125	0
4	694	88651.504893939726	1
4	696	88651.504893939726	0
4	744	93334.721574145583	1
4	746	93334.721574145583	0
4	752	93868.318555002236	1
4	754	93868.318555002236	0
4	761	94136.468150485831	1
4	763	94136.468150485831	0
4	766	94192.103490061817	1
4	779	94829.399755886447	0
4	791	96305.922950580007	1
4	796	96487.549733054669	0
4	802	96888.325775785982	1
4	804	96888.325775785982	0
4	827	99038.999704377277	1
4	829	99038.999704377277	0
4	841	100070.716467987693	1
4	854	100552.260120821721	0
4	868	101351.562171707254	1
4	878	101648.611661908423	0
4	885	102403.619394799018	1
4	887	102403.619394799018	0
4	893	102894.317431284399	1
4	895	102894.317431284399	0
4	910	104417.552870363773	1
4	912	104417.552870363773	0
4	915	104507.477505678626	1
4	920	104745.257136718045	0
4	935	106985.196070633629	1
4	937	106985.196070633629	0
4	944	108756.636857122719	1
4	946	108756.636857122719	0
4	971	114333.861847708508	1
4	973	114333.861847708508	0
4	987	115989.588675860319	1
4	989	115989.588675860319	0
4	1004	117469.176964105864	1
4	1006	117469.176964105864	0
4	1021	119341.689745226409	1
4	1031	119725.976435313268	0
4	1046	121713.527676295425	1
4	1048	121713.527676295425	0
4	1055	122132.180734608208	1
4	1057	122132.180734608208	0
4	1063	123386.949332929209	1
4	1065	123386.949332929209	0
4	1088	130128.731988005107	1
4	1093	130363.76103295056	0
4	1100	132859.849355498814	1
4	1102	132859.849355498814	0
4	1134	136625.558568539709	1
4	1136	136625.558568539709	0
4	1139	136726.305855035249	1
4	1144	136921.949945963367	0
4	1159	138897.951291583758	1
4	1161	138897.951291583758	0
4	1173	140796.618803274436	1
4	1178	141011.846693967285	0
4	1194	144320.471985756871	1
4	1196	144320.471985756871	0
4	1202	144890.295434793677	1
4	1204	144890.295434793677	0
4	1228	148911.483112961317	1
4	1230	148911.483112961317	0
4	1242	150514.431917113269	1
4	1247	150750.792364526025	0
4	1254	153280.425730009243	1
4	1256	153280.425730009243	0
4	1280	156910.74828847169	1
4	1282	156910.74828847169	0
4	1289	158485.050433255117	1
4	1291	158485.050433255117	0
4	1315	162260.7577709011	1
4	1317	162260.7577709011	0
4	1337	164237.053046636788	1
4	1342	164455.724553837628	0
4	1356	165338.213065286492	1
4	1358	165338.213065286492	0
4	1365	167368.922684341577	1
4	1367	167368.922684341577	0
4	1374	168413.10219195888	1
4	1376	168413.10219195888	0
4	1392	173129.798876586898	1
4	1394	173129.798876586898	0
4	1419	179420.35523075358	1
4	1421	179420.35523075358	0
4	1429	182176.247470601416	1
4	1431	182176.247470601416	0
4	1448	189565.79563961909	1
4	1450	189565.79563961909	0
4	1474	193219.809750315061	1
4	1476	193219.809750315061	0
4	1483	195779.715418579094	1
4	1485	195779.715418579094	0
4	1517	199624.004622162438	1
4	1519	199624.004622162438	0
4	1531	200580.345970530888	1
4	1536	200868.501656158358	0
4	1539	200914.90492022335	1
4	1544	201206.725251111732	0
4	1559	203430.14787477786	1
4	1561	203430.14787477786	0
4	1568	204810.244976151718	1
4	1570	204810.244976151718	0
4	1592	210610.683949728256	1
4	1597	210628.99747812184	0
4	1620	213071.127151849439	1
4	1622	213071.127151849439	0
4	1628	213803.327132807677	1
4	1630	213803.327132807677	0
4	1650	215631.427038312133	1
4	1655	215810.44802870086	0
4	1662	217015.895772804395	1
4	1664	217015.895772804395	0
4	1671	218005.23363870359	1
4	1673	218005.23363870359	0
4	1712	220942.365288766336	1
4	1714	220942.365288766336	0
4	1721	222267.632546985504	1
4	1723	222267.632546985504	0
4	1726	222503.453956780717	1
4	1731	222530.198399483652	0
4	1737	222869.578136336931	1
4	1739	222869.578136336931	0
4	1771	227784.881943678017	1
4	1773	227784.881943678017	0
4	1780	228362.397593359993	1
4	1782	228362.397593359993	0
4	1805	230768.495712745102	1
4	1807	230768.495712745102	0
4	1813	231614.04889476524	1
4	1815	231614.04889476524	0
4	1830	232543.762781442411	1
4	1832	232543.762781442411	0
4	1847	234918.247665585638	1
4	1849	234918.247665585638	0
4	1864	236175.339561677508	1
4	1866	236175.339561677508	0
4	1881	238425.627338712105	1
4	1883	238425.627338712105	0
4	1897	239707.655378666209	1
4	1899	239707.655378666209	0
4	1915	242495.75625691444	1
4	1917	242495.75625691444	0
4	1932	244842.720942023117	1
4	1934	244842.720942023117	0
4	1941	246627.325397637114	1
4	1943	246627.325397637114	0
4	1967	251818.281073839383	1
4	1969	251818.281073839383	0
4	1981	253498.909900113161	1
4	1986	253576.005738868225	0
4	1994	256788.704492092986	1
4	1996	256788.704492092986	0
4	2028	261262.203313373231	1
4	2030	261262.203313373231	0
4	2074	263676.954909407226	1
4	2079	263883.200952569682	0
4	2086	264336.153535934773	1
4	2088	264336.153535934773	0
4	2102	265042.220025273753	1
4	2104	265042.220025273753	0
4	2107	265127.721696772932	1
4	2112	265368.626254649552	0
4	2118	265745.908065804365	1
4	2120	265745.908065804365	0
4	2127	266123.778295559987	1
4	2129	266123.778295559987	0
4	2132	266260.669390758934	1
4	2137	266437.600297343628	0
4	2151	267443.396857656463	1
4	2153	267443.396857656463	0
4	2165	269450.544395251542	1
4	2170	269479.888153698092	0
4	2186	272245.658348698662	1
4	2188	272245.658348698662	0
4	2203	274104.021785348158	1
4	2205	274104.021785348158	0
4	2228	276596.555864270914	1
4	2230	276596.555864270914	0
4	2244	277753.620064744855	1
4	2246	277753.620064744855	0
4	2253	279079.044876662466	1
4	2255	279079.044876662466	0
4	2261	279912.045607256635	1
4	2263	279912.045607256635	0
4	2279	283406.872089764693	1
4	2281	283406.872089764693	0
4	2310	286447.989210792093	1
4	2315	286678.0555714019	0
4	2318	286931.860276499694	1
4	2323	287014.127294154022	0
4	2338	289598.925196007847	1
4	2340	289598.925196007847	0
4	2347	290313.060281922694	1
4	2349	290313.060281922694	0
4	2382	297173.731941127202	1
4	2384	297173.731941127202	0
4	2391	298236.178484927993	1
4	2393	298236.178484927993	0
4	2396	298472.467490892437	1
4	2401	298499.728916322142	0
4	2422	303144.193813458527	1
4	2427	303165.444031602157	0
4	2434	305638.120539146738	1
[...]
7	2243	277753.620064744855	2
7	2252	279079.044876662466	1
7	2260	279912.045607256635	0
7	2275	281125.608004001927	1
7	2278	283406.872089764693	0
7	2296	283999.967081162169	1
7	2301	284289.716182483308	2
7	2309	286447.989210792093	1
7	2313	286678.0555714019	2
7	2317	286931.860276499694	1
7	2334	287695.163507613508	2
7	2337	289598.925196007847	1
7	2346	290313.060281922694	0
7	2361	293988.963177899724	1
7	2373	295021.07442856016	2
7	2378	295311.149932692302	3
7	2381	297173.731941127202	2
7	2390	298236.178484927993	1
7	2395	298472.467490892437	0
7	2413	300416.372700725634	1
7	2421	303144.193813458527	0
7	2425	303165.444031602157	1
7	2433	305638.120539146738	0
7	2451	307480.61334546265	1
7	2459	307831.390377702079	2
7	2465	308131.219509047607	3
7	2473	309135.957929697866	4
7	2476	310420.187905965848	3
7	2481	310530.050257911658	2
7	2492	311097.623919195256	1
7	2500	311661.619137511709	0
7	2515	313689.872405418093	1
7	2524	316445.268709909791	0
7	2528	316730.466709797075	1
7	2541	317443.246437723956	2
7	2544	319416.479085885279	1
7	2549	319476.599512584542	0
7	2567	320241.250684099159	1
7	2575	320801.141982037058	2
7	2583	321442.87552034301	3
7	2591	321944.767919221791	4
7	2600	322979.757725272709	5
7	2602	323048.820099403205	4
7	2610	323354.808214769634	3
7	2624	324019.758994462244	2
7	2628	324050.961676979783	3
7	2635	324788.714247329779	2
7	2649	325424.864017703694	3
7	2651	325662.980437008068	2
7	2660	326816.911647013904	1
7	2669	328513.105194860076	0
7	2683	329652.348380212228	1
7	2692	331777.096605114215	2
7	2695	332068.007636426431	1
7	2709	333858.082101644089	2
7	2712	334085.448113159676	1
7	2732	335795.182878057384	2
7	2738	336069.124156573567	3
7	2743	336382.559872198617	4
7	2745	336744.061197022319	3
7	2759	337469.410221051819	4
7	2762	338520.849263755762	3
7	2767	338690.832508308387	2
7	2778	339589.488468209535	1
7	2783	339601.674450960682	0
7	2801	340642.535693883691	1
7	2804	342805.295471362042	0
7	2819	344061.151966831504	1
7	2822	346759.631746657249	0
7	2836	347749.255551869226	1
7	2848	349206.136252256319	2
7	2853	349539.371209497453	3
7	2856	350444.18872781295	2
7	2865	352135.710585827579	1
7	2870	352194.692703529835	0
7	2888	354022.502427111345	1
7	2896	355947.413310148434	2
7	2899	356966.253066952714	1
7	2913	358161.163742558692	0
7	2917	358352.88363396573	1
7	2930	359260.552003342554	2
7	2933	360751.881208521437	1
7	2942	362177.968861612339	0
7	2956	363520.028308563082	1
7	2960	366477.734664157205	0
7	2976	370738.971235147836	1
7	2984	371933.896679759141	2
7	2993	373143.309062548062	3
7	2995	373271.094982790076	2
7	3010	374201.805125968804	3
7	3012	374566.177425068883	2
7	3020	375422.028129351694	1
7	3029	376848.702259352347	0
7	3043	377722.309540910174	1
7	3052	378455.04792508302	2
7	3060	379721.009069559364	3
7	3069	380020.130424677917	4
7	3071	380435.590908408628	3
7	3085	381285.125791330441	4
7	3087	381363.573916128643	3
7	3096	382223.406448450607	2
7	3104	382551.819746742873	1
7	3118	383108.050176120597	2
7	3120	383793.242738794899	1
7	3135	384512.394363138369	2
7	3143	385542.898933353148	3
7	3146	386006.701586051965	2
7	3154	386680.758679663539	1
7	3168	387908.156322865185	2
7	3171	388400.974804784878	1
7	3185	389039.489554664952	2
7	3193	389987.868633504288	3
7	3196	390335.301753915269	2
7	3216	391341.251168262888	3
7	3221	391609.42429376197	4
7	3226	391905.474512686968	5
7	3229	392201.146526004571	4
7	3237	392841.846253882442	3
7	3251	393490.270728973669	4
7	3253	393516.078331521092	3
7	3268	394276.35394322585	4
7	3270	394377.567636662261	3
7	3278	395372.024968145777	2
7	3293	396009.149974621	3
7	3295	396317.898238058987	2
7	3309	396844.450552857593	3
7	3311	397153.246094614295	2
7	3320	398138.890979853196	1
7	3334	400188.01241323124	0
7	3338	400280.187676920776	1
7	3352	402870.480169294179	2
7	3354	403097.763755327946	1
7	3364	406328.23609476686	0
7	3379	408158.459522074702	1
7	3387	409536.291972766194	2
7	3390	410776.24861144896	1
7	3399	412211.806261889295	0
7	3413	413684.747874155804	1
7	3422	415803.727733489812	2
7	3425	416066.745738241772	1
7	3439	416678.60211091537	2
7	3448	418394.144608864072	3
7	3455	418534.179013714304	2
7	3459	418697.082454430928	3
7	3466	419377.685292311093	2
7	3481	420414.747868659906	3
7	3483	421050.150143327948	2
7	3488	421303.163805720576	1
7	3500	422656.098972582062	0
7	3515	425362.444019913636	1
7	3524	426071.477117934562	2
7	3534	427951.152710014737	1
7	3539	428073.305944344681	2
7	3544	428375.026659215377	3
7	3548	428568.218282282872	2
7	3560	428967.633177341429	3
7	3573	429918.800738900279	4
7	3576	430797.986095208929	3
7	3581	430957.230026682063	2
7	3598	431669.247734040927	3
7	3605	431862.386252821792	2
7	3610	432036.870380608417	3
7	3617	432834.054894481913	2
7	3626	434544.587862219207	1
7	3631	434602.835190093812	0
7	3648	435431.048265644124	1
7	3657	437631.060718564199	2
7	3659	437697.451894038887	1
7	3674	439244.1494546431	2
7	3677	440419.931670573487	1
7	3691	441457.378334346982	2
7	3693	441611.510188307358	1
7	3707	443548.77580811706	0
7	3711	443802.667982394366	1
7	3725	444444.075373747279	2
7	3733	445601.327063731794	3
7	3736	446572.735608630804	2
7	3741	446884.282511965264	1
7	3758	447657.609476164596	2
7	3761	448532.619374425811	1
7	3770	450158.210360671894	0
7	3784	451704.694517177733	1
7	3796	453618.47485463243	2
7	3801	453922.992995952478	3
7	3804	454080.6721737018	2
7	3818	454706.047062959578	3
7	3821	456124.825771129592	2
7	3829	457141.086259803984	1
7	3837	457510.777973912479	0
7	3852	458590.449282152998	1
7	3860	459547.742617953745	2
7	3863	461807.542694373418	1
7	3868	461928.867540034993	0
7	3888	467915.277068070635	1
7	3892	470588.485581218941	0
7	3906	471193.223921746521	1
7	3915	473533.03954935745	2
7	3918	473999.533949072604	1
7	3933	476326.747085006292	2
7	3935	476403.919940379485	1
7	3944	479340.198901735526	0
7	3962	480184.450462026232	1
7	3967	480490.033308789976	2
7	3970	482886.235015430428	1
7	3975	483185.858653315064	0
7	3992	483934.333798264629	1
7	4004	484698.060053296883	2
7	4009	485007.159878879561	3
7	4012	486416.570454767366	2
7	4020	487193.615277331304	1
7	4025	487348.091975724013	0
7	4043	488057.753694355421	1
7	4054	489151.941090616905	2
7	4059	489447.11128423866	3
7	4067	490974.844491126143	2
7	4071	491060.179210776661	3
7	4078	491890.659536840781	2
7	4083	491921.334321026774	1
7	4101	493165.673011982206	2
7	4111	493557.143905847119	1
7	4115	493787.683864117879	2
7	4121	494061.706514871656	3
7	4134	494866.443002810697	4
7	4137	496108.615536209964	3
7	4145	496403.772021325713	2
7	4150	496509.50537584148	1
7	4167	497344.248910580295	2
7	4169	497848.345732365452	1
7	4184	498533.666680635896	2
7	4186	499568.285749979505	1
7	4195	501142.686112041536	0
7	4211	505349.176334241868	1
7	4215	508198.154340154868	0
7	4233	511253.556539253872	1
7	4238	511492.892295328418	2
7	4247	512387.489848225686	3
7	4255	513534.963356221129	4
7	4257	513843.195978506122	3
7	4263	514009.631821157951	2
7	4275	514440.010859488876	3
7	4282	515041.770961604489	2
7	4290	515785.437477622404	1
7	4299	517042.392215538173	0
7	4314	518458.326207610741	1
7	4317	521120.082427220069	0
7	4333	525303.564722161956	1
7	4342	526693.633475645398	2
7	4350	527524.320086829733	3
7	4358	528307.763515579819	2
7	4362	528347.484588545805	3
7	4369	529222.142469618522	2
7	4383	529813.874684986198	3
7	4385	529976.247720005227	2
7	4394	531023.101387015546	1
7	4403	532778.991981669722	0
7	4418	534248.698591924397	1
7	4426	535254.796073489437	2
7	4429	536867.114923912131	1
7	4443	537476.575705625161	2
7	4445	537881.056872152213	1
7	4460	539885.573286097454	2
7	4463	540476.444754961817	1
7	4472	542228.278439630473	0
7	4486	542861.770453678437	1
7	4489	545789.664212955549	0
7	4505	548491.402386513705	1
7	4514	550075.113312535685	2
7	4516	551745.104226025887	1
7	4534	552826.787477652869	2
7	4538	553047.563589413759	1
7	4542	553171.003629001787	2
7	4550	555463.219570085624	1
7	4559	556302.439861767625	0
7	4576	562320.609044391149	1
7	4584	562783.321642407545	2
7	4587	565259.699147691343	1
7	4592	565467.219808103784	0
7	4613	566505.54861603843	1
7	4618	566801.615862632957	2
7	4627	568714.499890728542	3
7	4629	568890.901009056252	2
7	4637	569832.15418070437	1
7	4652	570371.932587630805	2
7	4654	571767.292078685971	1
7	4663	572977.575317703081	0
7	4678	575389.306020149908	1
7	4690	576353.183407376328	2
7	4695	576689.599550069718	3
7	4698	578000.820916229542	2
7	4706	578552.145030922819	1
7	4714	579639.86762506175	0
7	4730	582739.528767721532	1
7	4733	585284.586371655949	0
7	4749	589064.500469780079	1
7	4752	591574.959469629294	0
7	4767	592545.426741300659	1
7	4775	593068.389396546973	2
7	4778	594873.938896862599	1
7	4792	595860.316807811724	2
7	4794	595951.897028520651	1
7	4804	598300.939545927122	0
7	4818	599341.02997816015	1
7	4821	601508.209285223227	0
7	4837	605081.740037375326	1
7	4846	606398.083506701012	2
7	4857	606933.704576298292	3
7	4862	607262.819154258495	4
7	4865	608009.480209276757	3
7	4873	608988.782717612286	2
7	4881	609452.924317195114	1
7	4896	610500.077644683045	2
7	4898	610543.290209802121	1
7	4913	612066.337426449104	2
7	4915	613281.275913289026	1
7	4924	614324.159599338416	0
7	4941	615472.133944382276	1
7	4946	615745.249523073351	2
7	4958	617637.172305434668	3
7	4962	617907.443587667678	2
7	4966	617925.236239233127	3
7	4970	617959.362549052206	2
7	4983	620188.475267586219	1
7	4988	620412.596192988071	0
7	5006	623899.632500316105	1
7	5015	625447.40797899516	2
7	5030	626391.506330100486	3
7	5034	626565.196785194022	2
7	5038	626706.884947987928	3
7	5043	626983.649143442302	4
7	5056	628636.122702472126	3
7	5060	628899.665488817544	4
7	5064	629047.562368307682	3
7	5072	629268.396744518071	2
7	5075	629334.571354000436	1
7	5092	631518.415579282063	0
7	5107	632147.169629262724	1
7	5115	632872.05125424324	2
7	5118	635241.584403678018	1
7	5123	635511.062408866387	0
7	5146	640170.49401202442	1
7	5151	640498.837602057507	2
7	5159	641285.125379982267	3
7	5168	642686.205945282392	4
7	5170	642888.309267271105	3
7	5175	643107.791245330588	2
7	5195	643907.227337318965	3
7	5200	644039.103022040561	2
7	5204	644208.313502985045	3
7	5216	645576.266539817112	2
7	5223	645823.511959306138	3
7	5229	646158.50209927007	4
7	5233	646426.546284368096	3
7	5241	646509.444012729645	2
7	5253	646982.85183844986	3
7	5266	647646.513503393442	4
7	5269	648490.684903970839	3
7	5274	648807.066929531431	2
7	5285	649690.948654431723	1
7	5299	650571.161797548633	0
7	5303	650902.91968528372	1
7	5311	653477.396256055587	0
7	5329	660078.372134665174	1
7	5338	662387.832529043341	2
7	5340	662797.327652017886	1
7	5357	663391.205919693622	2
7	5368	663730.539120564	3
7	5374	664012.516326677046	4
7	5379	664300.223695771008	5
7	5387	664856.730456909193	6
7	5389	664925.057771795814	5
7	5403	665526.533938403118	6
7	5411	666020.966838728656	5
7	5417	666213.045035495877	4
7	5421	666213.579516218001	5
7	5425	666457.669255271122	4
7	5429	666484.957049306602	5
7	5433	666742.198074537769	4
7	5454	667509.019959719755	3
7	5458	667676.414147754654	4
7	5462	667737.42166587645	3
7	5479	668946.491086252346	2
7	5484	669018.808768592986	1
7	5496	669504.015363434689	2
7	5504	670591.009043105311	1
7	5518	671687.718454038628	2
7	5520	671785.631644833864	1
7	5530	674071.076575333202	0
7	5544	674941.692786687729	1
7	5547	677369.115843297697	0
7	5562	679610.106043152883	1
7	5571	681823.407463646734	2
7	5574	682173.229412333451	1
7	5583	684411.161668841477	0
7	5597	684978.519628585372	1
7	5606	687009.522816410988	2
7	5608	687567.606895081368	1
7	5617	689627.163064287742	0
7	5632	690544.294554559411	1
7	5635	693404.358243835545	0
7	5650	695939.459672826803	1
7	5653	697880.433526015746	0
7	5668	698434.217165872263	1
7	5676	699880.018208695264	2
7	5679	700807.318974198492	1
7	5693	701597.076788766932	2
7	5705	702403.962291897781	3
7	5710	702691.534549082343	4
7	5712	703066.280804165977	3
7	5726	703877.657331627992	4
7	5734	704090.438990489324	3
7	5738	704377.809244318451	4
7	5745	704879.120429392563	3
7	5758	705570.46022862406	2
7	5762	705662.327469338099	3
7	5775	706313.978375090265	2
7	5779	706444.143036723838	3
7	5791	707391.45664034308	2
7	5795	707500.240762285398	3
7	5802	707891.964386062262	2
7	5820	708575.976376590838	3
7	5825	708853.034010318173	4
7	5827	708957.428209163835	3
7	5836	710000.373327548227	2
7	5850	711193.263895890045	3
7	5852	711281.295106190857	2
7	5860	711885.152350011541	1
7	5875	712650.008375300786	2
7	5883	713281.018673435639	3
7	5885	713867.989437657441	2
7	5894	714757.694210213825	1
7	5903	716223.626257028487	0
7	5920	717046.428552711189	1
7	5925	717341.452068692305	2
7	5929	720276.183313729445	1
7	5937	720738.096055976088	0
7	5951	721580.906025967427	1
7	5961	724497.34147785462	2
7	5963	724643.650550561503	1
7	5978	726162.302416649655	2
7	5985	726946.537712559988	1
7	5989	727049.688179529242	2
7	6005	728685.322864429401	1
7	6009	728686.114147301198	2
7	6017	729009.015506975613	3
7	6022	729250.181085934057	4
7	6026	729344.854861918352	3
7	6038	731416.473324624851	2
7	6046	731710.621627220371	1
7	6051	731951.495826469817	0
7	6069	733155.833208840475	1
7	6078	734060.809058918887	2
7	6081	736000.789350091159	1
7	6089	736832.657495210977	0
7	6107	738185.299702216765	1
7	6112	738486.000674450184	2
7	6123	739105.340283056191	3
7	6131	739380.182215567962	4
7	6136	739722.356020455039	5
7	6139	740968.993780972445	4
7	6147	741361.30961526224	3
7	6155	741718.610704517046	2
7	6160	741915.747844615968	1
7	6173	742310.735986377939	2
7	6180	742682.951830846111	1
7	6195	744794.215250273502	2
7	6197	745702.002102801112	1
7	6212	746329.652268297127	2
7	6214	747440.938157248597	1
7	6229	748738.7070863804	2
7	6231	748763.807861968205	1
7	6245	749829.595715053431	2
7	6248	751093.161657081223	1
7	6257	753063.738981314261	0
7	6275	755217.181671013436	1
7	6280	755520.959878345884	2
7	6289	756760.741976555464	3
7	6291	757840.15890270719	2
7	6300	758504.198245236124	1
7	6308	759447.854048636346	0
7	6327	762636.817847352449	1
7	6332	762957.41239814679	2
7	6340	763288.660094722007	3
7	6343	765525.650584874024	2
7	6348	765643.370907520534	1
7	6360	766840.39300613424	0
7	6375	768465.657670248505	1
7	6378	770665.236071010777	0
7	6395	771732.102755184054	1
7	6400	771981.478396939539	2
7	6412	773728.836792109074	3
7	6418	773997.527859243193	4
7	6420	774275.511387664438	3
7	6425	774585.451395834737	2
7	6437	776846.251325358742	1
7	6442	777049.300435369866	0
7	6460	778040.964232528384	1
7	6468	779646.934687521634	2
7	6476	780398.968197174105	1
7	6480	780684.323665419014	2
7	6493	781783.515918028378	3
7	6502	782218.925862802672	4
7	6504	782380.271029534467	3
7	6513	784099.458189313033	2
7	6521	784580.929002475031	1
7	6534	784972.834676842072	0
7	6538	785151.459647915787	1
7	6552	787439.973038579339	2
7	6554	787448.70363148373	1
7	6569	789970.312814973044	2
7	6572	790025.809777684355	1
7	6586	790559.848359462966	2
7	6598	792749.79792880302	3
7	6602	792891.505898476838	2
7	6609	793075.51177462184	3
7	6613	793088.843615048979	2
7	6617	793355.036673539328	3
7	6630	793967.134918494102	4
7	6644	795193.045493363598	5
7	6646	795193.117079396484	4
7	6654	795983.671314406463	3
7	6663	796575.042203751013	2
7	6668	796768.888401720577	1
7	6685	797437.016728228462	2
7	6688	798202.910986856717	1
7	6696	799624.109271862637	0
7	6711	800265.960098367496	1
7	6714	802883.469583890156	0
7	6728	803620.239447372907	1
7	6737	804191.883455204006	2
7	6745	804946.512117609396	3
7	6753	805613.442127265319	4
7	6756	806259.764052675255	3
7	6769	807067.644353527126	2
7	6773	807235.186999527757	3
7	6780	807651.462186671781	2
7	6785	807921.330677675736	1
7	6803	808634.613188727636	2
7	6806	810005.530955258831	1
7	6814	811098.534099657212	0
7	6828	811936.406596988395	1
7	6832	814455.581150545708	0
7	6847	816935.872805043162	1
7	6858	817783.534973146766	2
7	6864	818092.089548366287	3
7	6866	819506.896891390147	2
7	6875	820299.245235911547	1
7	6883	820973.457366909055	0
7	6899	825265.803617513944	1
7	6907	825825.553344426348	2
7	6918	827567.00779491387	1
7	6922	827629.099322398387	2
7	6930	827911.951169868607	3
7	6936	828179.67947712234	4
7	6943	828516.384954056451	3
7	6960	829204.456268612573	4
7	6965	829497.666718563696	5
7	6973	830204.77112863527	4
7	6977	830271.505989836387	5
7	6981	830449.169266772023	4
7	6992	830678.648593028704	3
7	7001	831101.990359017262	4
7	7005	831155.624283422999	3
7	7017	832609.907499991169	2
7	7022	832712.872660930405	1
7	7039	833630.062752506694	2
7	7042	834005.903547406653	1
7	7056	834784.113488866951	2
7	7059	836704.393503230475	1
7	7067	837519.603456515712	0
7	7082	838114.438619134034	1
7	7096	839013.633076019622	2
7	7101	839269.018677086616	3
7	7106	839555.363269707954	4
7	7109	840374.034143325549	3
7	7123	841223.880885248274	4
7	7125	841871.316173590794	3
7	7130	841884.992226475951	2
7	7139	842294.570392653866	1
7	7156	843545.726052463818	2
7	7158	843830.938851922146	1
7	7173	844886.586538190564	2
7	7184	845339.393384823295	3
7	7189	845646.991323137071	4
7	7197	846080.386061226709	3
7	7201	846309.675274030398	4
7	7213	847622.202999189124	3
7	7216	847745.368886945074	2
7	7223	847802.160971048065	3
7	7227	847923.848304431535	2
7	7232	848049.257125213512	3
7	7249	849238.141826919932	2
7	7258	850636.052284036037	1
7	7263	850714.487883082467	0
7	7280	851868.860585411723	1
7	7290	854409.126498273451	2
7	7292	854419.891457751528	1
7	7306	855628.531936152965	2
7	7314	856984.284768127576	1
7	7318	857105.483860243329	2
7	7334	857696.310457943494	3
7	7340	858039.980490207244	4
7	7348	858563.449636140467	5
7	7350	858769.914540426604	4
7	7364	859371.215904430398	5
7	7367	860008.49535170149	4
7	7375	860414.22229472739	3
7	7380	860526.185388607243	2
7	7388	860972.975162030045	1
7	7399	861500.230821232586	0
7	7416	867758.507821848219	1
7	7425	868629.83099330475	2
7	7428	870608.531527384399	1
7	7441	871624.465391086074	0
7	7445	871747.151840276967	1
7	7460	874565.369087319831	2
7	7462	874853.260367679191	1
7	7477	876228.99287313955	2
7	7479	877272.285235531645	1
7	7488	878643.005200224919	0
7	7503	880167.104229344114	1
7	7511	881175.086030704734	2
7	7523	882468.323894924894	3
7	7528	882739.326639674356	4
7	7530	883066.701466147663	3
7	7539	884132.116158522909	2
7	7553	884729.666390645026	3
7	7555	884833.621312784211	2
7	7563	885176.283008094829	1
7	7578	887261.263727601928	2
7	7580	887504.647308218934	1
7	7590	890067.989746385279	0
7	7604	891371.827679642546	1
7	7612	891932.01813105652	2
7	7621	892797.165946668218	3
7	7623	893494.202571182097	2
7	7638	894269.518007739772	3
7	7640	894576.68407669845	2
7	7648	894982.454530356556	1
7	7663	896472.22101201694	2
7	7665	897090.101861225257	1
7	7679	897640.449547990516	2
7	7682	899249.677416764867	1
7	7691	900668.640331883802	0
7	7706	902318.286489193845	1
7	7715	904202.326342335603	2
7	7723	904931.823579066393	3
7	7730	905471.386281175347	2
7	7734	905546.674781492707	3
7	7751	906570.447212150582	4
7	7756	906855.066334629293	5
7	7758	906857.8138284915	4
7	7766	907857.267479226511	3
7	7775	908344.73475217455	2
7	7783	908942.087640665028	1
7	7788	909203.514855040856	0
7	7807	912549.701196292988	1
7	7815	913280.993047969606	2
7	7818	915391.359779472798	1
7	7826	915848.426447091725	0
7	7847	922682.603136034027	1
7	7852	923027.277418533819	2
7	7864	925226.23835698625	3
7	7868	925265.754659477045	2
7	7872	925486.772418417496	3
7	7876	925679.783233449822	2
7	7897	926650.468274360964	3
7	7902	926925.692930148057	4
7	7904	927944.405758782087	3
7	7910	928067.469923834993	2
7	7927	928885.933910327153	3
7	7934	929428.896353036529	2
7	7938	929461.664945951227	3
7	7942	929489.183530999224	2
7	7960	930494.219737026189	3
7	7962	931516.589688752128	2
7	7971	932511.291434579734	1
7	7979	933275.66514067574	0
7	7994	935340.710961949321	1
7	8002	935932.429869541437	2
7	8014	936799.734565600783	3
7	8019	937150.164825543298	4
7	8021	937791.705452729396	3
7	8030	938744.887866998157	2
7	8038	939532.717253007316	1
7	8043	939541.287282066085	0
7	8063	945328.163909994132	1
7	8072	946492.648801209795	2
7	8075	948035.788156549793	1
7	8088	949128.329159955465	0
7	8092	949303.298787569997	1
7	8109	950248.560907093015	2
