file 92857 1484074064                                           
version 2
run ResponseMeasurement-45-20170110-19:47:44-22926
attr configname ResponseMeasurement
attr datetime 20170110-19:47:44
attr experiment ResponseMeasurement
attr inifile responseStudy.ini
attr iterationvars ""
attr iterationvars2 $repetition=45
attr measurement ""
attr network controltower.SimNetwork
attr processid 22926
attr repetition 45
attr replication #45
attr resultdir results
attr runnumber 45
attr seedset 45
param SimNetwork.a.parkingLot.parkingDelay "truncnormal(60min, 6min)"
param SimNetwork.a.runway.landingTime "truncnormal(5min, 0.5min)"
param SimNetwork.a.runway.takeoffTime "truncnormal(5min, 0.5min)"
param SimNetwork.a.runway.throughputCheckInterval 50min
param SimNetwork.wg.interArrivalTime exponential(50min)

vector 5  SimNetwork.a.runway  landedThroughput:vector  ETV
attr source  landedThroughputSignal
vector 6  SimNetwork.a.runway  tookoffThroughput:vector  ETV
attr source  tookoffThroughputSignal
vector 2  SimNetwork.a.landingQueue  queueLength:vector  ETV
attr source  queueLengthSignal
vector 1  SimNetwork.a.landingQueue  queueTime:vector  ETV
attr source  queueTimeSignal
vector 7  SimNetwork.a.parkingLot  parkingOccupancy:vector  ETV
attr source  parkingOccupancy
vector 4  SimNetwork.a.takeoffQueue  queueLength:vector  ETV
attr source  queueLengthSignal
vector 3  SimNetwork.a.takeoffQueue  queueTime:vector  ETV
attr source  queueTimeSignal
vector 0  SimNetwork.wg  responseTime:vector  ETV
attr source  responseTimeSignal
0	1473 12573 878 5823 143734.340974856033 1001797.452456490294 294 3882.8384958471 20303.51129062 2123276.7059409 17848039789.458
1	14046 9328 843 5825 141381.495720796357 1001797.452456490294 294 0 576.02079969352 9963.4219383801 2394307.7764939
2	23374 16970 841 5825 141381.495720796357 1001797.452456490294 588 0 2 298 302
3	40344 9373 875 5817 143364.11656071812 1001466.088844862609 294 0 562.44951220212 12083.373368837 3310473.3706868
4	49717 16963 873 5817 143364.11656071812 1001466.088844862609 588 0 2 306 318
5	66680 4600 839 5827 141000 1002000 288 0 6 294 614
6	71280 4600 839 5827 141000 1002000 288 0 5 294 596
7	75880 16977 849 5829 141707.633134323901 1002106.531628266638 588 0 8 1056 2914
