version 2
run ResponseMeasurement-123-20170110-19:48:12-23004
attr configname ResponseMeasurement
attr datetime 20170110-19:48:12
attr experiment ResponseMeasurement
attr inifile responseStudy.ini
attr iterationvars ""
attr iterationvars2 $repetition=123
attr measurement ""
attr network controltower.SimNetwork
attr processid 23004
attr repetition 123
attr replication #123
attr resultdir results
attr runnumber 123
attr seedset 123
param SimNetwork.a.parkingLot.parkingDelay "truncnormal(60min, 6min)"
param SimNetwork.a.runway.landingTime "truncnormal(5min, 0.5min)"
param SimNetwork.a.runway.takeoffTime "truncnormal(5min, 0.5min)"
param SimNetwork.a.runway.throughputCheckInterval 50min
param SimNetwork.wg.interArrivalTime exponential(50min)

statistic SimNetwork.wg 	responseTime:stats
field count 307
field mean 7081.6707314354
field stddev 3036.1393356363
field sum 2174072.9145507
field sqrsum 18216819998.992
field min 3717.9464997759
field max 23345.70346462
attr source  responseTimeSignal
scalar SimNetwork.a.landingQueue 	queueLength:timeavg 	0.016502738919589
attr source  queueLengthSignal
statistic SimNetwork.a.landingQueue 	queueLength:stats
field count 616
field mean 0.52597402597403
field stddev 0.52511619400894
field sum 324
field sqrsum 340
field min 0
field max 2
attr source  queueLengthSignal
statistic SimNetwork.a.landingQueue 	queueTime:stats
field count 308
field mean 46.192090222137
field stddev 92.356140911033
field sum 14227.163788418
field sqrsum 3275787.0598611
field min 0
field max 488.31898327958
attr source  queueTimeSignal
scalar SimNetwork.a.takeoffQueue 	queueLength:timeavg 	0.01773753172339
attr source  queueLengthSignal
statistic SimNetwork.a.takeoffQueue 	queueLength:stats
field count 614
field mean 0.52605863192182
field stddev 0.52519407100364
field sum 323
field sqrsum 339
field min 0
field max 2
attr source  queueLengthSignal
statistic SimNetwork.a.takeoffQueue 	queueTime:stats
field count 307
field mean 49.739387342908
field stddev 130.84255253381
field sum 15269.991914273
field sqrsum 5998170.7499376
field min 0
field max 842.46643050172
attr source  queueTimeSignal
scalar SimNetwork.a.parkingLot 	parkingOccupancy:timeavg 	1.2715918135878
attr source  parkingOccupancy
statistic SimNetwork.a.parkingLot 	parkingOccupancy:stats
field count 615
field mean 1.8260162601626
field stddev 1.2082666804438
field sum 1123
field sqrsum 2947
field min 0
field max 7
attr source  parkingOccupancy
