version 2
run ResponseMeasurement-94-20170110-19:48:02-22975
attr configname ResponseMeasurement
attr datetime 20170110-19:48:02
attr experiment ResponseMeasurement
attr inifile responseStudy.ini
attr iterationvars ""
attr iterationvars2 $repetition=94
attr measurement ""
attr network controltower.SimNetwork
attr processid 22975
attr repetition 94
attr replication #94
attr resultdir results
attr runnumber 94
attr seedset 94
param SimNetwork.a.parkingLot.parkingDelay "truncnormal(60min, 6min)"
param SimNetwork.a.runway.landingTime "truncnormal(5min, 0.5min)"
param SimNetwork.a.runway.takeoffTime "truncnormal(5min, 0.5min)"
param SimNetwork.a.runway.throughputCheckInterval 50min
param SimNetwork.wg.interArrivalTime exponential(50min)

statistic SimNetwork.wg 	responseTime:stats
field count 273
field mean 7419.7864885734
field stddev 3074.3733748056
field sum 2025601.7113805
field sqrsum 17600414097.511
field min 3732.731701035
field max 22915.701053665
attr source  responseTimeSignal
scalar SimNetwork.a.landingQueue 	queueLength:timeavg 	0.013348955620183
attr source  queueLengthSignal
statistic SimNetwork.a.landingQueue 	queueLength:stats
field count 544
field mean 0.54044117647059
field stddev 0.54470546236688
field sum 294
field sqrsum 320
field min 0
field max 3
attr source  queueLengthSignal
statistic SimNetwork.a.landingQueue 	queueTime:stats
field count 272
field mean 42.279394405138
field stddev 108.07244696913
field sum 11499.995278198
field sqrsum 3651399.0141696
field min 0
field max 596.9520933275
attr source  queueTimeSignal
scalar SimNetwork.a.takeoffQueue 	queueLength:timeavg 	0.015910330385105
attr source  queueLengthSignal
statistic SimNetwork.a.takeoffQueue 	queueLength:stats
field count 546
field mean 0.50732600732601
field stddev 0.50768533194933
field sum 277
field sqrsum 281
field min 0
field max 2
attr source  queueLengthSignal
statistic SimNetwork.a.takeoffQueue 	queueTime:stats
field count 273
field mean 50.180354817064
field stddev 136.44642552572
field sum 13699.236865058
field sqrsum 5751427.1211505
field min 0
field max 990.49902675693
attr source  queueTimeSignal
scalar SimNetwork.a.parkingLot 	parkingOccupancy:timeavg 	1.1321330154131
attr source  parkingOccupancy
statistic SimNetwork.a.parkingLot 	parkingOccupancy:stats
field count 545
field mean 1.6183486238532
field stddev 1.1218227304401
field sum 882
field sqrsum 2112
field min 0
field max 5
attr source  parkingOccupancy
