version 2
run ResponseMeasurement-118-20170110-19:48:10-22999
attr configname ResponseMeasurement
attr datetime 20170110-19:48:10
attr experiment ResponseMeasurement
attr inifile responseStudy.ini
attr iterationvars ""
attr iterationvars2 $repetition=118
attr measurement ""
attr network controltower.SimNetwork
attr processid 22999
attr repetition 118
attr replication #118
attr resultdir results
attr runnumber 118
attr seedset 118
param SimNetwork.a.parkingLot.parkingDelay "truncnormal(60min, 6min)"
param SimNetwork.a.runway.landingTime "truncnormal(5min, 0.5min)"
param SimNetwork.a.runway.takeoffTime "truncnormal(5min, 0.5min)"
param SimNetwork.a.runway.throughputCheckInterval 50min
param SimNetwork.wg.interArrivalTime exponential(50min)

vector 5  SimNetwork.a.runway  landedThroughput:vector  ETV
attr source  landedThroughputSignal
vector 6  SimNetwork.a.runway  tookoffThroughput:vector  ETV
attr source  tookoffThroughputSignal
vector 2  SimNetwork.a.landingQueue  queueLength:vector  ETV
attr source  queueLengthSignal
vector 1  SimNetwork.a.landingQueue  queueTime:vector  ETV
attr source  queueTimeSignal
vector 7  SimNetwork.a.parkingLot  parkingOccupancy:vector  ETV
attr source  parkingOccupancy
vector 4  SimNetwork.a.takeoffQueue  queueLength:vector  ETV
attr source  queueLengthSignal
vector 3  SimNetwork.a.takeoffQueue  queueTime:vector  ETV
attr source  queueTimeSignal
vector 0  SimNetwork.wg  responseTime:vector  ETV
attr source  responseTimeSignal
0	808	147143.491984694516	11633.650751534
0	825	150849.191410814297	8078.1203296252
0	834	153952.632017922053	7406.505052837
0	859	158294.721122313557	8016.3664492115
0	876	160711.831926286499	6609.7168527986
0	904	163850.20749329019	7693.8117134745
0	926	166916.965179148654	7171.2456541107
0	934	167269.316944177833	4065.2572766352
0	942	167849.655730017392	5284.600860577
0	959	168951.646825950665	5247.9170772953
0	976	172117.562677835254	7719.5316799099
0	1000	173666.961308242464	5487.5428059572
0	1017	176435.51664383745	6566.9656790833
0	1025	176908.260845264912	4450.9836857557
0	1037	178100.412806399488	5486.0075203472
0	1075	181714.175872882864	7884.0842262689
0	1083	182755.508489912017	4839.4825198153
0	1100	183774.348365876864	5603.5933548801
0	1108	184563.151809094729	5863.3800442802
0	1125	187706.163528706177	7079.1310974808
0	1137	189842.528504974995	6969.9112235846
0	1151	193976.476363680138	8092.1617249909
0	1189	202905.941571714696	13328.06853943
0	1203	204092.95909001187	5587.7639889253
0	1219	205099.60530651367	5005.4450559716
0	1239	207287.651504294588	6748.2146186582
0	1252	207969.988841826371	5146.9904799744
0	1260	209577.762491691315	5203.2131305051
0	1288	211771.460671305654	6556.1483189223
0	1302	213559.885153607227	6395.3287582498
0	1310	215014.464236670327	5146.7646606789
0	1319	216185.637176985607	5641.0344859039
0	1352	220778.055272359939	9338.6313862018
0	1377	222943.546977283035	5370.5638417488
0	1385	223785.834725263434	5111.2071950702
0	1393	224796.34797390954	5253.922235841
0	1402	225487.806472611961	4555.9264209718
0	1429	235013.348104586352	13658.844283746
0	1445	236978.758097316975	6694.5354125605
0	1455	240187.95119319663	7252.9532640894
0	1473	246178.498384408464	9794.4412934749
0	1523	253697.736669652266	11262.452514615
0	1531	254505.399880612159	4700.2854414689
0	1543	256107.819471460633	5740.3951703356
0	1548	256408.72217722232	4719.0074673488
0	1556	257364.873269664095	4979.9160833228
0	1590	262164.564319257218	3690.3322281549
0	1598	263018.648491563438	9971.5915303306
0	1606	263366.822940405671	4462.3775195082
0	1633	271782.15556593065	12807.194510894
0	1642	273426.525896658322	5782.3151863352
0	1660	279721.047866146567	10715.955884992
0	1677	284048.520941615624	8619.8570558077
0	1716	294675.216348938379	14516.243060747
0	1737	296456.794117341127	5862.8429486803
0	1746	298456.513993195302	6289.7886866824
0	1754	298954.055091280402	4865.6855315568
0	1762	299767.682307569885	5115.4119187109
0	1796	304833.505839875138	9399.7851957373
0	1805	306276.449040755828	5777.8182654328
0	1821	307959.595611223632	5505.0241659561
0	1854	311243.845237307842	7469.6696279552
0	1863	313778.29212619308	6597.6994009013
0	1871	314253.712483272404	4824.5312221825
0	1879	314877.05328159905	5311.2387631307
0	1908	320700.788301637263	10057.258510096
0	1913	320957.572231180427	5139.1374960423
0	1949	332724.157052214792	15803.817594976
0	1961	333573.673700491598	5312.937106634
0	1966	333900.159725366799	4441.0483889705
0	1989	356959.906905783455	27375.462687345
0	2015	361907.517394748349	9203.3290534364
0	2024	363097.984651872043	5665.9825005338
0	2068	368739.949888692596	9698.1582496477
0	2077	369035.274522202184	4320.4504756785
0	2082	369357.364582309032	4441.4217667021
0	2090	369988.282923153574	4817.5068790488
0	2109	379823.692597976488	14649.419171623
0	2128	389886.826778567577	14586.234753242
0	2162	394600.891167044809	8862.2882096637
0	2170	395238.692463264975	4574.408545433
0	2179	397653.002368142093	6405.6027815847
0	2197	404149.469115354504	10654.490416122
0	2224	413051.700179869756	13472.307423074
0	2241	415944.356487931218	6849.0219544781
0	2253	417910.470789089159	5580.901275243
0	2291	421746.857578000662	7417.5334984282
0	2299	422473.907142226526	4802.8788495716
0	2311	423431.577050625549	4283.158273208
0	2316	423716.330381927835	5254.1132040586
0	2341	428185.842381587001	8989.9101208329
0	2350	429637.049514523561	5139.7540511734
0	2384	435807.21986110671	10611.402007644
0	2400	436844.756856396301	5064.6581431858
0	2412	439656.960462820829	7444.3843999744
0	2417	439936.559261370016	5208.9898623889
0	2436	447109.157858550881	11234.151215229
0	2469	451687.034946759953	8912.649442046
0	2477	452445.104867901464	4943.9529858355
0	2486	455538.960670975019	6788.6006102571
0	2504	461476.836249281253	11163.576100902
0	2549	465845.311270393399	8904.1882444277
0	2562	466416.484101440325	4737.2181183309
0	2579	468522.771786979482	6095.0079207756
0	2587	469233.917071705688	4276.7907935021
0	2595	469893.731180848821	4756.4526827173
0	2603	470907.079779979333	5307.3241215807
0	2640	484566.602111381285	17607.102425522
0	2648	485274.969954349861	4490.4533494949
0	2660	486881.48029540403	5706.2223547892
0	2682	490105.829255074763	7718.7399220043
0	2698	491322.770300045461	4514.4835151515
0	2707	494642.855032892394	7235.9497455714
0	2768	499650.670712660186	9101.9191577818
0	2781	500248.522585261656	4758.802448944
0	2789	500593.599441816093	4812.9449138461
0	2798	501002.806056773976	4582.7265420786
0	2806	501923.292815997774	5340.1707240323
0	2817	503218.312588252124	5565.7649873131
0	2822	503505.416094652676	4527.3857096747
0	2848	509581.134086255577	10107.598366167
0	2868	512250.17948425129	7134.2805788677
0	2909	514694.876896838225	6417.0973158777
0	2931	516417.217149646532	4411.8113259249
0	2939	516770.680494951338	5887.2045420285
0	2955	517667.140463097702	4091.0989215657
0	2963	518036.733728851207	5245.3579213342
0	2975	519049.734054963308	5252.4800792099
0	2980	519334.301484074287	4934.2418431874
0	2988	521673.653916778102	6006.3568508153
0	3033	527805.343686049706	10809.651086813
0	3066	530186.073658462356	6576.6304344266
0	3071	530493.443441324976	5125.7806643913
0	3080	531387.962826490066	5889.9225620897
0	3088	532035.813904220388	4852.6480608304
0	3096	533162.172837039403	5431.6626800585
0	3104	533593.674554171963	4922.3183177056
0	3142	540037.399433133816	10790.557001358
0	3163	542293.661432722123	6425.9880281752
0	3172	543571.420545641549	5080.6510810161
0	3188	544424.167529367913	5523.3545301599
0	3196	544753.98388339054	4730.5449433177
0	3205	548158.934124051662	7557.1203551566
0	3231	552169.229347442876	8354.8477618274
0	3239	553861.324813906381	5132.8115074288
0	3266	562545.677643758686	12606.069654407
0	3274	563036.552833903378	5506.3718987671
0	3319	568864.858792162158	10097.620659104
0	3324	569161.478890217945	4544.2527287459
0	3332	569872.887984589038	4373.8858673838
0	3341	570160.672112203796	5118.4663780717
0	3368	580631.925291845783	14821.882415669
0	3393	582276.988146007771	6233.035262649
0	3409	584983.50095843264	3880.2842564797
0	3418	585416.421266774649	7577.7746954492
0	3437	587030.042734317048	5802.1288354852
0	3459	590241.298555970416	7597.7132798449
0	3468	591270.354591555893	5425.9455036331
0	3476	593213.405235881952	6362.153767576
0	3510	599029.512267794078	10344.751281147
0	3519	601671.3992478061	6896.0722678212
0	3527	602297.771908328123	5160.4613551426
0	3549	610148.760816385418	11983.799555717
0	3571	614488.176285254692	8403.1566874167
0	3580	616864.1987371604	6802.1710311101
0	3609	622390.953136645909	9506.5566018729
0	3631	625895.837179251861	8147.433645157
0	3659	627187.551966767262	6098.6091632292
0	3664	627491.313041954353	5221.5216252186
0	3684	630103.998679767149	7368.443352543
0	3689	630423.167995092187	4128.9771823487
0	3697	632808.660049144688	6306.5387612751
0	3737	645754.885001718347	4130.4441525653
0	3745	646069.360529628683	17468.546332516
0	3767	648535.670721253833	6820.1462174489
0	3775	650239.959205981229	5583.5695424598
0	3792	652013.190260536266	5950.6034674088
0	3809	654853.458206097927	6893.667219781
0	3826	657696.401314809736	7409.7543320586
0	3835	660853.398429406279	6917.4903267084
0	3854	669564.694777979608	12909.030707769
0	3872	676861.366845180264	11067.768791612
0	3911	688340.450917694297	15876.823939542
0	3916	688681.717387956036	4156.2429645243
0	3933	692139.952902146765	7496.0401228354
0	3950	695997.37657371359	8862.4925961716
0	3967	698374.049884420084	6822.4498687324
0	3988	702377.105231987386	8724.8159214307
0	4001	703535.65922269242	5769.918940355
0	4026	706683.298991361782	6917.2571722077
0	4035	708809.080301553118	6442.9877816129
0	4043	709585.235915677492	4848.9575873097
0	4101	716223.302380021595	11050.018446926
0	4110	717464.795303912385	4742.9455915339
0	4126	718281.107311356705	4933.9974073125
0	4137	718688.895398654381	4224.9638357001
0	4145	718958.991325980532	5532.7085146274
0	4150	719183.366474699758	4333.1079846192
0	4167	722561.639053352817	7493.2128063909
0	4179	725259.310745899265	7568.2485013319
0	4194	729601.028182942572	8515.5650901547
0	4219	734564.277314831847	9455.6533045532
0	4236	737747.817682391535	7154.1511752592
0	4253	740701.498797896368	6777.631966315
0	4287	744001.873063971426	6879.3646387563
0	4312	747242.267962272959	4308.7521419111
0	4323	747703.358809920921	4922.6020644756
0	4328	748022.936063018517	8725.1939705417
0	4340	750047.224128749617	7004.4215004661
0	4345	750403.816223029439	4960.2487390416
0	4389	755253.297566258211	8705.2659736854
0	4403	757658.836189212306	6861.7685039675
0	4414	758640.513428189309	4926.5920572831
0	4422	758926.914141953923	4490.2508139162
0	4452	760100.077672199156	5535.958574899
0	4472	763382.613785305145	4684.7474604592
0	4480	763672.760345944173	8635.9545106027
0	4485	763916.15854201212	4983.4783822572
0	4505	767296.927548384214	8275.0688206498
0	4522	770811.469294026165	4446.3148729145
0	4528	771137.050092061866	8302.5607494266
0	4545	776187.948978366116	8916.7074456076
0	4571	781985.047255962999	10123.642135526
0	4596	784149.260967563471	6840.0755727396
0	4616	786438.600953414647	5933.0124668246
0	4629	787614.783125590797	5330.4968290952
0	4648	788767.92583913886	5427.9793450913
0	4662	790277.73652961278	5985.5848782782
0	4679	792468.961470803795	6094.8594656096
0	4695	793241.418969095049	5059.7149414201
0	4712	795647.858066816998	7125.2781254255
0	4720	796693.629631577823	5493.6416530915
0	4729	798279.019388860099	5661.1777200289
0	4779	805092.919634540852	10674.167707755
0	4796	807063.718710757054	6872.3238107868
0	4807	808073.765299320671	4814.0146491781
0	4815	808385.621370765568	4380.3458881024
0	4820	808702.633425869371	4854.3633563324
0	4828	809905.704801197085	5446.1724949054
0	4846	814682.26081268861	9237.0946915738
0	4880	820736.806642608768	10643.714622517
0	4889	823511.983829532024	4205.7303868422
0	4897	823922.257115463309	7892.528667541
0	4931	829035.129997603683	9005.0002115979
0	4939	829615.828149932174	4665.6335670556
0	4956	831116.596236880655	5193.8510163959
0	4972	833601.2499253983	6526.9296225698
0	4981	835436.844655924109	5739.0528126618
0	5007	842280.195945875254	4141.0059466744
0	5015	842840.561446712766	11382.306123236
0	5042	849688.615286889188	11536.911211155
0	5051	852520.046277450076	7773.8674363915
0	5085	858968.563818622384	9945.5491664632
0	5093	860159.32010000497	5457.3367887732
0	5102	861612.369498679135	6013.2137921402
0	5135	866689.122484725226	9240.099776095
0	5144	867164.276059272281	5357.2529097337
0	5152	869446.019651215297	6464.1686680067
0	5190	876933.558088199842	11580.328187349
0	5195	877187.083790619348	4382.1124681691
0	5203	878426.528696036554	5391.1263904997
0	5240	884412.21890064044	10735.830352899
0	5245	884706.883472286758	4513.2196077551
0	5254	886288.767001375593	5715.4018390002
0	5272	891913.992456230871	10082.875447735
0	5298	898168.243096786084	11245.463979758
0	5315	900297.675271259867	7140.3146018511
0	5332	903293.438723032734	7409.3613774815
0	5343	903963.389987666957	4526.9786129738
0	5365	907810.872579641945	7239.8629800784
0	5374	910939.956038340347	7253.8668444384
0	5392	915208.669512556886	8226.1210101189
0	5412	920822.260517089491	9749.929233383
0	5435	924681.6289162496	7938.7703399989
0	5443	925305.328485535193	4491.383503718
0	5468	929035.291770870005	3712.3927590702
0	5476	929600.503931066585	8761.0800292677
0	5505	935293.964409077302	5148.2991895325
0	5513	935586.747107679493	10078.927833408
0	5536	939372.729558264814	7950.3768831153
0	5561	942697.940097387574	7178.0586738446
0	5569	943892.105898809198	5801.6610617053
0	5577	944360.637360533801	4609.7843314409
0	5612	952236.671077289917	11866.583729869
0	5621	955027.092473207201	7518.5548574161
0	5629	955312.84333779576	4139.4227059361
0	5655	961678.074821490752	10008.03272371
0	5663	962217.507890725334	4407.0309527206
0	5690	969312.977499180036	10260.70708831
0	5715	972383.989666903798	6822.2685007538
0	5723	974473.683516784846	6142.8861336835
0	5740	976437.870454665595	5867.5296610485
0	5765	979815.684219007071	7983.3668176713
0	5777	982844.163329069693	3886.5174328469
0	5782	983087.031698368263	7275.0917904724
0	5827	998929.596288956306	19895.384061104
0	5836	999627.668001025192	5486.0995083019
0	5844	1000609.662662843586	5073.949278556
0	5877	1002945.342947549918	7402.30303064
1	787	142771.071081189052	0
1	796	146546.126965085035	0
1	814	150278.354673102013	0
1	839	154102.115073487903	0
1	848	156156.395779815684	0
1	865	159745.71952503798	0
1	882	162565.054869440431	0
1	890	163204.059667542645	0
1	906	163850.20749329019	146.47774463487
1	914	164398.030997925397	0
1	948	168179.418502285214	0
1	964	169868.550964754145	0
1	981	172457.277159509233	0
1	989	172723.237496510142	108.83221045784
1	1005	173830.091646613974	0
1	1039	178100.412806399488	184.38683630278
1	1047	178305.363373096546	134.60836209978
1	1055	178699.771764814572	0
1	1064	180627.032431225357	0
1	1088	182872.617281390412	0
1	1113	185884.314638689257	0
1	1139	189842.528504974995	264.65547269048
1	1158	198505.195101086526	0
1	1166	200094.160250542089	0
1	1174	200539.436885636433	0
1	1191	202905.941571714696	82.943209862699
1	1208	204374.549361186246	0
1	1224	205215.312352383379	0
1	1241	207287.651504294588	123.09510893717
1	1265	209867.699575991461	0
1	1274	210544.602691081694	0
1	1290	211771.460671305654	332.03678514747
1	1324	217572.983135534243	0
1	1332	218674.627530193187	0
1	1341	219542.425738068527	0
1	1357	220931.880051640127	0
1	1365	221354.503820839867	0
1	1408	230284.222684756441	0
1	1417	232934.997929107261	0
1	1434	236384.057090933557	0
1	1460	242435.284155037381	0
1	1479	249805.114439143245	0
1	1487	250367.424301125011	0
1	1495	251689.714709873519	0
1	1504	252384.957186341316	0
1	1512	253047.056961232836	0
1	1562	258474.232091102288	0
1	1570	258904.445420897501	0
1	1578	259173.533050163541	198.57199512731
1	1613	267644.210710323151	0
1	1621	269005.091981154243	0
1	1647	275428.663885807883	0
1	1665	280158.973288191673	0
1	1684	290593.951168660793	0
1	1693	292166.72530651288	0
1	1702	294088.36955972365	0
1	1718	294675.216348938379	22.94596007941
1	1726	295433.720644137847	0
1	1768	300498.630775323039	0
1	1776	302454.571445267538	0
1	1785	303774.175609352643	0
1	1810	307180.592725291796	0
1	1827	309429.181261089906	0
1	1835	309781.337259405998	215.52274093761
1	1843	310643.529791541186	0
1	1885	315818.43473513808	0
1	1893	316920.339457238372	0
1	1921	328260.73659385759	0
1	1929	329459.111336396276	0
1	1937	329754.460800730914	170.01658229279
1	1977	352704.188341311918	0
1	1995	357432.002151338218	0
1	2003	359041.791639044893	0
1	2029	364714.824046523683	0
1	2037	364966.193588317001	50.250772710118
1	2048	365262.868507636106	92.092463531296
1	2053	365578.528225133388	404.2547987803
1	2097	375300.592025325896	0
1	2116	385738.60295738111	0
1	2134	390664.283917831934	0
1	2142	391247.399586557413	0
1	2151	393494.978699232908	0
1	2185	399579.392756795556	0
1	2204	409095.334533453162	0
1	2213	412329.569513846131	0
1	2230	414329.324079572467	0
1	2255	417910.470789089159	239.44249643426
1	2263	418462.217177869196	0
1	2271	419148.418777417522	0
1	2279	419439.44058207788	243.50832132376
1	2321	424497.295463350191	0
1	2329	425195.817853462937	0
1	2355	431780.098713210477	0
1	2364	432212.576062846409	0
1	2372	434727.569398981119	0
1	2389	435875.006643322111	0
1	2423	442774.385504713915	0
1	2441	447501.151882065935	0
1	2449	448750.36006071787	0
1	2458	450313.260148379734	0
1	2492	456941.1230259657	0
1	2509	461679.265983109434	0
1	2518	462427.763866203895	0
1	2526	464957.126278203636	0
1	2535	465208.989453732196	71.710955600699
1	2551	465845.311270393399	245.55561199473
1	2567	466959.499685859167	0
1	2612	480784.516604855001	0
1	2620	481175.257940614819	0
1	2628	482387.089333070504	0
1	2662	486881.48029540403	73.193510510069
1	2670	487406.905287321026	0
1	2687	490548.751554878374	0
1	2713	495489.720136317664	0
1	2721	495819.11183675749	38.457308787462
1	2729	496420.079514695339	0
1	2737	496743.341257707116	160.21916574161
1	2745	497652.547600939029	0
1	2754	498978.030384978014	0
1	2770	499650.670712660186	177.13499257121
1	2828	505115.898905383601	0
1	2837	508277.7795809605	0
1	2854	510883.475952922869	0
1	2870	512250.17948425129	244.77366052965
1	2878	512791.375807516999	0
1	2887	513576.041541532019	0
1	2895	513865.026381169594	67.772405416175
1	2911	514694.876896838225	294.81725595135
1	2919	515667.297065962796	0
1	2944	516995.692599236565	0
1	2994	523609.443224035785	0
1	3003	525367.662776933714	0
1	3011	525697.197119907465	199.15685550713
1	3019	527183.165843389959	0
1	3035	527805.343686049706	74.833529068795
1	3044	528671.356236466385	0
1	3052	529246.842431776197	0
1	3110	535867.673404546925	0
1	3119	538490.769464625492	0
1	3127	538900.812999207986	0
1	3144	540037.399433133816	13.96049306093
1	3152	540601.813768895012	0
1	3177	543814.381585615447	0
1	3210	548728.513306477601	0
1	3219	549939.60798935185	0
1	3245	557530.180935136252	0
1	3254	558767.238133057729	0
1	3280	564617.226161472051	0
1	3288	565042.205734132054	0
1	3296	565499.002117205224	0
1	3304	565810.042876176582	0
1	3348	576043.952883358746	0
1	3356	577838.646571325426	0
1	3373	581103.216701952959	0
1	3381	581477.844595628089	249.93069679621
1	3398	582643.585276125519	0
1	3423	585844.409087922843	0
1	3439	587030.042734317048	178.79126601111
1	3448	588684.760986646798	0
1	3482	594775.3269799849	0
1	3491	597137.310553185547	0
1	3499	598164.961260668595	0
1	3534	606085.019597837979	0
1	3551	610148.760816385418	86.733110335106
1	3560	612884.396534773054	0
1	3585	617748.403534094884	0
1	3595	621088.942803538081	0
1	3611	622390.953136645909	121.16171991018
1	3619	622735.555327224174	0
1	3636	626294.19081274345	0
1	3647	626618.216384029807	116.09509616021
1	3669	628600.814197113079	0
1	3705	641624.440849153097	0
1	3713	641927.918790988056	212.39428718314
1	3722	644656.389663521448	0
1	3747	646069.360529628683	6.773736501221
1	3755	647959.790986316935	0
1	3780	650286.646982751181	0
1	3797	653935.908102697862	0
1	3814	656655.664070210176	0
1	3841	665793.598053568238	0
1	3860	672463.626978151876	0
1	3880	684525.47442343172	0
1	3888	684814.439604376338	170.52682506498
1	3897	687134.883977541981	0
1	3922	691551.600015687679	0
1	3939	693652.289310556687	0
1	3956	697765.740282337468	0
1	3973	699766.041819154052	0
1	3990	702377.105231987386	11.012712047137
1	4006	704736.278328367811	0
1	4015	705173.283933095151	0
1	4049	712721.849712378435	0
1	4057	713347.109904044248	0
1	4065	713595.141128098222	168.85831674509
1	4074	714463.93156295428	0
1	4082	714850.2584900806	0
1	4090	715130.499533280307	62.073286318426
1	4115	717691.062244567326	0
1	4156	721085.463092787908	0
1	4181	725259.310745899265	150.68673562058
1	4199	730593.666507132361	0
1	4208	733923.866831581408	0
1	4225	737122.508425215119	0
1	4242	739297.742092476813	0
1	4259	742780.75674544536	0
1	4270	743140.119358605665	206.60353824381
1	4278	743430.089075202003	387.28644691847
1	4292	745443.567483987861	0
1	4300	746548.031592572836	0
1	4350	750797.067685244759	0
1	4359	753713.921370906221	0
1	4367	754436.663328037712	0
1	4378	754697.184379257141	133.06528195697
1	4391	755253.297566258211	216.49173091673
1	4424	758926.914141953923	229.04781710798
1	4436	759202.160081591834	269.47992183696
1	4444	759502.390590637109	480.53186290265
1	4458	762834.489342635256	0
1	4491	766365.154421111648	0
1	4507	767296.927548384214	25.686015625727
1	4533	771861.405120436913	0
1	4551	777309.185394823891	0
1	4560	780505.58848659003	0
1	4576	782284.286296495563	0
1	4585	783339.946494047579	0
1	4601	784292.151651334534	0
1	4618	786438.600953414647	64.498948220443
1	4634	788181.704027674938	0
1	4650	788767.92583913886	245.34589774735
1	4667	791199.987978486314	0
1	4684	792617.841668831211	0
1	4700	794418.751926786092	0
1	4734	800191.39489997029	0
1	4743	803259.750650142606	0
1	4751	803848.270069536952	0
1	4763	804220.114381396941	214.83889873373
1	4771	804526.474088549653	66.941782257976
1	4784	805445.166121114849	0
1	4834	810093.092020091431	0
1	4852	816029.728447922277	0
1	4861	819306.253442689788	0
1	4869	820030.129786005813	0
1	4902	824950.194582876525	0
1	4911	825922.745220484763	0
1	4919	827074.320302828513	0
1	4944	829697.791843262261	0
1	4961	831458.255323476357	0
1	4987	838139.189999200891	0
1	4995	838436.165966316151	284.46189058193
1	5021	844746.178841058605	0
1	5031	849023.01465215916	0
1	5056	854701.983311231816	0
1	5065	855599.1557065389	0
1	5073	857449.022708630256	0
1	5107	861807.023149538588	0
1	5115	862981.850983208574	0
1	5124	865353.229900850929	0
1	5158	872804.971322450295	0
1	5167	873126.62511061174	91.222805074859
1	5175	873676.388547741234	0
1	5209	880193.663864531632	0
1	5217	880573.365162375394	0
1	5225	881831.117008496015	0
1	5259	886922.779117027729	0
1	5277	893157.360669408803	0
1	5286	895884.077345551244	0
1	5303	899436.411374693156	0
1	5320	900571.009599563591	0
1	5345	903963.389987666957	277.30079376505
1	5354	906982.548502437955	0
1	5379	911072.331283706461	0
1	5397	916742.858576250669	0
1	5414	920822.260517089491	8.315535272302
1	5423	921113.976863649117	274.55296185019
1	5448	925322.899011799819	0
1	5456	925631.224824078151	123.40554980706
1	5482	930145.665219544838	0
1	5490	931422.352675149528	0
1	5515	935586.747107679493	66.865684136564
1	5524	938090.444837103869	0
1	5541	939750.85302909286	0
1	5549	940370.087347420604	0
1	5583	947508.537615791126	0
1	5593	951173.420631859645	0
1	5601	951670.042097780773	0
1	5635	957810.476938004731	0
1	5643	959052.270410870192	0
1	5669	965561.721166150032	0
1	5678	968330.797383101334	0
1	5695	970570.34079361708	0
1	5703	971832.317401335747	0
1	5729	975811.939907895887	0
1	5746	978957.645896222748	0
1	5754	979234.794526909994	200.5822990581
1	5791	994141.568492723267	0
1	5799	995535.713384287595	0
1	5807	995832.895885430689	289.85596852076
1	5816	998321.308350259487	0
1	5849	1001167.136039532455	0
1	5857	1001691.169653872809	0
1	5866	1002016.0517903409	34.681252797009
2	785	142771.071081189052	1
2	787	142771.071081189052	0
2	794	146546.126965085035	1
2	796	146546.126965085035	0
2	812	150278.354673102013	1
2	814	150278.354673102013	0
2	837	154102.115073487903	1
2	839	154102.115073487903	0
2	846	156156.395779815684	1
2	848	156156.395779815684	0
2	863	159745.71952503798	1
2	865	159745.71952503798	0
2	880	162565.054869440431	1
2	882	162565.054869440431	0
2	888	163204.059667542645	1
2	890	163204.059667542645	0
2	901	163703.729748655323	1
2	906	163850.20749329019	0
2	912	164398.030997925397	1
2	914	164398.030997925397	0
2	946	168179.418502285214	1
2	948	168179.418502285214	0
2	962	169868.550964754145	1
2	964	169868.550964754145	0
2	979	172457.277159509233	1
2	981	172457.277159509233	0
2	984	172614.405286052301	1
2	989	172723.237496510142	0
2	1003	173830.091646613974	1
2	1005	173830.091646613974	0
2	1034	177916.025970096709	1
2	1039	178100.412806399488	0
2	1042	178170.755010996766	1
2	1047	178305.363373096546	0
2	1053	178699.771764814572	1
2	1055	178699.771764814572	0
2	1062	180627.032431225357	1
2	1064	180627.032431225357	0
2	1086	182872.617281390412	1
2	1088	182872.617281390412	0
2	1111	185884.314638689257	1
2	1113	185884.314638689257	0
2	1134	189577.873032284518	1
2	1139	189842.528504974995	0
2	1156	198505.195101086526	1
2	1158	198505.195101086526	0
2	1164	200094.160250542089	1
2	1166	200094.160250542089	0
2	1172	200539.436885636433	1
2	1174	200539.436885636433	0
2	1186	202822.998361851997	1
2	1191	202905.941571714696	0
2	1206	204374.549361186246	1
2	1208	204374.549361186246	0
2	1222	205215.312352383379	1
2	1224	205215.312352383379	0
2	1236	207164.556395357419	1
2	1241	207287.651504294588	0
2	1263	209867.699575991461	1
2	1265	209867.699575991461	0
2	1272	210544.602691081694	1
2	1274	210544.602691081694	0
2	1285	211439.423886158181	1
2	1290	211771.460671305654	0
2	1322	217572.983135534243	1
2	1324	217572.983135534243	0
2	1330	218674.627530193187	1
2	1332	218674.627530193187	0
2	1339	219542.425738068527	1
2	1341	219542.425738068527	0
2	1355	220931.880051640127	1
2	1357	220931.880051640127	0
2	1363	221354.503820839867	1
2	1365	221354.503820839867	0
2	1406	230284.222684756441	1
2	1408	230284.222684756441	0
2	1415	232934.997929107261	1
2	1417	232934.997929107261	0
2	1432	236384.057090933557	1
2	1434	236384.057090933557	0
2	1458	242435.284155037381	1
2	1460	242435.284155037381	0
2	1477	249805.114439143245	1
2	1479	249805.114439143245	0
2	1485	250367.424301125011	1
2	1487	250367.424301125011	0
2	1493	251689.714709873519	1
2	1495	251689.714709873519	0
2	1502	252384.957186341316	1
2	1504	252384.957186341316	0
2	1510	253047.056961232836	1
2	1512	253047.056961232836	0
2	1560	258474.232091102288	1
2	1562	258474.232091102288	0
2	1568	258904.445420897501	1
2	1570	258904.445420897501	0
2	1573	258974.961055036235	1
2	1578	259173.533050163541	0
2	1611	267644.210710323151	1
2	1613	267644.210710323151	0
2	1619	269005.091981154243	1
2	1621	269005.091981154243	0
2	1645	275428.663885807883	1
2	1647	275428.663885807883	0
2	1663	280158.973288191673	1
2	1665	280158.973288191673	0
2	1682	290593.951168660793	1
2	1684	290593.951168660793	0
2	1691	292166.72530651288	1
2	1693	292166.72530651288	0
2	1700	294088.36955972365	1
2	1702	294088.36955972365	0
2	1713	294652.270388858969	1
2	1718	294675.216348938379	0
2	1724	295433.720644137847	1
2	1726	295433.720644137847	0
2	1766	300498.630775323039	1
2	1768	300498.630775323039	0
2	1774	302454.571445267538	1
2	1776	302454.571445267538	0
2	1783	303774.175609352643	1
2	1785	303774.175609352643	0
2	1808	307180.592725291796	1
2	1810	307180.592725291796	0
2	1825	309429.181261089906	1
2	1827	309429.181261089906	0
2	1830	309565.814518468392	1
2	1835	309781.337259405998	0
2	1841	310643.529791541186	1
2	1843	310643.529791541186	0
2	1883	315818.43473513808	1
2	1885	315818.43473513808	0
2	1891	316920.339457238372	1
2	1893	316920.339457238372	0
2	1919	328260.73659385759	1
2	1921	328260.73659385759	0
2	1927	329459.111336396276	1
2	1929	329459.111336396276	0
2	1932	329584.444218438122	1
2	1937	329754.460800730914	0
2	1975	352704.188341311918	1
2	1977	352704.188341311918	0
2	1993	357432.002151338218	1
2	1995	357432.002151338218	0
2	2001	359041.791639044893	1
2	2003	359041.791639044893	0
2	2027	364714.824046523683	1
2	2029	364714.824046523683	0
2	2032	364915.942815606883	1
2	2037	364966.193588317001	0
2	2040	365170.77604410481	1
2	2043	365174.273426353088	2
2	2048	365262.868507636106	1
2	2053	365578.528225133388	0
2	2095	375300.592025325896	1
2	2097	375300.592025325896	0
2	2114	385738.60295738111	1
2	2116	385738.60295738111	0
2	2132	390664.283917831934	1
2	2134	390664.283917831934	0
2	2140	391247.399586557413	1
2	2142	391247.399586557413	0
2	2149	393494.978699232908	1
2	2151	393494.978699232908	0
2	2183	399579.392756795556	1
2	2185	399579.392756795556	0
2	2202	409095.334533453162	1
2	2204	409095.334533453162	0
2	2211	412329.569513846131	1
2	2213	412329.569513846131	0
2	2228	414329.324079572467	1
2	2230	414329.324079572467	0
2	2250	417671.028292654899	1
2	2255	417910.470789089159	0
2	2261	418462.217177869196	1
2	2263	418462.217177869196	0
2	2269	419148.418777417522	1
2	2271	419148.418777417522	0
2	2274	419195.932260754123	1
2	2279	419439.44058207788	0
2	2319	424497.295463350191	1
2	2321	424497.295463350191	0
2	2327	425195.817853462937	1
2	2329	425195.817853462937	0
2	2353	431780.098713210477	1
2	2355	431780.098713210477	0
2	2362	432212.576062846409	1
2	2364	432212.576062846409	0
2	2370	434727.569398981119	1
2	2372	434727.569398981119	0
2	2387	435875.006643322111	1
2	2389	435875.006643322111	0
2	2421	442774.385504713915	1
2	2423	442774.385504713915	0
2	2439	447501.151882065935	1
2	2441	447501.151882065935	0
2	2447	448750.36006071787	1
2	2449	448750.36006071787	0
2	2456	450313.260148379734	1
2	2458	450313.260148379734	0
2	2490	456941.1230259657	1
2	2492	456941.1230259657	0
2	2507	461679.265983109434	1
2	2509	461679.265983109434	0
2	2516	462427.763866203895	1
2	2518	462427.763866203895	0
2	2524	464957.126278203636	1
2	2526	464957.126278203636	0
2	2530	465137.278498131497	1
2	2535	465208.989453732196	0
2	2546	465599.755658398668	1
2	2551	465845.311270393399	0
2	2565	466959.499685859167	1
2	2567	466959.499685859167	0
2	2610	480784.516604855001	1
2	2612	480784.516604855001	0
2	2618	481175.257940614819	1
2	2620	481175.257940614819	0
2	2626	482387.089333070504	1
2	2628	482387.089333070504	0
2	2657	486808.286784893961	1
2	2662	486881.48029540403	0
2	2668	487406.905287321026	1
2	2670	487406.905287321026	0
2	2685	490548.751554878374	1
2	2687	490548.751554878374	0
2	2711	495489.720136317664	1
2	2713	495489.720136317664	0
2	2716	495780.654527970028	1
2	2721	495819.11183675749	0
2	2727	496420.079514695339	1
2	2729	496420.079514695339	0
2	2732	496583.122091965509	1
2	2737	496743.341257707116	0
2	2743	497652.547600939029	1
2	2745	497652.547600939029	0
2	2752	498978.030384978014	1
2	2754	498978.030384978014	0
2	2765	499473.535720088979	1
2	2770	499650.670712660186	0
2	2826	505115.898905383601	1
2	2828	505115.898905383601	0
2	2835	508277.7795809605	1
2	2837	508277.7795809605	0
2	2852	510883.475952922869	1
2	2854	510883.475952922869	0
2	2865	512005.405823721638	1
2	2870	512250.17948425129	0
2	2876	512791.375807516999	1
2	2878	512791.375807516999	0
2	2885	513576.041541532019	1
2	2887	513576.041541532019	0
2	2890	513797.253975753419	1
2	2895	513865.026381169594	0
2	2906	514400.059640886879	1
2	2911	514694.876896838225	0
2	2917	515667.297065962796	1
2	2919	515667.297065962796	0
2	2942	516995.692599236565	1
2	2944	516995.692599236565	0
2	2992	523609.443224035785	1
2	2994	523609.443224035785	0
2	3001	525367.662776933714	1
2	3003	525367.662776933714	0
2	3006	525498.040264400334	1
2	3011	525697.197119907465	0
2	3017	527183.165843389959	1
2	3019	527183.165843389959	0
2	3030	527730.510156980911	1
2	3035	527805.343686049706	0
2	3042	528671.356236466385	1
2	3044	528671.356236466385	0
2	3050	529246.842431776197	1
2	3052	529246.842431776197	0
2	3108	535867.673404546925	1
2	3110	535867.673404546925	0
2	3117	538490.769464625492	1
2	3119	538490.769464625492	0
2	3125	538900.812999207986	1
2	3127	538900.812999207986	0
2	3139	540023.438940072886	1
2	3144	540037.399433133816	0
2	3150	540601.813768895012	1
2	3152	540601.813768895012	0
2	3175	543814.381585615447	1
2	3177	543814.381585615447	0
2	3208	548728.513306477601	1
2	3210	548728.513306477601	0
2	3217	549939.60798935185	1
2	3219	549939.60798935185	0
2	3243	557530.180935136252	1
2	3245	557530.180935136252	0
2	3252	558767.238133057729	1
2	3254	558767.238133057729	0
2	3278	564617.226161472051	1
2	3280	564617.226161472051	0
2	3286	565042.205734132054	1
2	3288	565042.205734132054	0
2	3294	565499.002117205224	1
2	3296	565499.002117205224	0
2	3302	565810.042876176582	1
2	3304	565810.042876176582	0
2	3346	576043.952883358746	1
2	3348	576043.952883358746	0
2	3354	577838.646571325426	1
2	3356	577838.646571325426	0
2	3371	581103.216701952959	1
2	3373	581103.216701952959	0
2	3376	581227.913898831876	1
2	3381	581477.844595628089	0
2	3396	582643.585276125519	1
2	3398	582643.585276125519	0
2	3421	585844.409087922843	1
2	3423	585844.409087922843	0
2	3434	586851.251468305935	1
2	3439	587030.042734317048	0
2	3446	588684.760986646798	1
2	3448	588684.760986646798	0
2	3480	594775.3269799849	1
2	3482	594775.3269799849	0
2	3489	597137.310553185547	1
2	3491	597137.310553185547	0
2	3497	598164.961260668595	1
2	3499	598164.961260668595	0
2	3532	606085.019597837979	1
2	3534	606085.019597837979	0
2	3546	610062.027706050312	1
2	3551	610148.760816385418	0
2	3558	612884.396534773054	1
2	3560	612884.396534773054	0
2	3583	617748.403534094884	1
2	3585	617748.403534094884	0
2	3593	621088.942803538081	1
2	3595	621088.942803538081	0
2	3606	622269.791416735733	1
2	3611	622390.953136645909	0
2	3617	622735.555327224174	1
2	3619	622735.555327224174	0
2	3634	626294.19081274345	1
2	3636	626294.19081274345	0
2	3639	626502.121287869594	1
2	3647	626618.216384029807	0
2	3667	628600.814197113079	1
2	3669	628600.814197113079	0
2	3703	641624.440849153097	1
2	3705	641624.440849153097	0
2	3708	641715.524503804913	1
2	3713	641927.918790988056	0
2	3720	644656.389663521448	1
2	3722	644656.389663521448	0
2	3742	646062.586793127462	1
2	3747	646069.360529628683	0
2	3753	647959.790986316935	1
2	3755	647959.790986316935	0
2	3778	650286.646982751181	1
2	3780	650286.646982751181	0
2	3795	653935.908102697862	1
2	3797	653935.908102697862	0
2	3812	656655.664070210176	1
2	3814	656655.664070210176	0
2	3839	665793.598053568238	1
2	3841	665793.598053568238	0
2	3858	672463.626978151876	1
2	3860	672463.626978151876	0
2	3878	684525.47442343172	1
2	3880	684525.47442343172	0
2	3883	684643.91277931136	1
2	3888	684814.439604376338	0
2	3895	687134.883977541981	1
2	3897	687134.883977541981	0
2	3920	691551.600015687679	1
2	3922	691551.600015687679	0
2	3937	693652.289310556687	1
2	3939	693652.289310556687	0
2	3954	697765.740282337468	1
2	3956	697765.740282337468	0
2	3971	699766.041819154052	1
2	3973	699766.041819154052	0
2	3985	702366.092519940249	1
2	3990	702377.105231987386	0
2	4004	704736.278328367811	1
2	4006	704736.278328367811	0
2	4013	705173.283933095151	1
2	4015	705173.283933095151	0
2	4047	712721.849712378435	1
2	4049	712721.849712378435	0
2	4055	713347.109904044248	1
2	4057	713347.109904044248	0
2	4060	713426.282811353136	1
2	4065	713595.141128098222	0
2	4072	714463.93156295428	1
2	4074	714463.93156295428	0
2	4080	714850.2584900806	1
2	4082	714850.2584900806	0
2	4085	715068.426246961881	1
2	4090	715130.499533280307	0
2	4113	717691.062244567326	1
2	4115	717691.062244567326	0
2	4154	721085.463092787908	1
2	4156	721085.463092787908	0
2	4176	725108.624010278687	1
2	4181	725259.310745899265	0
2	4197	730593.666507132361	1
2	4199	730593.666507132361	0
2	4206	733923.866831581408	1
2	4208	733923.866831581408	0
2	4223	737122.508425215119	1
2	4225	737122.508425215119	0
2	4240	739297.742092476813	1
2	4242	739297.742092476813	0
2	4257	742780.75674544536	1
2	4259	742780.75674544536	0
2	4262	742933.515820361858	1
2	4265	743042.802628283538	2
2	4270	743140.119358605665	1
2	4278	743430.089075202003	0
2	4290	745443.567483987861	1
2	4292	745443.567483987861	0
2	4298	746548.031592572836	1
2	4300	746548.031592572836	0
2	4348	750797.067685244759	1
2	4350	750797.067685244759	0
2	4357	753713.921370906221	1
2	4359	753713.921370906221	0
2	4365	754436.663328037712	1
2	4367	754436.663328037712	0
2	4373	754564.119097300169	1
2	4378	754697.184379257141	0
2	4386	755036.80583534148	1
2	4391	755253.297566258211	0
2	4419	758697.866324845945	1
2	4424	758926.914141953923	0
2	4427	758932.680159754872	1
2	4431	759021.858727734455	2
2	4436	759202.160081591834	1
2	4444	759502.390590637109	0
2	4456	762834.489342635256	1
2	4458	762834.489342635256	0
2	4489	766365.154421111648	1
2	4491	766365.154421111648	0
2	4502	767271.241532758487	1
2	4507	767296.927548384214	0
2	4531	771861.405120436913	1
2	4533	771861.405120436913	0
2	4549	777309.185394823891	1
2	4551	777309.185394823891	0
2	4558	780505.58848659003	1
2	4560	780505.58848659003	0
2	4574	782284.286296495563	1
2	4576	782284.286296495563	0
2	4583	783339.946494047579	1
2	4585	783339.946494047579	0
2	4599	784292.151651334534	1
2	4601	784292.151651334534	0
2	4613	786374.102005194204	1
2	4618	786438.600953414647	0
2	4632	788181.704027674938	1
2	4634	788181.704027674938	0
2	4645	788522.579941391514	1
2	4650	788767.92583913886	0
2	4665	791199.987978486314	1
2	4667	791199.987978486314	0
2	4682	792617.841668831211	1
2	4684	792617.841668831211	0
2	4698	794418.751926786092	1
2	4700	794418.751926786092	0
2	4732	800191.39489997029	1
2	4734	800191.39489997029	0
2	4741	803259.750650142606	1
2	4743	803259.750650142606	0
2	4749	803848.270069536952	1
2	4751	803848.270069536952	0
2	4758	804005.275482663206	1
2	4763	804220.114381396941	0
2	4766	804459.532306291677	1
2	4771	804526.474088549653	0
2	4782	805445.166121114849	1
2	4784	805445.166121114849	0
2	4832	810093.092020091431	1
2	4834	810093.092020091431	0
2	4850	816029.728447922277	1
2	4852	816029.728447922277	0
2	4859	819306.253442689788	1
2	4861	819306.253442689788	0
2	4867	820030.129786005813	1
2	4869	820030.129786005813	0
2	4900	824950.194582876525	1
2	4902	824950.194582876525	0
2	4909	825922.745220484763	1
2	4911	825922.745220484763	0
2	4917	827074.320302828513	1
2	4919	827074.320302828513	0
2	4942	829697.791843262261	1
2	4944	829697.791843262261	0
2	4959	831458.255323476357	1
2	4961	831458.255323476357	0
2	4985	838139.189999200891	1
2	4987	838139.189999200891	0
2	4990	838151.704075734223	1
2	4995	838436.165966316151	0
2	5019	844746.178841058605	1
2	5021	844746.178841058605	0
2	5029	849023.01465215916	1
2	5031	849023.01465215916	0
2	5054	854701.983311231816	1
2	5056	854701.983311231816	0
2	5063	855599.1557065389	1
2	5065	855599.1557065389	0
2	5071	857449.022708630256	1
2	5073	857449.022708630256	0
2	5105	861807.023149538588	1
2	5107	861807.023149538588	0
2	5113	862981.850983208574	1
2	5115	862981.850983208574	0
2	5122	865353.229900850929	1
2	5124	865353.229900850929	0
2	5156	872804.971322450295	1
2	5158	872804.971322450295	0
2	5162	873035.402305536881	1
2	5167	873126.62511061174	0
2	5173	873676.388547741234	1
2	5175	873676.388547741234	0
2	5207	880193.663864531632	1
2	5209	880193.663864531632	0
2	5215	880573.365162375394	1
2	5217	880573.365162375394	0
2	5223	881831.117008496015	1
2	5225	881831.117008496015	0
2	5257	886922.779117027729	1
2	5259	886922.779117027729	0
2	5275	893157.360669408803	1
2	5277	893157.360669408803	0
2	5284	895884.077345551244	1
2	5286	895884.077345551244	0
2	5301	899436.411374693156	1
2	5303	899436.411374693156	0
2	5318	900571.009599563591	1
2	5320	900571.009599563591	0
2	5340	903686.089193901904	1
2	5345	903963.389987666957	0
2	5352	906982.548502437955	1
2	5354	906982.548502437955	0
2	5377	911072.331283706461	1
2	5379	911072.331283706461	0
2	5395	916742.858576250669	1
2	5397	916742.858576250669	0
2	5409	920813.944981817189	1
2	5414	920822.260517089491	0
2	5417	920839.42390179893	1
2	5423	921113.976863649117	0
2	5446	925322.899011799819	1
2	5448	925322.899011799819	0
2	5451	925507.819274271092	1
2	5456	925631.224824078151	0
2	5480	930145.665219544838	1
2	5482	930145.665219544838	0
2	5488	931422.352675149528	1
2	5490	931422.352675149528	0
2	5510	935519.881423542929	1
2	5515	935586.747107679493	0
2	5522	938090.444837103869	1
2	5524	938090.444837103869	0
2	5539	939750.85302909286	1
2	5541	939750.85302909286	0
2	5547	940370.087347420604	1
2	5549	940370.087347420604	0
2	5581	947508.537615791126	1
2	5583	947508.537615791126	0
2	5591	951173.420631859645	1
2	5593	951173.420631859645	0
2	5599	951670.042097780773	1
2	5601	951670.042097780773	0
2	5633	957810.476938004731	1
2	5635	957810.476938004731	0
2	5641	959052.270410870192	1
2	5643	959052.270410870192	0
2	5667	965561.721166150032	1
2	5669	965561.721166150032	0
2	5676	968330.797383101334	1
2	5678	968330.797383101334	0
2	5693	970570.34079361708	1
2	5695	970570.34079361708	0
2	5701	971832.317401335747	1
2	5703	971832.317401335747	0
2	5727	975811.939907895887	1
2	5729	975811.939907895887	0
2	5744	978957.645896222748	1
2	5746	978957.645896222748	0
2	5749	979034.212227851891	1
2	5754	979234.794526909994	0
2	5789	994141.568492723267	1
2	5791	994141.568492723267	0
2	5797	995535.713384287595	1
2	5799	995535.713384287595	0
2	5802	995543.03991690993	1
2	5807	995832.895885430689	0
2	5814	998321.308350259487	1
2	5816	998321.308350259487	0
2	5847	1001167.136039532455	1
2	5849	1001167.136039532455	0
2	5855	1001691.169653872809	1
2	5857	1001691.169653872809	0
2	5860	1001981.370537543891	1
2	5866	1002016.0517903409	0
3	804	146849.512927372709	105.21552800529
3	822	150594.139874301387	235.11731362157
3	831	153650.335875274476	0
3	856	158047.599204148222	0
3	873	160464.062806078046	0
3	898	163522.395959113723	146.55152040406
3	923	166619.517623630586	0
3	931	166965.282730115536	0
3	939	167501.713420725078	0
3	956	168643.767798599692	0
3	973	171833.363801225459	0
3	997	173385.298497456576	0
3	1014	176135.764720747586	0
3	1022	176612.279138747488	0
3	1031	177810.586349566779	0
3	1072	181442.331438304847	0
3	1080	182479.944309810902	0
3	1097	183437.968871687041	0
3	1105	184291.758198630945	0
3	1122	187320.164985589876	0
3	1131	189544.158094217641	0
3	1148	193627.041883867453	0
3	1183	202586.548098593142	0
3	1199	203779.719017984775	0
3	1216	204746.301573601328	0
3	1232	206994.197304240626	0
3	1249	207631.367872806077	0
3	1257	209263.79248603741	0
3	1282	211436.327973062419	0
3	1299	213266.292412742468	0
3	1307	214757.826643293072	0
3	1315	215898.21366966281	0
3	1349	220508.747492462271	0
3	1374	222643.012913826213	0
3	1382	223533.352622598253	0
3	1390	224469.345345999343	0
3	1399	225204.528570715198	0
3	1426	234719.633702331441	0
3	1442	236700.020208592516	196.93189100841
3	1451	239902.541187807443	0
3	1469	245926.502031839558	0
3	1520	253434.393522466209	0
3	1528	254210.166396864404	0
3	1537	255821.549941852012	0
3	1545	256107.819471460633	173.37423239941
3	1553	257066.909483102009	0
3	1587	261812.371035498548	0
3	1595	262696.93427840092	0
3	1603	263118.336090805405	0
3	1630	271474.97840927597	0
3	1639	273150.908879764061	0
3	1657	279397.469191030747	0
3	1674	283708.400849362794	0
3	1710	294424.511482626941	43.195406227197
3	1734	296145.541052305947	0
3	1743	298126.679728128959	0
3	1751	298596.34394898448	0
3	1759	299477.473543559045	0
3	1793	304538.524858248358	0
3	1801	305948.325719477014	0
3	1818	307658.313510223386	0
3	1851	310936.621328975495	234.92391216032
3	1860	313539.21845651993	0
3	1868	314009.572601814068	0
3	1876	314553.184296554758	0
3	1902	320373.140174069258	0
3	1910	320700.788301637263	61.416857695148
3	1946	332383.818435824973	0
3	1955	333301.01076314481	0
3	1963	333573.673700491598	22.856972607529
3	1986	356654.536589178845	0
3	2012	361631.853227496777	0
3	2020	362790.875178012112	0
3	2062	368461.162508872487	0
3	2070	368739.949888692596	95.561195845222
3	2079	369035.274522202184	263.38360768824
3	2087	369685.618570242073	0
3	2106	379562.305357776613	0
3	2125	389595.045999609573	0
3	2159	394268.786820438926	0
3	2167	394918.013643166397	0
3	2176	397389.588314116023	0
3	2194	403850.702343498222	0
3	2221	412727.075208364252	0
3	2238	415653.511117435823	0
3	2247	417581.576552211648	0
3	2288	421486.64917285734	0
3	2296	422188.996010967404	0
3	2305	423117.930196730283	0
3	2313	423431.577050625549	311.43075603156
3	2338	427916.551305267782	0
3	2347	429380.463968169098	0
3	2381	435529.959428780582	0
3	2397	436549.009646917507	0
3	2406	439358.201391537453	0
3	2414	439656.960462820829	251.42619052717
3	2432	446829.291083614877	0
3	2466	451379.146008049056	0
3	2474	452119.275020413985	0
3	2483	455282.690738446578	0
3	2501	461197.369036620214	0
3	2543	465534.65874888058	204.34710159273
3	2559	466152.017640261328	269.20904219911
3	2576	468218.191325552147	0
3	2584	468923.705948486526	0
3	2592	469623.689467831463	0
3	2600	470636.38049071745	0
3	2637	484187.711490167363	0
3	2645	484978.519771780626	0
3	2654	486582.169215188639	0
3	2679	489804.747126743179	0
3	2695	491071.384650545083	0
3	2704	494304.486329730709	0
3	2762	499350.750413519007	0
3	2778	499943.064259121065	119.52170922684
3	2786	500366.788651834151	0
3	2794	500650.562484615384	0
3	2803	501615.046273104514	0
3	2811	502872.299375543129	0
3	2819	503218.312588252124	117.66981544415
3	2845	509232.34656773099	0
3	2862	511925.230922267871	0
3	2903	514393.072693547897	0
3	2928	516146.844714782275	0
3	2936	516495.39063027867	0
3	2952	517363.373612862047	227.95507004622
3	2960	517746.930983361805	0
3	2968	518758.744420191461	0
3	2977	519049.734054963308	141.15373588203
3	2985	521415.92267247968	0
3	3027	527491.533707245548	189.17653690546
3	3060	529900.262561288807	0
3	3068	530186.073658462356	277.9809886026
3	3077	531110.029621389535	0
3	3085	531747.249197949565	0
3	3093	532884.167909430142	0
3	3101	533312.232495197441	0
3	3135	539743.80011498693	0
3	3160	541968.17387676777	0
3	3169	543256.120165244712	0
3	3185	544156.506512567997	147.945701449
3	3193	544448.491480510437	0
3	3202	547833.970962288112	0
3	3227	551883.460738831208	0
3	3236	553521.505315017836	0
3	3263	562266.517684095117	0
3	3271	562715.240624286354	0
3	3313	568577.736449211826	0
3	3321	568864.858792162158	150.87440059164
3	3329	569558.62104736282	0
3	3337	569909.364692521234	0
3	3365	580330.995557888663	0
3	3389	581975.797052744618	0
3	3406	584681.580798131668	0
3	3415	585113.264637755976	0
3	3431	586672.603305910587	0
3	3456	589910.678447645035	0
3	3464	590966.549888276402	0
3	3473	592882.466407260202	0
3	3507	598697.796280255347	0
3	3516	601356.646818245564	0
3	3524	602027.832539412783	0
3	3543	609809.535866300248	0
3	3568	614168.651393180031	0
3	3577	616516.028230377744	0
3	3603	622115.927969849864	0
3	3628	625546.251419579176	0
3	3655	626863.790198116863	360.47247759726
3	3661	627187.551966767262	533.41241080738
3	3677	629824.537394621046	0
3	3686	630103.998679767149	137.58840012808
3	3694	632474.447391671351	0
3	3731	645404.781674963799	0
3	3739	645754.885001718347	99.74291386224
3	3764	648202.726439817893	95.930316444198
3	3772	649935.136028098244	0
3	3789	651756.267547332374	0
3	3806	654521.728304106461	0
3	3823	657422.141043946444	0
3	3832	660610.177427944336	0
3	3851	669256.381558213488	0
3	3869	676546.747879430118	0
3	3905	688072.19009777361	0
3	3913	688340.450917694297	69.46926347004
3	3930	691861.141199970026	189.01156813736
3	3947	695732.549983629865	0
3	3964	698047.470018630666	166.48612729456
3	3982	702071.180895051086	0
3	3998	703186.230621800268	0
3	4023	706405.207984451759	0
3	4032	708507.064752974184	0
3	4040	709254.048719936757	0
3	4098	715983.585251280355	0
3	4107	717202.422448782111	0
3	4123	717982.771018214742	92.977099506587
3	4131	718356.11246255821	0
3	4139	718688.895398654381	268.94400862768
3	4147	718958.991325980532	244.80187284659
3	4164	722215.905513666022	0
3	4173	725021.050148443181	0
3	4191	729286.323555070272	0
3	4216	734259.936293603604	197.87582641744
3	4233	737461.000885956004	0
3	4250	740426.214587842116	0
3	4283	743697.627444885616	556.94196646866
3	4308	746923.132267584876	0
3	4317	747417.384343636945	0
3	4325	747703.358809920921	138.66092461814
3	4333	749773.165631644023	0
3	4342	750047.224128749617	213.32496420991
3	4383	754953.152308701058	427.56108121759
3	4400	757370.875682065996	0
3	4408	758333.031300539451	0
3	4416	758640.513428189309	34.422210534759
3	4449	759823.472395742433	597.39630566378
3	4469	763094.362467603042	242.44738230893
3	4474	763382.613785305145	491.65731828588
3	4482	763672.760345944173	245.03861921729
3	4499	766996.984799910294	0
3	4516	770527.860066957272	0
3	4524	770811.469294026165	146.75154123462
3	4542	775822.58673237054	0
3	4568	781740.125889003694	0
3	4593	783867.026726703526	0
3	4610	786181.676706512269	0
3	4626	787320.97451869158	0
3	4642	788470.155381497442	238.20879883558
3	4659	789959.538492347664	0
3	4676	792156.944961205144	0
3	4692	792908.868502203812	36.143735975393
3	4709	795335.938041073269	0
3	4717	796398.877313661202	0
3	4725	797983.523822696766	0
3	4776	804819.797412250096	925.83594908209
3	4792	806787.215176362317	0
3	4801	807766.272400986407	0
3	4809	808073.765299320671	296.32849521103
3	4817	808385.621370765568	232.65910175126
3	4825	809564.889171353762	0
3	4843	814372.209204255216	0
3	4877	820454.793856340343	0
3	4886	823197.529014723846	0
3	4894	823604.240180258192	0
3	4928	828695.968586540489	0
3	4936	829354.879210582947	0
3	4952	830838.281260040925	0
3	4969	833295.912648856426	0
3	4978	835122.954934684623	0
3	5004	841979.871747757757	0
3	5012	842539.621913150776	0
3	5039	849345.8370256058	245.20698218171
3	5048	852206.84808042775	0
3	5082	858671.171963883228	0
3	5090	859873.205327475141	0
3	5099	861251.570864874097	0
3	5132	866366.126899945901	0
3	5140	866844.45164746791	0
3	5149	869081.010203077237	0
3	5184	876699.566522256643	0
3	5192	876933.558088199842	107.33306329148
3	5200	878188.040790618767	0
3	5234	884115.529740690184	0
3	5242	884412.21890064044	209.46924184901
3	5251	886050.40469178244	0
3	5269	891633.946363357616	0
3	5295	897850.683774722008	0
3	5311	899942.764663641342	0
3	5329	903033.018182443621	0
3	5337	903661.737605393165	0
3	5362	907512.115456227726	0
3	5371	910625.194585357919	0
3	5388	914892.830275594441	0
3	5406	920514.471870636659	0
3	5432	924397.185726018266	0
3	5440	924975.490327007877	0
3	5465	928748.048719273324	0
3	5473	929302.794348609664	0
3	5499	934982.195630945305	0
3	5507	935293.964409077302	68.520794869609
3	5533	939026.778534844582	0
3	5558	942449.377936966829	0
3	5566	943643.092719214898	0
3	5574	944079.527895883756	0
3	5609	951991.388144151842	0
3	5618	954755.793975536162	0
3	5626	955039.306717135529	0
3	5652	961389.112765233939	0
3	5660	961941.692900268734	0
3	5687	969030.658234629492	0
3	5712	972128.551362134297	63.326790745024
3	5720	974176.044431888225	0
3	5737	976142.591744585505	186.71585944484
3	5762	979519.033757425187	7.216396708562
3	5771	982508.939240274936	0
3	5779	982844.163329069693	45.173846466795
3	5824	998668.660909907254	290.0774643077
3	5833	999368.117753715531	0
3	5841	1000244.519717333384	0
3	5874	1002631.301715368563	0
4	799	146744.297399367421	1
4	804	146849.512927372709	0
4	817	150359.022560679821	1
4	822	150594.139874301387	0
4	829	153650.335875274476	1
4	831	153650.335875274476	0
4	854	158047.599204148222	1
4	856	158047.599204148222	0
4	871	160464.062806078046	1
4	873	160464.062806078046	0
4	893	163375.844438709667	1
4	898	163522.395959113723	0
4	921	166619.517623630586	1
4	923	166619.517623630586	0
4	929	166965.282730115536	1
4	931	166965.282730115536	0
4	937	167501.713420725078	1
4	939	167501.713420725078	0
4	954	168643.767798599692	1
4	956	168643.767798599692	0
4	971	171833.363801225459	1
4	973	171833.363801225459	0
4	995	173385.298497456576	1
4	997	173385.298497456576	0
4	1012	176135.764720747586	1
4	1014	176135.764720747586	0
4	1020	176612.279138747488	1
4	1022	176612.279138747488	0
4	1029	177810.586349566779	1
4	1031	177810.586349566779	0
4	1070	181442.331438304847	1
4	1072	181442.331438304847	0
4	1078	182479.944309810902	1
4	1080	182479.944309810902	0
4	1095	183437.968871687041	1
4	1097	183437.968871687041	0
4	1103	184291.758198630945	1
4	1105	184291.758198630945	0
4	1120	187320.164985589876	1
4	1122	187320.164985589876	0
4	1129	189544.158094217641	1
4	1131	189544.158094217641	0
4	1146	193627.041883867453	1
4	1148	193627.041883867453	0
4	1181	202586.548098593142	1
4	1183	202586.548098593142	0
4	1197	203779.719017984775	1
4	1199	203779.719017984775	0
4	1214	204746.301573601328	1
4	1216	204746.301573601328	0
4	1230	206994.197304240626	1
4	1232	206994.197304240626	0
4	1247	207631.367872806077	1
4	1249	207631.367872806077	0
4	1255	209263.79248603741	1
4	1257	209263.79248603741	0
4	1280	211436.327973062419	1
4	1282	211436.327973062419	0
4	1297	213266.292412742468	1
4	1299	213266.292412742468	0
4	1305	214757.826643293072	1
4	1307	214757.826643293072	0
4	1313	215898.21366966281	1
4	1315	215898.21366966281	0
4	1347	220508.747492462271	1
4	1349	220508.747492462271	0
4	1372	222643.012913826213	1
4	1374	222643.012913826213	0
4	1380	223533.352622598253	1
4	1382	223533.352622598253	0
4	1388	224469.345345999343	1
4	1390	224469.345345999343	0
4	1397	225204.528570715198	1
4	1399	225204.528570715198	0
4	1424	234719.633702331441	1
4	1426	234719.633702331441	0
4	1437	236503.088317584106	1
4	1442	236700.020208592516	0
4	1449	239902.541187807443	1
4	1451	239902.541187807443	0
4	1467	245926.502031839558	1
4	1469	245926.502031839558	0
4	1518	253434.393522466209	1
4	1520	253434.393522466209	0
4	1526	254210.166396864404	1
4	1528	254210.166396864404	0
4	1535	255821.549941852012	1
4	1537	255821.549941852012	0
4	1540	255934.445239061219	1
4	1545	256107.819471460633	0
4	1551	257066.909483102009	1
4	1553	257066.909483102009	0
4	1585	261812.371035498548	1
4	1587	261812.371035498548	0
4	1593	262696.93427840092	1
4	1595	262696.93427840092	0
4	1601	263118.336090805405	1
4	1603	263118.336090805405	0
4	1628	271474.97840927597	1
4	1630	271474.97840927597	0
4	1637	273150.908879764061	1
4	1639	273150.908879764061	0
4	1655	279397.469191030747	1
4	1657	279397.469191030747	0
4	1672	283708.400849362794	1
4	1674	283708.400849362794	0
4	1705	294381.316076399744	1
4	1710	294424.511482626941	0
4	1732	296145.541052305947	1
4	1734	296145.541052305947	0
4	1741	298126.679728128959	1
4	1743	298126.679728128959	0
4	1749	298596.34394898448	1
4	1751	298596.34394898448	0
4	1757	299477.473543559045	1
4	1759	299477.473543559045	0
4	1791	304538.524858248358	1
4	1793	304538.524858248358	0
4	1799	305948.325719477014	1
4	1801	305948.325719477014	0
4	1816	307658.313510223386	1
4	1818	307658.313510223386	0
4	1846	310701.697416815176	1
4	1851	310936.621328975495	0
4	1858	313539.21845651993	1
4	1860	313539.21845651993	0
4	1866	314009.572601814068	1
4	1868	314009.572601814068	0
4	1874	314553.184296554758	1
4	1876	314553.184296554758	0
4	1900	320373.140174069258	1
4	1902	320373.140174069258	0
4	1905	320639.371443942115	1
4	1910	320700.788301637263	0
4	1944	332383.818435824973	1
4	1946	332383.818435824973	0
4	1953	333301.01076314481	1
4	1955	333301.01076314481	0
4	1958	333550.816727884069	1
4	1963	333573.673700491598	0
4	1984	356654.536589178845	1
4	1986	356654.536589178845	0
4	2010	361631.853227496777	1
4	2012	361631.853227496777	0
4	2018	362790.875178012112	1
4	2020	362790.875178012112	0
4	2060	368461.162508872487	1
4	2062	368461.162508872487	0
4	2065	368644.388692847374	1
4	2070	368739.949888692596	0
4	2073	368771.890914513943	1
4	2079	369035.274522202184	0
4	2085	369685.618570242073	1
4	2087	369685.618570242073	0
4	2104	379562.305357776613	1
4	2106	379562.305357776613	0
4	2123	389595.045999609573	1
4	2125	389595.045999609573	0
4	2157	394268.786820438926	1
4	2159	394268.786820438926	0
4	2165	394918.013643166397	1
4	2167	394918.013643166397	0
4	2174	397389.588314116023	1
4	2176	397389.588314116023	0
4	2192	403850.702343498222	1
4	2194	403850.702343498222	0
4	2219	412727.075208364252	1
4	2221	412727.075208364252	0
4	2236	415653.511117435823	1
4	2238	415653.511117435823	0
4	2245	417581.576552211648	1
4	2247	417581.576552211648	0
4	2286	421486.64917285734	1
4	2288	421486.64917285734	0
4	2294	422188.996010967404	1
4	2296	422188.996010967404	0
4	2303	423117.930196730283	1
4	2305	423117.930196730283	0
4	2308	423120.146294593985	1
4	2313	423431.577050625549	0
4	2336	427916.551305267782	1
4	2338	427916.551305267782	0
4	2345	429380.463968169098	1
4	2347	429380.463968169098	0
4	2379	435529.959428780582	1
4	2381	435529.959428780582	0
4	2395	436549.009646917507	1
4	2397	436549.009646917507	0
4	2404	439358.201391537453	1
4	2406	439358.201391537453	0
4	2409	439405.534272293655	1
4	2414	439656.960462820829	0
4	2430	446829.291083614877	1
4	2432	446829.291083614877	0
4	2464	451379.146008049056	1
4	2466	451379.146008049056	0
4	2472	452119.275020413985	1
4	2474	452119.275020413985	0
4	2481	455282.690738446578	1
4	2483	455282.690738446578	0
4	2499	461197.369036620214	1
4	2501	461197.369036620214	0
4	2538	465330.311647287849	1
4	2543	465534.65874888058	0
4	2554	465882.808598062218	1
4	2559	466152.017640261328	0
4	2574	468218.191325552147	1
4	2576	468218.191325552147	0
4	2582	468923.705948486526	1
4	2584	468923.705948486526	0
4	2590	469623.689467831463	1
4	2592	469623.689467831463	0
4	2598	470636.38049071745	1
4	2600	470636.38049071745	0
4	2635	484187.711490167363	1
4	2637	484187.711490167363	0
4	2643	484978.519771780626	1
4	2645	484978.519771780626	0
4	2652	486582.169215188639	1
4	2654	486582.169215188639	0
4	2677	489804.747126743179	1
4	2679	489804.747126743179	0
4	2693	491071.384650545083	1
4	2695	491071.384650545083	0
4	2702	494304.486329730709	1
4	2704	494304.486329730709	0
4	2760	499350.750413519007	1
4	2762	499350.750413519007	0
4	2773	499823.542549894226	1
4	2778	499943.064259121065	0
4	2784	500366.788651834151	1
4	2786	500366.788651834151	0
4	2792	500650.562484615384	1
4	2794	500650.562484615384	0
4	2801	501615.046273104514	1
4	2803	501615.046273104514	0
4	2809	502872.299375543129	1
4	2811	502872.299375543129	0
4	2814	503100.642772807977	1
4	2819	503218.312588252124	0
4	2843	509232.34656773099	1
4	2845	509232.34656773099	0
4	2860	511925.230922267871	1
4	2862	511925.230922267871	0
4	2901	514393.072693547897	1
4	2903	514393.072693547897	0
4	2926	516146.844714782275	1
4	2928	516146.844714782275	0
4	2934	516495.39063027867	1
4	2936	516495.39063027867	0
4	2947	517135.41854281583	1
4	2952	517363.373612862047	0
4	2958	517746.930983361805	1
4	2960	517746.930983361805	0
4	2966	518758.744420191461	1
4	2968	518758.744420191461	0
4	2971	518908.580319081273	1
4	2977	519049.734054963308	0
4	2983	521415.92267247968	1
4	2985	521415.92267247968	0
4	3022	527302.357170340086	1
4	3027	527491.533707245548	0
4	3058	529900.262561288807	1
4	3060	529900.262561288807	0
4	3063	529908.09266985976	1
4	3068	530186.073658462356	0
4	3075	531110.029621389535	1
4	3077	531110.029621389535	0
4	3083	531747.249197949565	1
4	3085	531747.249197949565	0
4	3091	532884.167909430142	1
4	3093	532884.167909430142	0
4	3099	533312.232495197441	1
4	3101	533312.232495197441	0
4	3133	539743.80011498693	1
4	3135	539743.80011498693	0
4	3158	541968.17387676777	1
4	3160	541968.17387676777	0
4	3167	543256.120165244712	1
4	3169	543256.120165244712	0
4	3180	544008.560811119	1
4	3185	544156.506512567997	0
4	3191	544448.491480510437	1
4	3193	544448.491480510437	0
4	3200	547833.970962288112	1
4	3202	547833.970962288112	0
4	3225	551883.460738831208	1
4	3227	551883.460738831208	0
4	3234	553521.505315017836	1
4	3236	553521.505315017836	0
4	3261	562266.517684095117	1
4	3263	562266.517684095117	0
4	3269	562715.240624286354	1
4	3271	562715.240624286354	0
4	3311	568577.736449211826	1
4	3313	568577.736449211826	0
4	3316	568713.984391570519	1
4	3321	568864.858792162158	0
4	3327	569558.62104736282	1
4	3329	569558.62104736282	0
4	3335	569909.364692521234	1
4	3337	569909.364692521234	0
4	3363	580330.995557888663	1
4	3365	580330.995557888663	0
4	3387	581975.797052744618	1
4	3389	581975.797052744618	0
4	3404	584681.580798131668	1
4	3406	584681.580798131668	0
4	3413	585113.264637755976	1
4	3415	585113.264637755976	0
4	3429	586672.603305910587	1
4	3431	586672.603305910587	0
4	3454	589910.678447645035	1
4	3456	589910.678447645035	0
4	3462	590966.549888276402	1
4	3464	590966.549888276402	0
4	3471	592882.466407260202	1
4	3473	592882.466407260202	0
4	3505	598697.796280255347	1
4	3507	598697.796280255347	0
4	3514	601356.646818245564	1
4	3516	601356.646818245564	0
4	3522	602027.832539412783	1
4	3524	602027.832539412783	0
4	3541	609809.535866300248	1
4	3543	609809.535866300248	0
4	3566	614168.651393180031	1
4	3568	614168.651393180031	0
4	3575	616516.028230377744	1
4	3577	616516.028230377744	0
4	3601	622115.927969849864	1
4	3603	622115.927969849864	0
4	3626	625546.251419579176	1
4	3628	625546.251419579176	0
4	3642	626503.317720519607	1
4	3650	626654.139555959877	2
4	3655	626863.790198116863	1
4	3661	627187.551966767262	0
4	3675	629824.537394621046	1
4	3677	629824.537394621046	0
4	3680	629966.410279639073	1
4	3686	630103.998679767149	0
4	3692	632474.447391671351	1
4	3694	632474.447391671351	0
4	3729	645404.781674963799	1
4	3731	645404.781674963799	0
4	3734	645655.142087856107	1
4	3739	645754.885001718347	0
4	3759	648106.796123373695	1
4	3764	648202.726439817893	0
4	3770	649935.136028098244	1
4	3772	649935.136028098244	0
4	3787	651756.267547332374	1
4	3789	651756.267547332374	0
4	3804	654521.728304106461	1
4	3806	654521.728304106461	0
4	3821	657422.141043946444	1
4	3823	657422.141043946444	0
4	3830	660610.177427944336	1
4	3832	660610.177427944336	0
4	3849	669256.381558213488	1
4	3851	669256.381558213488	0
4	3867	676546.747879430118	1
4	3869	676546.747879430118	0
4	3903	688072.19009777361	1
4	3905	688072.19009777361	0
4	3908	688270.981654224257	1
4	3913	688340.450917694297	0
4	3925	691672.129631832663	1
4	3930	691861.141199970026	0
4	3945	695732.549983629865	1
4	3947	695732.549983629865	0
4	3959	697880.983891336102	1
4	3964	698047.470018630666	0
4	3980	702071.180895051086	1
4	3982	702071.180895051086	0
4	3996	703186.230621800268	1
4	3998	703186.230621800268	0
4	4021	706405.207984451759	1
4	4023	706405.207984451759	0
4	4030	708507.064752974184	1
4	4032	708507.064752974184	0
4	4038	709254.048719936757	1
4	4040	709254.048719936757	0
4	4096	715983.585251280355	1
4	4098	715983.585251280355	0
4	4105	717202.422448782111	1
4	4107	717202.422448782111	0
4	4118	717889.793918708155	1
4	4123	717982.771018214742	0
4	4129	718356.11246255821	1
4	4131	718356.11246255821	0
4	4134	718419.9513900267	1
4	4139	718688.895398654381	0
4	4142	718714.189453133945	1
4	4147	718958.991325980532	0
4	4162	722215.905513666022	1
4	4164	722215.905513666022	0
4	4171	725021.050148443181	1
4	4173	725021.050148443181	0
4	4189	729286.323555070272	1
4	4191	729286.323555070272	0
4	4211	734062.060467186162	1
4	4216	734259.936293603604	0
4	4231	737461.000885956004	1
4	4233	737461.000885956004	0
4	4248	740426.214587842116	1
4	4250	740426.214587842116	0
4	4273	743140.685478416959	1
4	4283	743697.627444885616	0
4	4306	746923.132267584876	1
4	4308	746923.132267584876	0
4	4315	747417.384343636945	1
4	4317	747417.384343636945	0
4	4320	747564.697885302779	1
4	4325	747703.358809920921	0
4	4331	749773.165631644023	1
4	4333	749773.165631644023	0
4	4336	749833.899164539709	1
4	4342	750047.224128749617	0
4	4370	754525.591227483472	1
4	4383	754953.152308701058	0
4	4398	757370.875682065996	1
4	4400	757370.875682065996	0
4	4406	758333.031300539451	1
4	4408	758333.031300539451	0
4	4411	758606.09121765455	1
4	4416	758640.513428189309	0
4	4439	759226.076090078656	1
4	4449	759823.472395742433	0
4	4461	762851.915085294114	1
4	4464	762890.956467019269	2
4	4469	763094.362467603042	1
4	4474	763382.613785305145	0
4	4477	763427.721726726883	1
4	4482	763672.760345944173	0
4	4497	766996.984799910294	1
4	4499	766996.984799910294	0
4	4514	770527.860066957272	1
4	4516	770527.860066957272	0
4	4519	770664.717752791544	1
4	4524	770811.469294026165	0
4	4540	775822.58673237054	1
4	4542	775822.58673237054	0
4	4566	781740.125889003694	1
4	4568	781740.125889003694	0
4	4591	783867.026726703526	1
4	4593	783867.026726703526	0
4	4608	786181.676706512269	1
4	4610	786181.676706512269	0
4	4624	787320.97451869158	1
4	4626	787320.97451869158	0
4	4637	788231.94658266186	1
4	4642	788470.155381497442	0
4	4657	789959.538492347664	1
4	4659	789959.538492347664	0
4	4674	792156.944961205144	1
4	4676	792156.944961205144	0
4	4687	792872.724766228419	1
4	4692	792908.868502203812	0
4	4707	795335.938041073269	1
4	4709	795335.938041073269	0
4	4715	796398.877313661202	1
4	4717	796398.877313661202	0
4	4723	797983.523822696766	1
4	4725	797983.523822696766	0
4	4754	803893.961463168006	1
4	4776	804819.797412250096	0
4	4790	806787.215176362317	1
4	4792	806787.215176362317	0
4	4799	807766.272400986407	1
4	4801	807766.272400986407	0
4	4804	807777.436804109636	1
4	4809	808073.765299320671	0
4	4812	808152.962269014312	1
4	4817	808385.621370765568	0
4	4823	809564.889171353762	1
4	4825	809564.889171353762	0
4	4841	814372.209204255216	1
4	4843	814372.209204255216	0
4	4875	820454.793856340343	1
4	4877	820454.793856340343	0
4	4884	823197.529014723846	1
4	4886	823197.529014723846	0
4	4892	823604.240180258192	1
4	4894	823604.240180258192	0
4	4926	828695.968586540489	1
4	4928	828695.968586540489	0
4	4934	829354.879210582947	1
4	4936	829354.879210582947	0
4	4950	830838.281260040925	1
4	4952	830838.281260040925	0
4	4967	833295.912648856426	1
4	4969	833295.912648856426	0
4	4976	835122.954934684623	1
4	4978	835122.954934684623	0
4	5002	841979.871747757757	1
4	5004	841979.871747757757	0
4	5010	842539.621913150776	1
4	5012	842539.621913150776	0
4	5034	849100.630043424089	1
4	5039	849345.8370256058	0
4	5046	852206.84808042775	1
4	5048	852206.84808042775	0
4	5080	858671.171963883228	1
4	5082	858671.171963883228	0
4	5088	859873.205327475141	1
4	5090	859873.205327475141	0
4	5097	861251.570864874097	1
4	5099	861251.570864874097	0
4	5130	866366.126899945901	1
4	5132	866366.126899945901	0
4	5138	866844.45164746791	1
4	5140	866844.45164746791	0
4	5147	869081.010203077237	1
4	5149	869081.010203077237	0
4	5182	876699.566522256643	1
4	5184	876699.566522256643	0
4	5187	876826.225024908359	1
4	5192	876933.558088199842	0
4	5198	878188.040790618767	1
4	5200	878188.040790618767	0
4	5232	884115.529740690184	1
4	5234	884115.529740690184	0
4	5237	884202.749658791431	1
4	5242	884412.21890064044	0
4	5249	886050.40469178244	1
4	5251	886050.40469178244	0
4	5267	891633.946363357616	1
4	5269	891633.946363357616	0
4	5293	897850.683774722008	1
4	5295	897850.683774722008	0
4	5309	899942.764663641342	1
4	5311	899942.764663641342	0
4	5327	903033.018182443621	1
4	5329	903033.018182443621	0
4	5335	903661.737605393165	1
4	5337	903661.737605393165	0
4	5360	907512.115456227726	1
4	5362	907512.115456227726	0
4	5369	910625.194585357919	1
4	5371	910625.194585357919	0
4	5386	914892.830275594441	1
4	5388	914892.830275594441	0
4	5404	920514.471870636659	1
4	5406	920514.471870636659	0
4	5430	924397.185726018266	1
4	5432	924397.185726018266	0
4	5438	924975.490327007877	1
4	5440	924975.490327007877	0
4	5463	928748.048719273324	1
4	5465	928748.048719273324	0
4	5471	929302.794348609664	1
4	5473	929302.794348609664	0
4	5497	934982.195630945305	1
4	5499	934982.195630945305	0
4	5502	935225.443614207693	1
4	5507	935293.964409077302	0
4	5531	939026.778534844582	1
4	5533	939026.778534844582	0
4	5556	942449.377936966829	1
4	5558	942449.377936966829	0
4	5564	943643.092719214898	1
4	5566	943643.092719214898	0
4	5572	944079.527895883756	1
4	5574	944079.527895883756	0
4	5607	951991.388144151842	1
4	5609	951991.388144151842	0
4	5616	954755.793975536162	1
4	5618	954755.793975536162	0
4	5624	955039.306717135529	1
4	5626	955039.306717135529	0
4	5650	961389.112765233939	1
4	5652	961389.112765233939	0
4	5658	961941.692900268734	1
4	5660	961941.692900268734	0
4	5685	969030.658234629492	1
4	5687	969030.658234629492	0
4	5707	972065.224571389273	1
4	5712	972128.551362134297	0
4	5718	974176.044431888225	1
4	5720	974176.044431888225	0
4	5732	975955.875885140665	1
4	5737	976142.591744585505	0
4	5757	979511.817360716625	1
4	5762	979519.033757425187	0
4	5769	982508.939240274936	1
4	5771	982508.939240274936	0
4	5774	982798.989482602898	1
4	5779	982844.163329069693	0
4	5819	998378.583445599553	1
4	5824	998668.660909907254	0
4	5831	999368.117753715531	1
4	5833	999368.117753715531	0
4	5839	1000244.519717333384	1
4	5841	1000244.519717333384	0
4	5872	1002631.301715368563	1
4	5874	1002631.301715368563	0
5	783	141000	0
5	792	144000	1
5	806	147000	1
5	810	150000	0
5	827	153000	1
5	844	156000	1
5	861	159000	1
5	878	162000	1
5	919	165000	4
5	944	168000	0
5	969	171000	2
5	1007	174000	2
5	1027	177000	1
5	1060	180000	3
5	1090	183000	1
5	1115	186000	1
5	1127	189000	1
5	1144	192000	1
5	1153	195000	0
5	1154	198000	0
5	1179	201000	3
5	1201	204000	1
5	1234	207000	2
5	1267	210000	1
5	1295	213000	3
5	1317	216000	0
5	1337	219000	2
5	1370	222000	3
5	1395	225000	0
5	1404	228000	0
5	1413	231000	1
5	1422	234000	1
5	1447	237000	1
5	1453	240000	0
5	1465	243000	1
5	1471	246000	0
5	1475	249000	0
5	1500	252000	3
5	1533	255000	2
5	1558	258000	0
5	1583	261000	3
5	1608	264000	0
5	1609	267000	0
5	1626	270000	2
5	1635	273000	0
5	1652	276000	1
5	1653	279000	0
5	1670	282000	1
5	1679	285000	0
5	1680	288000	0
5	1689	291000	1
5	1698	294000	1
5	1739	297000	3
5	1764	300000	0
5	1781	303000	2
5	1803	306000	1
5	1823	309000	1
5	1856	312000	3
5	1881	315000	0
5	1898	318000	2
5	1915	321000	0
5	1916	324000	0
5	1917	327000	0
5	1939	330000	2
5	1951	333000	1
5	1968	336000	0
5	1969	339000	0
5	1970	342000	0
5	1971	345000	0
5	1972	348000	0
5	1973	351000	0
5	1982	354000	1
5	1991	357000	0
5	2008	360000	2
5	2022	363000	0
5	2058	366000	4
5	2075	369000	0
5	2092	372000	0
5	2093	375000	0
5	2102	378000	1
5	2111	381000	0
5	2112	384000	0
5	2121	387000	1
5	2130	390000	0
5	2147	393000	2
5	2172	396000	1
5	2181	399000	0
5	2190	402000	1
5	2199	405000	0
5	2200	408000	0
5	2209	411000	1
5	2226	414000	1
5	2243	417000	1
5	2284	420000	4
5	2301	423000	0
5	2334	426000	2
5	2343	429000	0
5	2357	432000	0
5	2374	435000	2
5	2402	438000	2
5	2419	441000	0
5	2428	444000	1
5	2434	447000	0
5	2454	450000	2
5	2479	453000	1
5	2488	456000	0
5	2497	459000	1
5	2514	462000	1
5	2528	465000	1
5	2572	468000	4
5	2605	471000	0
5	2606	474000	0
5	2607	477000	0
5	2608	480000	0
5	2633	483000	3
5	2650	486000	0
5	2675	489000	2
5	2700	492000	1
5	2709	495000	0
5	2750	498000	5
5	2796	501000	2
5	2824	504000	0
5	2833	507000	1
5	2850	510000	1
5	2880	513000	2
5	2924	516000	5
5	2973	519000	1
5	2990	522000	0
5	2999	525000	1
5	3037	528000	3
5	3073	531000	3
5	3106	534000	0
5	3115	537000	1
5	3137	540000	2
5	3165	543000	2
5	3198	546000	1
5	3212	549000	0
5	3229	552000	2
5	3241	555000	0
5	3250	558000	1
5	3259	561000	1
5	3276	564000	0
5	3309	567000	4
5	3339	570000	0
5	3343	573000	0
5	3344	576000	0
5	3361	579000	2
5	3391	582000	2
5	3411	585000	1
5	3444	588000	2
5	3466	591000	1
5	3478	594000	0
5	3487	597000	1
5	3512	600000	2
5	3529	603000	0
5	3530	606000	0
5	3539	609000	1
5	3556	612000	1
5	3573	615000	1
5	3587	618000	0
5	3591	621000	1
5	3624	624000	3
5	3657	627000	2
5	3682	630000	1
5	3699	633000	0
5	3700	636000	0
5	3701	639000	0
5	3715	642000	1
5	3727	645000	2
5	3757	648000	1
5	3785	651000	2
5	3799	654000	0
5	3819	657000	2
5	3828	660000	0
5	3837	663000	0
5	3843	666000	0
5	3847	669000	1
5	3856	672000	0
5	3865	675000	1
5	3874	678000	0
5	3875	681000	0
5	3876	684000	0
5	3893	687000	2
5	3918	690000	1
5	3935	693000	1
5	3952	696000	1
5	3969	699000	1
5	3978	702000	1
5	4011	705000	2
5	4028	708000	1
5	4045	711000	0
5	4070	714000	3
5	4103	717000	3
5	4152	720000	1
5	4169	723000	1
5	4186	726000	1
5	4187	729000	0
5	4204	732000	1
5	4221	735000	1
5	4238	738000	1
5	4255	741000	1
5	4285	744000	3
5	4310	747000	2
5	4338	750000	0
5	4355	753000	1
5	4396	756000	4
5	4429	759000	0
5	4454	762000	3
5	4487	765000	1
5	4512	768000	2
5	4526	771000	0
5	4538	774000	1
5	4547	777000	0
5	4556	780000	1
5	4581	783000	2
5	4606	786000	2
5	4652	789000	2
5	4672	792000	2
5	4705	795000	2
5	4727	798000	0
5	4739	801000	1
5	4756	804000	1
5	4794	807000	4
5	4830	810000	0
5	4839	813000	1
5	4848	816000	0
5	4857	819000	1
5	4882	822000	2
5	4904	825000	0
5	4924	828000	3
5	4954	831000	1
5	4974	834000	1
5	4983	837000	0
5	5000	840000	2
5	5017	843000	0
5	5026	846000	1
5	5027	849000	0
5	5044	852000	1
5	5058	855000	0
5	5078	858000	3
5	5095	861000	0
5	5120	864000	2
5	5142	867000	1
5	5154	870000	0
5	5160	873000	0
5	5180	876000	3
5	5205	879000	0
5	5227	882000	2
5	5247	885000	1
5	5264	888000	1
5	5265	891000	0
5	5282	894000	1
5	5291	897000	1
5	5313	900000	1
5	5325	903000	1
5	5350	906000	1
5	5367	909000	1
5	5384	912000	1
5	5390	915000	0
5	5402	918000	1
5	5419	921000	0
5	5428	924000	2
5	5461	927000	2
5	5478	930000	0
5	5495	933000	2
5	5520	936000	1
5	5529	939000	1
5	5554	942000	2
5	5579	945000	0
5	5588	948000	1
5	5589	951000	0
5	5614	954000	2
5	5631	957000	0
5	5648	960000	2
5	5665	963000	0
5	5674	966000	1
5	5683	969000	1
5	5705	972000	1
5	5725	975000	1
5	5742	978000	1
5	5767	981000	2
5	5784	984000	0
5	5785	987000	0
5	5786	990000	0
5	5787	993000	0
5	5809	996000	2
5	5829	999000	2
5	5862	1002000	1
6	783	141000	3
6	792	144000	0
6	806	147000	0
6	810	150000	1
6	827	153000	1
6	844	156000	1
6	861	159000	1
6	878	162000	1
6	919	165000	1
6	944	168000	3
6	969	171000	1
6	1007	174000	2
6	1027	177000	2
6	1060	180000	1
6	1090	183000	2
6	1115	186000	2
6	1127	189000	1
6	1144	192000	1
6	1153	195000	1
6	1154	198000	0
6	1179	201000	0
6	1201	204000	1
6	1234	207000	2
6	1267	210000	3
6	1295	213000	1
6	1317	216000	2
6	1337	219000	1
6	1370	222000	1
6	1395	225000	3
6	1404	228000	1
6	1413	231000	0
6	1422	234000	0
6	1447	237000	2
6	1453	240000	0
6	1465	243000	1
6	1471	246000	0
6	1475	249000	1
6	1500	252000	0
6	1533	255000	2
6	1558	258000	3
6	1583	261000	0
6	1608	264000	3
6	1609	267000	0
6	1626	270000	0
6	1635	273000	1
6	1652	276000	1
6	1653	279000	0
6	1670	282000	1
6	1679	285000	1
6	1680	288000	0
6	1689	291000	0
6	1698	294000	0
6	1739	297000	2
6	1764	300000	3
6	1781	303000	0
6	1803	306000	1
6	1823	309000	2
6	1856	312000	1
6	1881	315000	3
6	1898	318000	0
6	1915	321000	2
6	1916	324000	0
6	1917	327000	0
6	1939	330000	0
6	1951	333000	1
6	1968	336000	2
6	1969	339000	0
6	1970	342000	0
6	1971	345000	0
6	1972	348000	0
6	1973	351000	0
6	1982	354000	0
6	1991	357000	1
6	2008	360000	0
6	2022	363000	1
6	2058	366000	1
6	2075	369000	1
6	2092	372000	3
6	2093	375000	0
6	2102	378000	0
6	2111	381000	1
6	2112	384000	0
6	2121	387000	0
6	2130	390000	1
6	2147	393000	0
6	2172	396000	2
6	2181	399000	1
6	2190	402000	0
6	2199	405000	1
6	2200	408000	0
6	2209	411000	0
6	2226	414000	1
6	2243	417000	1
6	2284	420000	1
6	2301	423000	2
6	2334	426000	2
6	2343	429000	1
6	2357	432000	1
6	2374	435000	0
6	2402	438000	2
6	2419	441000	2
6	2428	444000	0
6	2434	447000	0
6	2454	450000	1
6	2479	453000	2
6	2488	456000	1
6	2497	459000	0
6	2514	462000	1
6	2528	465000	0
6	2572	468000	2
6	2605	471000	4
6	2606	474000	0
6	2607	477000	0
6	2608	480000	0
6	2633	483000	0
6	2650	486000	2
6	2675	489000	1
6	2700	492000	2
6	2709	495000	1
6	2750	498000	0
6	2796	501000	3
6	2824	504000	4
6	2833	507000	0
6	2850	510000	1
6	2880	513000	1
6	2924	516000	1
6	2973	519000	4
6	2990	522000	3
6	2999	525000	0
6	3037	528000	1
6	3073	531000	2
6	3106	534000	4
6	3115	537000	0
6	3137	540000	0
6	3165	543000	2
6	3198	546000	3
6	3212	549000	1
6	3229	552000	0
6	3241	555000	2
6	3250	558000	0
6	3259	561000	0
6	3276	564000	2
6	3309	567000	0
6	3339	570000	3
6	3343	573000	1
6	3344	576000	0
6	3361	579000	0
6	3391	582000	1
6	3411	585000	2
6	3444	588000	2
6	3466	591000	1
6	3478	594000	2
6	3487	597000	0
6	3512	600000	1
6	3529	603000	2
6	3530	606000	0
6	3539	609000	0
6	3556	612000	1
6	3573	615000	1
6	3587	618000	1
6	3591	621000	0
6	3624	624000	1
6	3657	627000	1
6	3682	630000	2
6	3699	633000	3
6	3700	636000	0
6	3701	639000	0
6	3715	642000	0
6	3727	645000	0
6	3757	648000	2
6	3785	651000	2
6	3799	654000	1
6	3819	657000	1
6	3828	660000	1
6	3837	663000	1
6	3843	666000	0
6	3847	669000	0
6	3856	672000	1
6	3865	675000	0
6	3874	678000	1
6	3875	681000	0
6	3876	684000	0
6	3893	687000	0
6	3918	690000	2
6	3935	693000	1
6	3952	696000	1
6	3969	699000	1
6	3978	702000	0
6	4011	705000	2
6	4028	708000	1
6	4045	711000	2
6	4070	714000	0
6	4103	717000	1
6	4152	720000	5
6	4169	723000	1
6	4186	726000	1
6	4187	729000	0
6	4204	732000	1
6	4221	735000	1
6	4238	738000	1
6	4255	741000	1
6	4285	744000	0
6	4310	747000	1
6	4338	750000	3
6	4355	753000	2
6	4396	756000	1
6	4429	759000	3
6	4454	762000	1
6	4487	765000	3
6	4512	768000	1
6	4526	771000	1
6	4538	774000	1
6	4547	777000	1
6	4556	780000	0
6	4581	783000	1
6	4606	786000	1
6	4652	789000	3
6	4672	792000	1
6	4705	795000	2
6	4727	798000	2
6	4739	801000	1
6	4756	804000	0
6	4794	807000	1
6	4830	810000	5
6	4839	813000	0
6	4848	816000	1
6	4857	819000	0
6	4882	822000	1
6	4904	825000	2
6	4924	828000	0
6	4954	831000	2
6	4974	834000	2
6	4983	837000	1
6	5000	840000	0
6	5017	843000	2
6	5026	846000	0
6	5027	849000	0
6	5044	852000	1
6	5058	855000	1
6	5078	858000	0
6	5095	861000	2
6	5120	864000	1
6	5142	867000	1
6	5154	870000	2
6	5160	873000	0
6	5180	876000	0
6	5205	879000	3
6	5227	882000	0
6	5247	885000	2
6	5264	888000	1
6	5265	891000	0
6	5282	894000	1
6	5291	897000	0
6	5313	900000	1
6	5325	903000	1
6	5350	906000	2
6	5367	909000	1
6	5384	912000	1
6	5390	915000	0
6	5402	918000	1
6	5419	921000	1
6	5428	924000	0
6	5461	927000	2
6	5478	930000	2
6	5495	933000	0
6	5520	936000	2
6	5529	939000	0
6	5554	942000	1
6	5579	945000	3
6	5588	948000	0
6	5589	951000	0
6	5614	954000	1
6	5631	957000	2
6	5648	960000	0
6	5665	963000	2
6	5674	966000	0
6	5683	969000	0
6	5705	972000	1
6	5725	975000	2
6	5742	978000	1
6	5767	981000	1
6	5784	984000	2
6	5785	987000	0
6	5786	990000	0
6	5787	993000	0
6	5809	996000	0
6	5829	999000	1
6	5862	1002000	2
7	790	143080.601739894887	1
7	798	146744.297399367421	0
7	802	146849.512927372709	1
7	816	150359.022560679821	0
7	820	150594.139874301387	1
7	828	153650.335875274476	0
7	842	154430.663579047907	1
7	851	156458.247648526113	2
7	853	158047.599204148222	1
7	868	160096.919411689522	2
7	870	160464.062806078046	1
7	885	162855.732499400582	2
7	892	163375.844438709667	1
7	896	163522.395959113723	2
7	909	164133.091196770713	3
7	917	164681.657896446248	4
7	920	166619.517623630586	3
7	928	166965.282730115536	2
7	936	167501.713420725078	1
7	951	168411.925551402418	2
7	953	168643.767798599692	1
7	967	170139.424646518965	2
7	970	171833.363801225459	1
7	987	172723.237496510142	2
7	992	173026.535196918304	3
7	994	173385.298497456576	2
7	1009	174110.595854275887	3
7	1011	176135.764720747586	2
7	1019	176612.279138747488	1
7	1028	177810.586349566779	0
7	1045	178305.363373096546	1
7	1050	178661.233644339396	2
7	1058	178976.659502168741	3
7	1067	180921.644256978746	4
7	1069	181442.331438304847	3
7	1077	182479.944309810902	2
7	1092	183147.982023319685	3
7	1094	183437.968871687041	2
7	1102	184291.758198630945	1
7	1117	186178.407419319418	2
7	1119	187320.164985589876	1
7	1128	189544.158094217641	0
7	1142	190086.528588180173	1
7	1145	193627.041883867453	0
7	1161	198789.804068457677	1
7	1169	200398.07785560209	2
7	1177	200817.155782884343	3
7	1180	202586.548098593142	2
7	1194	203253.553850897816	3
7	1196	203779.719017984775	2
7	1211	204693.631711056773	3
7	1213	204746.301573601328	2
7	1227	205491.083728516998	3
7	1229	206994.197304240626	2
7	1244	207610.625452875399	3
7	1246	207631.367872806077	2
7	1254	209263.79248603741	1
7	1269	210174.595162563173	2
7	1277	210829.441392149691	3
7	1279	211436.327973062419	2
7	1293	212107.841299587936	3
7	1296	213266.292412742468	2
7	1304	214757.826643293072	1
7	1312	215898.21366966281	0
7	1327	217841.809976348267	1
7	1335	218995.771011321733	2
7	1344	219830.503089462441	3
7	1346	220508.747492462271	2
7	1360	221212.636402060653	3
7	1368	221693.784607360982	4
7	1371	222643.012913826213	3
7	1379	223533.352622598253	2
7	1387	224469.345345999343	1
7	1396	225204.528570715198	0
7	1411	230618.054366122589	1
7	1420	233201.078112467212	2
7	1423	234719.633702331441	1
7	1436	236503.088317584106	0
7	1440	236700.020208592516	1
7	1448	239902.541187807443	0
7	1463	242824.786113449226	1
7	1466	245926.502031839558	0
7	1482	250109.583331014283	1
7	1490	250666.931764171406	2
7	1498	251971.801444881601	3
7	1507	252677.453787588587	4
7	1515	253355.775513926499	5
7	1517	253434.393522466209	4
7	1525	254210.166396864404	3
7	1534	255821.549941852012	2
7	1539	255934.445239061219	1
7	1550	257066.909483102009	0
7	1565	258775.207173595884	1
7	1576	259173.533050163541	2
7	1581	259476.104428886177	3
7	1584	261812.371035498548	2
7	1592	262696.93427840092	1
7	1600	263118.336090805405	0
7	1616	267962.36089371459	1
7	1624	269319.759079689173	2
7	1627	271474.97840927597	1
7	1636	273150.908879764061	0
7	1650	275677.643561892157	1
7	1654	279397.469191030747	0
7	1668	280476.612151727341	1
7	1671	283708.400849362794	0
7	1687	290899.80203267334	1
7	1696	292448.3170638816	2
7	1704	294381.316076399744	1
7	1708	294424.511482626941	2
7	1721	294939.053279184621	3
7	1729	295791.41018382024	4
7	1731	296145.541052305947	3
7	1740	298126.679728128959	2
7	1748	298596.34394898448	1
7	1756	299477.473543559045	0
7	1771	300816.957202665731	1
7	1779	302768.034542781681	2
7	1788	304076.734507810618	3
7	1790	304538.524858248358	2
7	1798	305948.325719477014	1
7	1813	307416.983293397328	2
7	1815	307658.313510223386	1
7	1833	309781.337259405998	2
7	1838	310071.511342083998	3
7	1845	310701.697416815176	2
7	1849	310936.621328975495	3
7	1857	313539.21845651993	2
7	1865	314009.572601814068	1
7	1873	314553.184296554758	0
7	1888	316140.113346970872	1
7	1896	317211.743303636479	2
7	1899	320373.140174069258	1
7	1904	320639.371443942115	0
7	1924	328527.270879575071	1
7	1935	329754.460800730914	2
7	1941	330083.404857632483	3
7	1943	332383.818435824973	2
7	1952	333301.01076314481	1
7	1957	333550.816727884069	0
7	1980	352989.633765780572	1
7	1983	356654.536589178845	0
7	1998	357757.521522080272	1
7	2006	359333.991387683757	2
7	2009	361631.853227496777	1
7	2017	362790.875178012112	0
7	2035	364966.193588317001	1
7	2046	365262.868507636106	2
7	2051	365578.528225133388	3
7	2056	365908.362361101024	4
7	2059	368461.162508872487	3
7	2064	368644.388692847374	2
7	2072	368771.890914513943	1
7	2084	369685.618570242073	0
7	2100	375622.345171148059	1
7	2103	379562.305357776613	0
7	2119	386042.611808212822	1
7	2122	389595.045999609573	0
7	2137	390941.171046753188	1
7	2145	391553.662867775466	2
7	2154	393845.83207516658	3
7	2156	394268.786820438926	2
7	2164	394918.013643166397	1
7	2173	397389.588314116023	0
7	2188	399886.346678284756	1
7	2191	403850.702343498222	0
7	2207	409363.983987562659	1
7	2216	412604.434266732194	2
7	2218	412727.075208364252	1
7	2233	414577.453512408295	2
7	2235	415653.511117435823	1
7	2244	417581.576552211648	0
7	2258	418263.478122922613	1
7	2266	418779.105783011389	2
7	2277	419439.44058207788	3
7	2282	419718.666072676781	4
7	2285	421486.64917285734	3
7	2293	422188.996010967404	2
7	2302	423117.930196730283	1
7	2307	423120.146294593985	0
7	2324	424812.694731901701	1
7	2332	425455.045936069379	2
7	2335	427916.551305267782	1
7	2344	429380.463968169098	0
7	2359	432117.608254297129	1
7	2367	432527.3625611629	2
7	2376	435043.620339078649	3
7	2378	435529.959428780582	2
7	2392	436154.975098409113	3
7	2394	436549.009646917507	2
7	2403	439358.201391537453	1
7	2408	439405.534272293655	0
7	2426	443044.737405374196	1
7	2429	446829.291083614877	0
7	2444	447798.96326710339	1
7	2452	449037.61037434765	2
7	2461	450634.3112754292	3
7	2463	451379.146008049056	2
7	2471	452119.275020413985	1
7	2480	455282.690738446578	0
7	2495	457286.500341893846	1
7	2498	461197.369036620214	0
7	2512	461958.84192590079	1
7	2521	462721.611494206582	2
7	2533	465208.989453732196	3
7	2537	465330.311647287849	2
7	2541	465534.65874888058	3
7	2553	465882.808598062218	2
7	2557	466152.017640261328	3
7	2570	467283.028972490663	4
7	2573	468218.191325552147	3
7	2581	468923.705948486526	2
7	2589	469623.689467831463	1
7	2597	470636.38049071745	0
7	2615	481060.56605470363	1
7	2623	481490.858508636271	2
7	2631	482729.452177149437	3
7	2634	484187.711490167363	2
7	2642	484978.519771780626	1
7	2651	486582.169215188639	0
7	2665	487128.875503233763	1
7	2673	487679.988964759277	2
7	2676	489804.747126743179	1
7	2690	490827.058515928074	2
7	2692	491071.384650545083	1
7	2701	494304.486329730709	0
7	2719	495819.11183675749	1
7	2724	496131.512163692354	2
7	2735	496743.341257707116	3
7	2740	497025.490248558944	4
7	2748	497985.710546303458	5
7	2757	499310.493964746272	6
7	2759	499350.750413519007	5
7	2772	499823.542549894226	4
7	2776	499943.064259121065	5
7	2783	500366.788651834151	4
7	2791	500650.562484615384	3
7	2800	501615.046273104514	2
7	2808	502872.299375543129	1
7	2813	503100.642772807977	0
7	2831	505396.998509740666	1
7	2840	508621.69501241514	2
7	2842	509232.34656773099	1
7	2857	511186.529465562967	2
7	2859	511925.230922267871	1
7	2873	512509.832171222425	2
7	2882	513117.357520841383	3
7	2893	513865.026381169594	4
7	2898	514198.114821213877	5
7	2900	514393.072693547897	4
7	2914	514922.410129129683	5
7	2922	515958.430398647802	6
7	2925	516146.844714782275	5
7	2933	516495.39063027867	4
7	2946	517135.41854281583	3
7	2950	517363.373612862047	4
7	2957	517746.930983361805	3
7	2965	518758.744420191461	2
7	2970	518908.580319081273	1
7	2982	521415.92267247968	0
7	2997	523885.254207832135	1
7	3009	525697.197119907465	2
7	3014	526031.216580009769	3
7	3021	527302.357170340086	2
7	3025	527491.533707245548	3
7	3039	528129.403581817966	4
7	3047	528997.273921272448	5
7	3055	529552.862971070427	6
7	3057	529900.262561288807	5
7	3062	529908.09266985976	4
7	3074	531110.029621389535	3
7	3082	531747.249197949565	2
7	3090	532884.167909430142	1
7	3098	533312.232495197441	0
7	3113	536193.35190057306	1
7	3122	538846.216165332432	2
7	3130	539173.404162701659	3
7	3132	539743.80011498693	2
7	3147	540254.373705184999	3
7	3155	540921.114183897139	4
7	3157	541968.17387676777	3
7	3166	543256.120165244712	2
7	3179	544008.560811119	1
7	3183	544156.506512567997	2
7	3190	544448.491480510437	1
7	3199	547833.970962288112	0
7	3214	549069.353398805708	1
7	3222	550223.484123792422	2
7	3224	551883.460738831208	1
7	3233	553521.505315017836	0
7	3248	557816.151036285266	1
7	3257	559074.187658055703	2
7	3260	562266.517684095117	1
7	3268	562715.240624286354	0
7	3283	564890.185522454757	1
7	3291	565340.301064251771	2
7	3299	565796.492846423761	3
7	3307	566101.243297216156	4
7	3310	568577.736449211826	3
7	3315	568713.984391570519	2
7	3326	569558.62104736282	1
7	3334	569909.364692521234	0
7	3351	576345.9239726577	1
7	3359	578175.101401269094	2
7	3362	580330.995557888663	1
7	3379	581477.844595628089	2
7	3384	581806.910470508223	3
7	3386	581975.797052744618	2
7	3401	582938.975122469716	3
7	3403	584681.580798131668	2
7	3412	585113.264637755976	1
7	3426	586169.650884541374	2
7	3428	586672.603305910587	1
7	3442	587355.386874926582	2
7	3451	589021.677084492695	3
7	3453	589910.678447645035	2
7	3461	590966.549888276402	1
7	3470	592882.466407260202	0
7	3485	595043.290543163596	1
7	3494	597450.567913462238	2
7	3502	598408.396580036655	3
7	3504	598697.796280255347	2
7	3513	601356.646818245564	1
7	3521	602027.832539412783	0
7	3537	606384.605174777296	1
7	3540	609809.535866300248	0
7	3554	610467.735987610202	1
7	3563	613206.137281775216	2
7	3565	614168.651393180031	1
7	3574	616516.028230377744	0
7	3589	618055.455365051585	1
7	3598	621369.25225665093	2
7	3600	622115.927969849864	1
7	3614	622703.161462878596	2
7	3622	623063.250517892628	3
7	3625	625546.251419579176	2
7	3641	626503.317720519607	1
7	3645	626618.216384029807	2
7	3649	626654.139555959877	1
7	3653	626863.790198116863	2
7	3672	628928.017899070287	3
7	3674	629824.537394621046	2
7	3679	629966.410279639073	1
7	3691	632474.447391671351	0
7	3711	641927.918790988056	1
7	3717	642210.366338958293	2
7	3725	644931.584030223693	3
7	3728	645404.781674963799	2
7	3733	645655.142087856107	1
7	3750	646374.939382895396	2
7	3758	648106.796123373695	1
7	3762	648202.726439817893	2
7	3769	649935.136028098244	1
7	3783	650577.925416340529	2
7	3786	651756.267547332374	1
7	3801	654205.523430872512	2
7	3803	654521.728304106461	1
7	3817	656958.472524831407	2
7	3820	657422.141043946444	1
7	3829	660610.177427944336	0
7	3845	666109.155889961321	1
7	3848	669256.381558213488	0
7	3863	672760.114041912182	1
7	3866	676546.747879430118	0
7	3886	684814.439604376338	1
7	3891	685122.867401028567	2
7	3900	687465.39787229727	3
7	3902	688072.19009777361	2
7	3907	688270.981654224257	1
7	3924	691672.129631832663	0
7	3928	691861.141199970026	1
7	3942	694000.084155188685	2
7	3944	695732.549983629865	1
7	3958	697880.983891336102	0
7	3962	698047.470018630666	1
7	3976	700066.681503184708	2
7	3979	702071.180895051086	1
7	3993	702653.27215983792	2
7	3995	703186.230621800268	1
7	4009	704990.347855401341	2
7	4018	705481.856487321178	3
7	4020	706405.207984451759	2
7	4029	708507.064752974184	1
7	4037	709254.048719936757	0
7	4052	712943.677503901995	1
7	4063	713595.141128098222	2
7	4068	713918.600957781199	3
7	4077	714784.232902121024	4
7	4088	715130.499533280307	5
7	4093	715435.711222431131	6
7	4095	715983.585251280355	5
7	4104	717202.422448782111	4
7	4117	717889.793918708155	3
7	4121	717982.771018214742	4
7	4128	718356.11246255821	3
7	4133	718419.9513900267	2
7	4141	718714.189453133945	1
7	4159	721332.234708363979	2
7	4161	722215.905513666022	1
7	4170	725021.050148443181	0
7	4184	725531.949805193032	1
7	4188	729286.323555070272	0
7	4202	730974.632796791432	1
7	4210	734062.060467186162	0
7	4214	734259.936293603604	1
7	4228	737401.180644990635	2
7	4230	737461.000885956004	1
7	4245	739633.169608455351	2
7	4247	740426.214587842116	1
7	4268	743140.119358605665	2
7	4272	743140.685478416959	1
7	4276	743430.089075202003	2
7	4281	743697.627444885616	3
7	4295	745772.212144352217	4
7	4303	746876.771199156094	5
7	4305	746923.132267584876	4
7	4314	747417.384343636945	3
7	4319	747564.697885302779	2
7	4330	749773.165631644023	1
7	4335	749833.899164539709	0
7	4353	751135.848055411965	1
7	4362	754031.188996906135	2
7	4369	754525.591227483472	1
7	4376	754697.184379257141	2
7	4381	754953.152308701058	3
7	4394	755574.997136250249	4
7	4397	757370.875682065996	3
7	4405	758333.031300539451	2
7	4410	758606.09121765455	1
7	4434	759202.160081591834	2
7	4438	759226.076090078656	1
7	4442	759502.390590637109	2
7	4447	759823.472395742433	3
7	4460	762851.915085294114	2
7	4463	762890.956467019269	1
7	4467	763094.362467603042	2
7	4476	763427.721726726883	1
7	4494	766619.820785355805	2
7	4496	766996.984799910294	1
7	4510	767563.342111234567	2
7	4513	770527.860066957272	1
7	4518	770664.717752791544	0
7	4536	772184.410285568669	1
7	4539	775822.58673237054	0
7	4554	777588.203476327572	1
7	4563	780801.804583926334	2
7	4565	781740.125889003694	1
7	4579	782549.477164019104	2
7	4588	783627.036478290054	3
7	4590	783867.026726703526	2
7	4604	784577.645449909521	3
7	4607	786181.676706512269	2
7	4621	786693.991995557707	3
7	4623	787320.97451869158	2
7	4636	788231.94658266186	1
7	4640	788470.155381497442	2
7	4654	789117.72298830022	3
7	4656	789959.538492347664	2
7	4670	791491.471451280369	3
7	4673	792156.944961205144	2
7	4686	792872.724766228419	1
7	4690	792908.868502203812	2
7	4703	794737.572642351844	3
7	4706	795335.938041073269	2
7	4714	796398.877313661202	1
7	4722	797983.523822696766	0
7	4737	800509.730567465847	1
7	4746	803596.996797385673	2
7	4753	803893.961463168006	1
7	4761	804220.114381396941	2
7	4769	804526.474088549653	3
7	4774	804819.797412250096	4
7	4787	805793.08094099062	5
7	4789	806787.215176362317	4
7	4798	807766.272400986407	3
7	4803	807777.436804109636	2
7	4811	808152.962269014312	1
7	4822	809564.889171353762	0
7	4837	810378.106142865958	1
7	4840	814372.209204255216	0
7	4855	816367.814655451484	1
7	4864	819616.918664866793	2
7	4872	820266.425511830334	3
7	4874	820454.793856340343	2
7	4883	823197.529014723846	1
7	4891	823604.240180258192	0
7	4906	825251.553931177508	1
7	4914	826223.080686957014	2
7	4922	827340.549697445351	3
7	4925	828695.968586540489	2
7	4933	829354.879210582947	1
7	4947	830020.125912789689	2
7	4949	830838.281260040925	1
7	4964	831750.195901083308	2
7	4966	833295.912648856426	1
7	4975	835122.954934684623	0
7	4993	838436.165966316151	1
7	4998	838760.984954183904	2
7	5001	841979.871747757757	1
7	5009	842539.621913150776	0
7	5024	845097.769401299353	1
7	5033	849100.630043424089	0
7	5037	849345.8370256058	1
7	5045	852206.84808042775	0
7	5060	855007.26082076148	1
7	5068	855901.326270569353	2
7	5076	857749.318124980596	3
7	5079	858671.171963883228	2
7	5087	859873.205327475141	1
7	5096	861251.570864874097	0
7	5110	862108.359079108657	1
7	5118	863262.495333007692	2
7	5127	865620.623239711117	3
7	5129	866366.126899945901	2
7	5137	866844.45164746791	1
7	5146	869081.010203077237	0
7	5165	873126.62511061174	1
7	5170	873416.466383392701	2
7	5178	873959.266650731602	3
7	5181	876699.566522256643	2
7	5186	876826.225024908359	1
7	5197	878188.040790618767	0
7	5212	880525.977189475791	1
7	5220	880904.456019479513	2
7	5229	882147.516341743522	3
7	5231	884115.529740690184	2
7	5236	884202.749658791431	1
7	5248	886050.40469178244	0
7	5262	887238.487916781279	1
7	5266	891633.946363357616	0
7	5280	893460.614137834056	1
7	5289	896181.969317576609	2
7	5292	897850.683774722008	1
7	5306	899716.788694223469	2
7	5308	899942.764663641342	1
7	5323	900886.609278385787	2
7	5326	903033.018182443621	1
7	5334	903661.737605393165	0
7	5348	904273.460724302152	1
7	5357	907282.841485878852	2
7	5359	907512.115456227726	1
7	5368	910625.194585357919	0
7	5382	911361.688684801982	1
7	5385	914892.830275594441	0
7	5400	917000.900552217897	1
7	5403	920514.471870636659	0
7	5421	921113.976863649117	1
7	5426	921383.147529658849	2
7	5429	924397.185726018266	1
7	5437	924975.490327007877	0
7	5454	925631.224824078151	1
7	5459	925930.336399070711	2
7	5462	928748.048719273324	1
7	5470	929302.794348609664	0
7	5485	930417.392487090455	1
7	5493	931707.882810334502	2
7	5496	934982.195630945305	1
7	5501	935225.443614207693	0
7	5518	935947.156730511201	1
7	5527	938424.595604789785	2
7	5530	939026.778534844582	1
7	5544	940100.228812479472	2
7	5552	940643.126423897549	3
7	5555	942449.377936966829	2
7	5563	943643.092719214898	1
7	5571	944079.527895883756	0
7	5586	947745.374968251085	1
7	5596	951427.296188038288	2
7	5604	951976.467650760455	3
7	5606	951991.388144151842	2
7	5615	954755.793975536162	1
7	5623	955039.306717135529	0
7	5638	958140.390129668651	1
7	5646	959348.451857128645	2
7	5649	961389.112765233939	1
7	5657	961941.692900268734	0
7	5672	965887.728916583557	1
7	5681	968655.653557145409	2
7	5684	969030.658234629492	1
7	5698	970832.015503667562	2
7	5706	972065.224571389273	1
7	5710	972128.551362134297	2
7	5717	974176.044431888225	1
7	5731	975955.875885140665	0
7	5735	976142.591744585505	1
7	5752	979234.794526909994	2
7	5756	979511.817360716625	1
7	5760	979519.033757425187	2
7	5768	982508.939240274936	1
7	5773	982798.989482602898	0
7	5794	994394.856264627469	1
7	5805	995832.895885430689	2
7	5811	996164.936747342837	3
7	5818	998378.583445599553	2
7	5822	998668.660909907254	3
7	5830	999368.117753715531	2
7	5838	1000244.519717333384	1
7	5852	1001501.684235598482	2
7	5864	1002016.0517903409	3
7	5869	1002304.114520222079	4
7	5871	1002631.301715368563	3
