version 2
run ResponseMeasurement-138-20170110-19:48:18-23019
attr configname ResponseMeasurement
attr datetime 20170110-19:48:18
attr experiment ResponseMeasurement
attr inifile responseStudy.ini
attr iterationvars ""
attr iterationvars2 $repetition=138
attr measurement ""
attr network controltower.SimNetwork
attr processid 23019
attr repetition 138
attr replication #138
attr resultdir results
attr runnumber 138
attr seedset 138
param SimNetwork.a.parkingLot.parkingDelay "truncnormal(60min, 6min)"
param SimNetwork.a.runway.landingTime "truncnormal(5min, 0.5min)"
param SimNetwork.a.runway.takeoffTime "truncnormal(5min, 0.5min)"
param SimNetwork.a.runway.throughputCheckInterval 50min
param SimNetwork.wg.interArrivalTime exponential(50min)

statistic SimNetwork.wg 	responseTime:stats
field count 299
field mean 7171.1739631089
field stddev 2928.3529443821
field sum 2144181.0149696
field sqrsum 17931719854.87
field min 3877.1596937699
field max 24011.04127946
attr source  responseTimeSignal
scalar SimNetwork.a.landingQueue 	queueLength:timeavg 	0.012466822701816
attr source  queueLengthSignal
statistic SimNetwork.a.landingQueue 	queueLength:stats
field count 598
field mean 0.51003344481605
field stddev 0.51026284705427
field sum 305
field sqrsum 311
field min 0
field max 2
attr source  queueLengthSignal
statistic SimNetwork.a.landingQueue 	queueTime:stats
field count 299
field mean 36.016384639909
field stddev 84.809487801953
field sum 10768.899007333
field sqrsum 2531266.2767228
field min 0
field max 530.30015796816
attr source  queueTimeSignal
scalar SimNetwork.a.takeoffQueue 	queueLength:timeavg 	0.015127003194762
attr source  queueLengthSignal
statistic SimNetwork.a.takeoffQueue 	queueLength:stats
field count 596
field mean 0.51677852348993
field stddev 0.52313247637717
field sum 308
field sqrsum 322
field min 0
field max 3
attr source  queueLengthSignal
statistic SimNetwork.a.takeoffQueue 	queueTime:stats
field count 298
field mean 43.742722092518
field stddev 120.98823038249
field sum 13035.33118357
field sqrsum 4917731.9809994
field min 0
field max 899.74177574767
attr source  queueTimeSignal
scalar SimNetwork.a.parkingLot 	parkingOccupancy:timeavg 	1.2486926306539
attr source  parkingOccupancy
statistic SimNetwork.a.parkingLot 	parkingOccupancy:stats
field count 597
field mean 1.7621440536013
field stddev 1.2013865420875
field sum 1052
field sqrsum 2714
field min 0
field max 6
attr source  parkingOccupancy
