version 2
run ResponseMeasurement-133-20170110-19:48:16-23014
attr configname ResponseMeasurement
attr datetime 20170110-19:48:16
attr experiment ResponseMeasurement
attr inifile responseStudy.ini
attr iterationvars ""
attr iterationvars2 $repetition=133
attr measurement ""
attr network controltower.SimNetwork
attr processid 23014
attr repetition 133
attr replication #133
attr resultdir results
attr runnumber 133
attr seedset 133
param SimNetwork.a.parkingLot.parkingDelay "truncnormal(60min, 6min)"
param SimNetwork.a.runway.landingTime "truncnormal(5min, 0.5min)"
param SimNetwork.a.runway.takeoffTime "truncnormal(5min, 0.5min)"
param SimNetwork.a.runway.throughputCheckInterval 50min
param SimNetwork.wg.interArrivalTime exponential(50min)

vector 2  SimNetwork.a.landingQueue  queueLength:vector  ETV
attr source  queueLengthSignal
vector 1  SimNetwork.a.landingQueue  queueTime:vector  ETV
attr source  queueTimeSignal
vector 7  SimNetwork.a.parkingLot  parkingOccupancy:vector  ETV
attr source  parkingOccupancy
vector 5  SimNetwork.a.runway  landedThroughput:vector  ETV
attr source  landedThroughputSignal
vector 6  SimNetwork.a.runway  tookoffThroughput:vector  ETV
attr source  tookoffThroughputSignal
vector 4  SimNetwork.a.takeoffQueue  queueLength:vector  ETV
attr source  queueLengthSignal
vector 3  SimNetwork.a.takeoffQueue  queueTime:vector  ETV
attr source  queueTimeSignal
vector 0  SimNetwork.wg  responseTime:vector  ETV
attr source  responseTimeSignal
0	842	145233.371748668645	12372.985982614
0	880	148585.279886025476	8055.3634189178
0	888	148907.621284468713	4348.2787906987
0	900	151014.52535985984	5861.4536649419
0	905	151276.916195756806	4731.1429132355
0	913	152244.587296995322	5658.1130997801
0	942	166172.54358818939	18606.817610168
0	959	168440.053814184546	6613.5188455421
0	984	172440.985495296901	7559.1768223325
0	1000	173604.221911233404	5801.9990039284
0	1009	174624.154831141919	5327.4667558338
0	1025	176593.114525508271	6175.5475135167
0	1034	178951.920471527347	6283.0641019297
0	1064	196424.251913765974	21377.799487187
0	1073	198083.404955264184	6093.573162489
0	1110	204480.320520655158	11159.630994488
0	1123	205059.979760386935	5519.7716405267
0	1132	207566.013704743772	6752.8373198743
0	1140	208667.50180363132	4750.644064242
0	1166	214353.118265023785	10118.982057625
0	1186	216442.84378001037	6651.9966274766
0	1200	219489.579679147029	7062.987389665
0	1216	221024.204171207202	5830.2493913909
0	1233	224247.887536669995	7807.9583312474
0	1245	226091.526749569741	6088.5208488613
0	1270	230349.021413810643	8855.22851624
0	1275	230640.845455323271	4788.3533571335
0	1296	234570.035094749931	8080.3213968361
0	1321	238500.209034132396	7819.1104459193
0	1335	240618.585384841244	6308.7971225465
0	1351	242606.756210295917	6331.0036483568
0	1372	246386.233532960136	8121.9126330478
0	1393	248368.851488324444	7005.1839171796
0	1410	250000.856735676546	5933.8048029832
0	1418	251739.087042924827	5441.6551958016
0	1427	253442.306479248976	5872.4187696691
0	1453	259783.699776670806	10806.511193295
0	1465	263052.567014388828	7882.7154702311
0	1487	266807.711579646798	7659.0892514618
0	1496	268457.205932802489	5508.8015690719
0	1522	274215.417520450723	9658.7176815196
0	1547	277335.231232105671	8509.5087819092
0	1556	279604.151436149608	6038.1313485552
0	1564	280300.680499182553	5160.0469386538
0	1590	285185.401250965288	9018.70847989
0	1598	286948.572662645181	6589.1009819438
0	1619	292738.384457051392	9687.8450880872
0	1634	297410.604556795864	9097.360054945
0	1663	304146.685732413657	11446.906428874
0	1668	304377.34515787329	4354.3654248422
0	1703	314549.655939343365	14083.27286812
0	1711	314940.272227057602	4430.7391302078
0	1731	317990.204040034895	7460.2833666779
0	1749	322039.336519890471	4673.7454919389
0	1754	322314.759205487983	8385.0994935478
0	1772	328000.496715140185	10134.023847776
0	1799	336326.638990689467	12373.530731105
0	1816	339514.934826347878	7398.3174216731
0	1841	343101.167072108885	7868.0355320745
0	1849	343874.827485578995	4959.8870082567
0	1866	346739.859268409852	6981.4210551009
0	1891	350655.464171858523	8341.9355476004
0	1899	350956.49631614839	4768.5799615644
0	1908	353766.003671043645	6780.2407542
0	1927	361931.484072247092	12516.746127105
0	1945	366774.696604860386	9707.7591369066
0	1973	371872.049753560227	9725.3668823742
0	1990	373353.966990067086	6325.5422651764
0	2004	376195.008720744567	6515.5064414993
0	2012	377211.213595711364	5360.9797051315
0	2030	383913.251256982711	10704.033281239
0	2059	389326.708245316455	9681.0590696797
0	2064	389685.349590490261	4443.9977166769
0	2082	395139.057243408187	9775.8477558106
0	2116	401159.211769169038	10552.495009173
0	2141	402679.76445547642	6206.2114611583
0	2157	404564.247942859019	6231.9020535122
0	2166	405767.496814472568	5672.6489952774
0	2174	406371.916325682596	4329.1165423901
0	2182	406931.532333219829	5321.0903809562
0	2208	412836.177786916942	9946.9845071866
0	2228	414696.628681679664	6529.3524350156
0	2250	418185.471877504645	7218.7354922559
0	2258	419310.438431850857	5408.6166015486
0	2267	421242.009896301946	6668.4630516947
0	2301	427529.313679992112	10606.273599792
0	2321	431340.372963205785	4700.0018592029
0	2326	431612.471936437836	8271.0312162934
0	2335	433174.633163309389	6465.6744962215
0	2366	444508.124821369967	15659.754339779
0	2383	447487.062624793725	7140.1224122385
0	2396	448329.527661713053	4856.6342194181
0	2416	452062.701919974964	7809.081616587
0	2429	452751.675822125966	5353.1644216869
0	2439	456098.877462333259	7550.8070297068
0	2464	461742.695392857385	9842.1067475688
0	2481	464283.836556884484	6488.76956095
0	2498	466607.560575781185	6577.7562518854
0	2518	469927.397976187621	6917.6415695245
0	2540	472642.372961126693	7161.6475329264
0	2549	474358.43143226928	5614.6003753439
0	2565	475382.798840483752	5601.3306139868
0	2590	479242.631710699866	7888.484220297
0	2599	482007.407854163376	7290.6760896084
0	2610	482428.991412636158	4242.0665828674
0	2633	486873.088137743096	8577.5874127276
0	2641	487987.249573130288	5713.7786485563
0	2683	493370.915350469827	9399.0649787271
0	2691	494889.710499103553	5986.1905700534
0	2716	496545.934758842165	5718.7667466942
0	2724	497456.606831855777	5741.7743292329
0	2741	499314.804295374865	6580.0331845203
0	2757	500177.139492823107	4705.4450424598
0	2766	502060.553683258016	6159.4454439538
0	2774	503916.803116231596	6137.4334096233
0	2819	509693.758541810813	4691.7013877602
0	2824	509976.04594015048	10471.877979788
0	2833	511048.267820888641	5976.8871011861
0	2849	512315.594141845818	5692.0657382772
0	2883	516679.506619270595	9086.318758787
0	2891	517545.691784416946	6274.9140459219
0	2899	518345.536058958225	5015.6303361427
0	2907	518935.599185724293	5265.9820883783
0	2936	531328.504133535426	17071.3736167
0	2953	534374.628988663378	6864.8374939476
0	2994	538030.377157536773	8353.4747713355
0	3005	539544.990808360169	5803.6185503009
0	3013	539806.013338880877	4653.9708683075
0	3019	540107.84119862472	4299.1368448712
0	3027	540821.963087440415	4715.4372138855
0	3053	548560.786597547229	11501.796585973
0	3062	549311.26386265909	4920.9652695231
0	3097	559704.392967957219	14853.487849147
0	3125	561429.115372220065	4503.9661858927
0	3133	561798.739025146535	6108.7288745549
0	3163	564682.528370194393	7603.9621128142
0	3171	565011.809549728906	4481.6613538283
0	3179	565495.767372100262	4872.629553582
0	3187	566665.605040375297	5226.191223007
0	3196	567689.210272136932	5110.4627121063
0	3238	573795.671232122699	10731.909048514
0	3246	574459.744791489429	4514.3865757367
0	3254	574791.148574162418	4461.4894759738
0	3263	577916.42181936873	6985.7162182094
0	3281	582049.27989612109	8805.7283623092
0	3315	588856.583805685107	10765.511308746
0	3323	589568.958143513402	4653.2870685593
0	3332	591313.861334499436	5429.3949328813
0	3365	595431.939244430007	8773.9033400667
0	3390	598849.997663213926	7181.4990360634
0	3406	599458.21427356436	4918.012418115
0	3415	600538.675758946854	5979.8155347175
0	3431	602003.197895660563	5723.6499636339
0	3439	602922.608808590923	4813.3965988222
0	3448	605441.967691903354	6572.9491612666
0	3475	612158.147245340251	10765.40111383
0	3500	616037.293101293434	8399.3215335348
0	3517	619144.25732188015	7612.1305240432
0	3525	619933.398409779653	5373.4032939264
0	3542	622418.222414553389	7690.9724298256
0	3562	625964.058647545048	7438.9878728003
0	3592	628262.082984786879	6775.4028917074
0	3616	629978.033593403244	5148.2218186691
0	3628	631002.806276174998	5117.9426312883
0	3633	631281.828445523248	5147.31771104
0	3641	632754.488828189776	5125.6317950071
0	3650	633343.119278083587	4857.1994034322
0	3712	642594.807024770079	13754.898288084
0	3728	643191.381979909405	4829.0747953912
0	3741	644107.177771805616	4992.2253887451
0	3757	644994.039793104685	4962.4808433005
0	3766	645332.929928066499	5220.5993235692
0	3774	646256.176696325467	5063.7369547413
0	3782	646904.393082621096	5639.3811350327
0	3790	647251.510435922407	4856.6981923854
0	3799	648868.27003676706	5768.1638577442
0	3827	661206.664288238924	4245.5490529456
0	3835	661563.733779616451	17438.758009309
0	3870	670716.782524641934	4062.6272176926
0	3889	671466.437883081733	14069.614119201
0	3903	672893.84850448704	6202.7841751096
0	3919	674771.814797487954	5875.0155881855
0	3928	675558.867086381852	4722.6147255215
0	3936	677860.16373515125	6726.6996632195
0	3959	696086.316116979841	22349.36338626
0	3984	701090.93925398418	9221.268084686
0	3993	702748.432140952806	6490.2399384531
0	4019	709233.041830616733	10222.25834015
0	4044	713039.205143556216	7738.986297628
0	4061	714230.994147431068	3180.8835489988
0	4069	715142.36568069604	6530.8191313432
0	4086	717702.106074417493	6520.1349405388
0	4103	720682.399744638788	7133.8276854805
0	4135	722774.944011792562	5905.7120479987
0	4144	725214.106316828332	7005.019489303
0	4153	726204.779947437573	4989.6733370536
0	4161	726888.196622513018	5228.7773163735
0	4186	731188.28088394628	9468.1281287594
0	4195	733843.269851325271	6908.8074349494
0	4231	745952.53095055173	16783.635899059
0	4248	747697.240057126818	5865.4571316766
0	4267	748312.527762429919	4790.7571498137
0	4281	751085.023615402287	7330.963966666
0	4289	752111.92034244389	5784.4867477743
0	4297	752400.145549971488	4681.7567887714
0	4345	767523.925021571777	19323.146149436
0	4367	768981.301067796515	6116.0499716974
0	4375	770391.843797700343	5340.0812767909
0	4384	771037.990988443205	4443.301741266
0	4392	771911.749199647071	4646.4935417897
0	4400	772410.883360209944	5722.1563744792
0	4430	780959.883224181487	13002.943594304
0	4435	781243.615780079512	4300.4637231276
0	4456	797483.257453506624	20110.976272634
0	4491	805492.867347407208	11654.979867851
0	4500	808253.098918180221	7056.0190469207
0	4508	808722.032412917477	5022.0739194025
0	4526	814121.406912039938	9804.2016500703
0	4552	819895.13221022273	10236.694975205
0	4561	822542.580850840069	6733.0226673857
0	4588	832013.466551622025	13321.70630445
0	4597	835601.967903703534	9058.2508326165
0	4637	840081.428276400928	8645.3247256657
0	4655	842018.176022926107	5963.1669765257
0	4663	842791.287972760659	4598.6079488349
0	4675	844561.181420178836	4802.5139236429
0	4680	844852.284228968955	6587.6586008884
0	4699	852830.387266837331	12758.112774764
0	4745	861836.516097871157	13339.319082486
0	4750	862119.26005996798	4894.6787714183
0	4758	862510.128722718833	4616.8720484655
0	4766	863118.495591327103	4930.3829923928
0	4792	868049.958423373254	8826.4264698829
0	4801	870367.475776151881	6464.3297222893
0	4827	877682.615673342369	12178.888286349
0	4836	879049.485968423596	6134.9532706573
0	4870	885115.88812377284	10253.098504617
0	4878	887454.502968838821	6129.9035032997
0	4886	887801.848411012298	5199.2952513824
0	4912	892697.647698654714	9482.0505949666
0	4929	894730.548028007446	6507.4586439241
0	4957	897844.720920838138	7857.3097628778
0	4970	899040.89357255142	5269.2686525013
0	4979	900945.915860129659	6028.5595007164
0	4987	901662.637108558948	4379.3287744405
0	5005	907259.039980000984	9507.930532487
0	5042	914669.366051439672	11275.830559635
0	5064	915938.758629815417	5539.797511389
0	5083	917721.705979247004	5676.8457462119
0	5100	919057.528880228767	5058.6471410842
0	5108	919329.503782611068	4978.5221638782
0	5135	920388.942750245538	5114.2761994707
0	5162	921986.150011462565	5385.8973788463
0	5170	923117.494646889571	5577.9344454898
0	5181	923617.925568121493	4376.8251442803
0	5195	924683.856165774609	5350.0541894155
0	5206	925319.463393060423	5237.1646021541
0	5211	925674.460684887661	5324.9444326085
0	5228	927955.379062785605	6625.2618816894
0	5253	931198.82944118432	7742.3050440378
0	5261	932141.436016504329	5288.0278152464
0	5284	933807.481416498332	5814.0472139468
0	5311	936842.11204893831	6859.287978443
0	5330	938366.793703958797	5838.2533036962
0	5335	938676.12256262544	5152.4168392036
0	5352	939342.145367658011	5649.8762905317
0	5360	941507.91528613855	6818.0453544181
0	5369	942300.101464154491	5175.5344694865
0	5398	950988.348542020301	12239.624940302
0	5412	952392.359304846016	5572.9622978182
0	5421	955311.844708875342	8490.4257784722
0	5439	962341.83245387882	11652.806891881
0	5474	971011.575750962615	13011.468365574
0	5486	973021.067403563382	6719.2522309024
0	5499	973641.662455211102	4620.6952415158
0	5524	977121.878904778792	7877.1238666141
0	5532	977695.427540983299	4944.6644377277
0	5541	979541.760311060981	5881.8001511223
0	5559	984751.155072828804	9016.8614110279
0	5601	990524.755752456585	9673.4751089759
0	5610	993340.127680071296	7322.9681926065
0	5618	993875.116410838961	4665.7917013031
0	5626	994291.572766851672	4930.8745833273
0	5660	1000742.211359537839	11307.373662377
0	5669	1002875.137769310343	6386.7637528234
0	5693	1003959.462878838368	4874.0217890025
1	818	140529.916467107684	0
1	828	144559.342493770028	0
1	844	145233.371748668645	80.300053750715
1	852	146545.773282521327	0
1	860	146875.52026891774	289.04607170252
1	869	147565.725978021138	0
1	921	161826.534968642416	0
1	930	164881.808672964428	0
1	947	167802.222907305034	0
1	964	169296.688075308129	0
1	972	170417.567011991611	0
1	989	172668.856369597637	0
1	1014	175046.452426579333	0
1	1043	191989.831792775137	0
1	1052	193320.689526167093	0
1	1078	199540.208119860219	0
1	1086	200813.176384869479	0
1	1095	203916.85773938933	0
1	1112	204480.320520655158	246.18431325617
1	1145	209790.847152533791	0
1	1154	212426.592289482066	0
1	1171	215193.954779816352	0
1	1188	216442.84378001037	2.914574587751
1	1205	220003.005900708393	0
1	1221	221493.792897570604	0
1	1247	226091.526749569741	239.03465137995
1	1255	226489.713697913866	0
1	1280	230681.098588213136	0
1	1298	234570.035094749931	260.24683245517
1	1306	236275.752561939142	0
1	1323	238500.209034132396	235.88813422009
1	1340	241363.667571144892	0
1	1357	244067.051932693322	0
1	1374	246386.233532960136	88.801685836956
1	1382	247569.887709579843	0
1	1398	248977.188583375421	0
1	1433	255169.851544157763	0
1	1442	259148.622328184992	0
1	1467	263052.567014388828	104.16265065828
1	1476	264556.699838931166	0
1	1501	268825.722450196476	0
1	1511	273566.020087594374	0
1	1527	275140.633560528728	0
1	1536	276166.69277107529	0
1	1569	280359.471680701408	0
1	1578	283050.539368964239	0
1	1604	288313.244501850883	0
1	1621	292738.384457051392	38.60515351181
1	1640	300022.979733031042	0
1	1648	300466.383071223139	0
1	1675	310509.533096849753	0
1	1683	310805.723161480215	275.80248812323
1	1692	313929.659711940214	0
1	1717	317365.59102795154	0
1	1733	317990.204040034895	123.73117267103
1	1759	323953.108259584951	0
1	1778	332116.617404674819	0
1	1787	335233.131540034365	0
1	1804	338914.940477322305	0
1	1821	339758.438213308907	0
1	1830	342313.52862425812	0
1	1855	346187.916354583974	0
1	1871	346985.762916843656	0
1	1880	349414.737945141601	0
1	1915	357066.937467953779	0
1	1932	362146.682871186077	0
1	1950	367028.424724890673	0
1	1959	369679.502279245222	0
1	1975	371872.049753560227	21.815862980347
1	1992	373353.966990067086	144.74901432293
1	2018	379645.649175636759	0
1	2036	385241.351873813371	0
1	2044	385539.697235055266	176.48774745772
1	2070	390606.71675999587	0
1	2088	396473.552994318102	0
1	2096	398332.345889346868	0
1	2105	400094.847819195132	0
1	2121	401610.441952263678	0
1	2130	402042.799783292493	0
1	2146	402889.193279730387	0
1	2188	408167.276246664025	0
1	2196	410966.73638524878	0
1	2213	413901.821830302246	0
1	2230	414696.628681679664	123.08183707243
1	2238	416923.040080199965	0
1	2273	423341.440720144403	0
1	2282	426640.371104002931	0
1	2290	426974.364585453132	265.40591836526
1	2306	428848.370481590561	0
1	2342	440346.940212555181	0
1	2351	443472.893442294992	0
1	2368	444508.124821369967	254.50451798202
1	2385	447487.062624793725	88.551224354634
1	2401	448548.070432626421	0
1	2418	452062.701919974964	162.11327468633
1	2444	457795.066995934467	0
1	2453	460029.804323895789	0
1	2470	463009.756406663153	0
1	2487	465480.725428200265	0
1	2504	468743.831056925349	0
1	2520	469927.397976187621	145.92974969066
1	2529	471354.147490402898	0
1	2554	474716.731764554986	0
1	2571	478186.924829768722	0
1	2582	478617.542997281797	322.04227226633
1	2612	482428.991412636158	155.52048806215
1	2621	483971.850371742761	0
1	2646	488903.519929050189	0
1	2655	490827.168012147941	0
1	2663	491714.832502622919	0
1	2672	492734.771110854602	0
1	2697	495471.694450363258	0
1	2705	495901.108239304264	0
1	2729	497779.369706608249	0
1	2746	499504.167960362186	0
1	2780	505002.05715405058	0
1	2788	505327.669690974679	256.2889712721
1	2796	506623.528403568665	0
1	2805	507593.187860483569	0
1	2838	511270.777738494999	0
1	2855	513329.905722815513	0
1	2863	513669.617097345972	0
1	2871	514257.13051683565	0
1	2915	527509.791494715736	0
1	2924	529676.902386201243	0
1	2941	533741.372258059262	0
1	2958	535152.042470573349	0
1	2966	535808.704353753497	0
1	2974	536106.525873554896	0
1	2983	537058.990011574556	0
1	3033	544390.298593136002	0
1	3041	544850.90511881049	0
1	3069	555690.010150591664	0
1	3077	556925.149186327346	0
1	3085	557228.214717988617	149.64846060843
1	3102	560530.148195900564	0
1	3110	560814.37325245562	191.23543393736
1	3135	561798.739025146535	359.32520777819
1	3143	562578.74756003062	0
1	3151	563063.762183609117	0
1	3201	569945.358215752697	0
1	3210	570329.659098188579	0
1	3218	570930.705601159336	0
1	3227	573243.551533811859	0
1	3268	578091.072496939135	0
1	3286	584915.671074954103	0
1	3295	585884.466401618181	0
1	3303	586658.035904363349	0
1	3337	591668.498627150491	0
1	3346	594540.201855449329	0
1	3354	594862.607949099903	303.74772487056
1	3370	596279.547932026649	0
1	3379	598109.212209768713	0
1	3395	598869.018530636755	0
1	3420	601392.746131510487	0
1	3454	607637.971567758593	0
1	3463	611532.126797836977	0
1	3480	614559.995115853297	0
1	3488	614885.085340038854	157.8353553111
1	3506	618525.07077474471	0
1	3531	621486.680093079449	0
1	3548	624829.811774734157	0
1	3564	625964.058647545048	79.195002658395
1	3572	626239.062033588074	104.55129910478
1	3581	627628.857033182659	0
1	3597	628485.919874651435	0
1	3605	628839.908736685881	0
1	3656	638362.307184518189	0
1	3665	639114.952383060559	0
1	3673	640031.558949804216	0
1	3681	640327.652188575252	215.32158407797
1	3689	641192.43974158421	0
1	3697	641526.347906410588	261.33595882223
1	3714	642594.807024770079	199.99478123303
1	3730	643191.381979909405	91.275800886556
1	3746	644124.975770307503	0
1	3806	656961.115235293369	0
1	3815	657396.823763880387	0
1	3842	666654.155306949331	0
1	3850	666974.520235369161	283.45590599176
1	3858	668896.79920930245	0
1	3875	670836.252360860326	0
1	3891	671466.437883081733	332.97381114995
1	3908	673736.952730719643	0
1	3946	691869.671169298171	0
1	3964	696258.192202499735	0
1	3973	699010.783490466373	0
1	3999	705300.218845928235	0
1	4008	708611.546549352822	0
1	4025	711050.110598432272	0
1	4033	711407.135093168769	225.16395929011
1	4049	713548.572059158243	0
1	4074	716869.231963793838	0
1	4091	718209.086827525324	0
1	4108	721215.106610384011	0
1	4116	721659.419306139471	0
1	4124	721922.429632270353	202.27687708343
1	4166	726934.462416375871	0
1	4175	729168.895051492578	0
1	4203	741831.782925450202	0
1	4211	743521.770612616193	0
1	4219	743810.671933462242	56.612284725999
1	4236	746327.433594669549	0
1	4253	747718.388761200067	0
1	4269	748312.527762429919	111.74889029457
1	4306	762865.251096099104	0
1	4315	765051.762520909424	0
1	4323	766594.689247177161	0
1	4331	766904.007522511643	215.28053678086
1	4347	767523.925021571777	258.66936371444
1	4355	767956.939629877441	0
1	4406	776943.152056951869	0
1	4415	777372.281180872998	0
1	4444	793837.887479556198	0
1	4463	801197.079871259486	0
1	4471	803699.958493515024	0
1	4480	804317.205261969632	0
1	4513	809658.437235017918	0
1	4531	815809.558183454382	0
1	4540	818691.760247172318	0
1	4567	826543.71707108707	0
1	4577	831436.10355073527	0
1	4602	836055.009046400368	0
1	4611	838192.680023925802	0
1	4619	838500.422270428009	235.7966423474
1	4639	840081.428276400928	322.76077986504
1	4644	840360.816796996292	288.54230492311
1	4686	848497.197015384749	0
1	4705	857224.581288549647	0
1	4713	857893.256674253337	0
1	4722	858215.347306002865	27.234707068515
1	4730	859223.531953490326	0
1	4771	863903.146053862626	0
1	4780	865503.727386993314	0
1	4806	872914.532697766314	0
1	4815	874862.789619155559	0
1	4841	881324.599465539071	0
1	4850	882602.553159629861	0
1	4858	883215.597103688083	0
1	4892	888223.089384083357	0
1	4900	889987.411157960328	0
1	4917	893771.624920050128	0
1	4934	894917.356359413224	0
1	4943	897283.308334118491	0
1	4959	897844.720920838138	93.611473324164
1	4993	903393.535491804552	0
1	5011	910398.96111842639	0
1	5020	912044.860233035138	0
1	5028	913998.881739144569	0
1	5044	914669.366051439672	318.38443270682
1	5053	915274.666550774842	0
1	5069	916600.252632616272	0
1	5085	917721.705979247004	182.14577784719
1	5110	919329.503782611068	88.403358769889
1	5118	919601.80991706976	268.00794071061
1	5137	920388.942750245538	306.64395933919
1	5142	920676.159808499457	326.64355622026
1	5151	921330.11718109624	0
1	5183	923617.925568121493	161.401170975
1	5216	926853.408201257941	0
1	5233	927993.434202551537	0
1	5241	929982.824070495308	0
1	5266	932528.540400262631	0
1	5286	933807.481416498332	283.7756930765
1	5291	934115.750441117528	423.48136399126
1	5299	934689.869931720492	0
1	5316	937124.566994668038	0
1	5340	938748.723601718283	0
1	5375	946819.397007027857	0
1	5383	947163.675726124865	342.25679572176
1	5400	950988.348542020301	299.32298002268
1	5427	958000.107385388819	0
1	5446	966301.815172660957	0
1	5455	969020.967213695316	0
1	5463	969341.838419967866	97.083381803198
1	5488	973021.067403563382	270.30430030777
1	5504	973659.960159938665	0
1	5513	975734.293661800927	0
1	5546	980851.280643480657	0
1	5564	986017.159487464819	0
1	5573	989209.324709535827	0
1	5584	989536.336411109138	175.6382275848
1	5589	989868.62817618359	433.79047902319
1	5632	996488.374016486926	0
1	5641	999085.44108983589	0
1	5649	999344.092720010097	141.83631623159
1	5674	1003051.908053603869	0
1	5685	1003315.974722624857	83.014193717234
2	816	140529.916467107684	1
2	818	140529.916467107684	0
2	826	144559.342493770028	1
2	828	144559.342493770028	0
2	839	145153.07169491793	1
2	844	145233.371748668645	0
2	850	146545.773282521327	1
2	852	146545.773282521327	0
2	855	146586.474197215222	1
2	860	146875.52026891774	0
2	867	147565.725978021138	1
2	869	147565.725978021138	0
2	919	161826.534968642416	1
2	921	161826.534968642416	0
2	928	164881.808672964428	1
2	930	164881.808672964428	0
2	945	167802.222907305034	1
2	947	167802.222907305034	0
2	962	169296.688075308129	1
2	964	169296.688075308129	0
2	970	170417.567011991611	1
2	972	170417.567011991611	0
2	987	172668.856369597637	1
2	989	172668.856369597637	0
2	1012	175046.452426579333	1
2	1014	175046.452426579333	0
2	1041	191989.831792775137	1
2	1043	191989.831792775137	0
2	1050	193320.689526167093	1
2	1052	193320.689526167093	0
2	1076	199540.208119860219	1
2	1078	199540.208119860219	0
2	1084	200813.176384869479	1
2	1086	200813.176384869479	0
2	1093	203916.85773938933	1
2	1095	203916.85773938933	0
2	1107	204234.136207398987	1
2	1112	204480.320520655158	0
2	1143	209790.847152533791	1
2	1145	209790.847152533791	0
2	1152	212426.592289482066	1
2	1154	212426.592289482066	0
2	1169	215193.954779816352	1
2	1171	215193.954779816352	0
2	1183	216439.929205422619	1
2	1188	216442.84378001037	0
2	1203	220003.005900708393	1
2	1205	220003.005900708393	0
2	1219	221493.792897570604	1
2	1221	221493.792897570604	0
2	1242	225852.492098189786	1
2	1247	226091.526749569741	0
2	1253	226489.713697913866	1
2	1255	226489.713697913866	0
2	1278	230681.098588213136	1
2	1280	230681.098588213136	0
2	1293	234309.788262294763	1
2	1298	234570.035094749931	0
2	1304	236275.752561939142	1
2	1306	236275.752561939142	0
2	1318	238264.320899912306	1
2	1323	238500.209034132396	0
2	1338	241363.667571144892	1
2	1340	241363.667571144892	0
2	1355	244067.051932693322	1
2	1357	244067.051932693322	0
2	1369	246297.43184712318	1
2	1374	246386.233532960136	0
2	1380	247569.887709579843	1
2	1382	247569.887709579843	0
2	1396	248977.188583375421	1
2	1398	248977.188583375421	0
2	1431	255169.851544157763	1
2	1433	255169.851544157763	0
2	1440	259148.622328184992	1
2	1442	259148.622328184992	0
2	1462	262948.404363730546	1
2	1467	263052.567014388828	0
2	1474	264556.699838931166	1
2	1476	264556.699838931166	0
2	1499	268825.722450196476	1
2	1501	268825.722450196476	0
2	1509	273566.020087594374	1
2	1511	273566.020087594374	0
2	1525	275140.633560528728	1
2	1527	275140.633560528728	0
2	1534	276166.69277107529	1
2	1536	276166.69277107529	0
2	1567	280359.471680701408	1
2	1569	280359.471680701408	0
2	1576	283050.539368964239	1
2	1578	283050.539368964239	0
2	1602	288313.244501850883	1
2	1604	288313.244501850883	0
2	1616	292699.779303539582	1
2	1621	292738.384457051392	0
2	1638	300022.979733031042	1
2	1640	300022.979733031042	0
2	1646	300466.383071223139	1
2	1648	300466.383071223139	0
2	1673	310509.533096849753	1
2	1675	310509.533096849753	0
2	1678	310529.920673356981	1
2	1683	310805.723161480215	0
2	1690	313929.659711940214	1
2	1692	313929.659711940214	0
2	1715	317365.59102795154	1
2	1717	317365.59102795154	0
2	1728	317866.472867363861	1
2	1733	317990.204040034895	0
2	1757	323953.108259584951	1
2	1759	323953.108259584951	0
2	1776	332116.617404674819	1
2	1778	332116.617404674819	0
2	1785	335233.131540034365	1
2	1787	335233.131540034365	0
2	1802	338914.940477322305	1
2	1804	338914.940477322305	0
2	1819	339758.438213308907	1
2	1821	339758.438213308907	0
2	1828	342313.52862425812	1
2	1830	342313.52862425812	0
2	1853	346187.916354583974	1
2	1855	346187.916354583974	0
2	1869	346985.762916843656	1
2	1871	346985.762916843656	0
2	1878	349414.737945141601	1
2	1880	349414.737945141601	0
2	1913	357066.937467953779	1
2	1915	357066.937467953779	0
2	1930	362146.682871186077	1
2	1932	362146.682871186077	0
2	1948	367028.424724890673	1
2	1950	367028.424724890673	0
2	1957	369679.502279245222	1
2	1959	369679.502279245222	0
2	1970	371850.23389057988	1
2	1975	371872.049753560227	0
2	1987	373209.217975744159	1
2	1992	373353.966990067086	0
2	2016	379645.649175636759	1
2	2018	379645.649175636759	0
2	2034	385241.351873813371	1
2	2036	385241.351873813371	0
2	2039	385363.209487597548	1
2	2044	385539.697235055266	0
2	2068	390606.71675999587	1
2	2070	390606.71675999587	0
2	2086	396473.552994318102	1
2	2088	396473.552994318102	0
2	2094	398332.345889346868	1
2	2096	398332.345889346868	0
2	2103	400094.847819195132	1
2	2105	400094.847819195132	0
2	2119	401610.441952263678	1
2	2121	401610.441952263678	0
2	2128	402042.799783292493	1
2	2130	402042.799783292493	0
2	2144	402889.193279730387	1
2	2146	402889.193279730387	0
2	2186	408167.276246664025	1
2	2188	408167.276246664025	0
2	2194	410966.73638524878	1
2	2196	410966.73638524878	0
2	2211	413901.821830302246	1
2	2213	413901.821830302246	0
2	2225	414573.546844607238	1
2	2230	414696.628681679664	0
2	2236	416923.040080199965	1
2	2238	416923.040080199965	0
2	2271	423341.440720144403	1
2	2273	423341.440720144403	0
2	2280	426640.371104002931	1
2	2282	426640.371104002931	0
2	2285	426708.958667087871	1
2	2290	426974.364585453132	0
2	2304	428848.370481590561	1
2	2306	428848.370481590561	0
2	2340	440346.940212555181	1
2	2342	440346.940212555181	0
2	2349	443472.893442294992	1
2	2351	443472.893442294992	0
2	2363	444253.620303387943	1
2	2368	444508.124821369967	0
2	2380	447398.511400439091	1
2	2385	447487.062624793725	0
2	2399	448548.070432626421	1
2	2401	448548.070432626421	0
2	2413	451900.588645288633	1
2	2418	452062.701919974964	0
2	2442	457795.066995934467	1
2	2444	457795.066995934467	0
2	2451	460029.804323895789	1
2	2453	460029.804323895789	0
2	2468	463009.756406663153	1
2	2470	463009.756406663153	0
2	2485	465480.725428200265	1
2	2487	465480.725428200265	0
2	2502	468743.831056925349	1
2	2504	468743.831056925349	0
2	2515	469781.468226496957	1
2	2520	469927.397976187621	0
2	2527	471354.147490402898	1
2	2529	471354.147490402898	0
2	2552	474716.731764554986	1
2	2554	474716.731764554986	0
2	2569	478186.924829768722	1
2	2571	478186.924829768722	0
2	2574	478295.500725015463	1
2	2582	478617.542997281797	0
2	2607	482273.470924574004	1
2	2612	482428.991412636158	0
2	2619	483971.850371742761	1
2	2621	483971.850371742761	0
2	2644	488903.519929050189	1
2	2646	488903.519929050189	0
2	2653	490827.168012147941	1
2	2655	490827.168012147941	0
2	2661	491714.832502622919	1
2	2663	491714.832502622919	0
2	2670	492734.771110854602	1
2	2672	492734.771110854602	0
2	2695	495471.694450363258	1
2	2697	495471.694450363258	0
2	2703	495901.108239304264	1
2	2705	495901.108239304264	0
2	2727	497779.369706608249	1
2	2729	497779.369706608249	0
2	2744	499504.167960362186	1
2	2746	499504.167960362186	0
2	2778	505002.05715405058	1
2	2780	505002.05715405058	0
2	2783	505071.380719702578	1
2	2788	505327.669690974679	0
2	2794	506623.528403568665	1
2	2796	506623.528403568665	0
2	2803	507593.187860483569	1
2	2805	507593.187860483569	0
2	2836	511270.777738494999	1
2	2838	511270.777738494999	0
2	2853	513329.905722815513	1
2	2855	513329.905722815513	0
2	2861	513669.617097345972	1
2	2863	513669.617097345972	0
2	2869	514257.13051683565	1
2	2871	514257.13051683565	0
2	2913	527509.791494715736	1
2	2915	527509.791494715736	0
2	2922	529676.902386201243	1
2	2924	529676.902386201243	0
2	2939	533741.372258059262	1
2	2941	533741.372258059262	0
2	2956	535152.042470573349	1
2	2958	535152.042470573349	0
2	2964	535808.704353753497	1
2	2966	535808.704353753497	0
2	2972	536106.525873554896	1
2	2974	536106.525873554896	0
2	2981	537058.990011574556	1
2	2983	537058.990011574556	0
2	3031	544390.298593136002	1
2	3033	544390.298593136002	0
2	3039	544850.90511881049	1
2	3041	544850.90511881049	0
2	3067	555690.010150591664	1
2	3069	555690.010150591664	0
2	3075	556925.149186327346	1
2	3077	556925.149186327346	0
2	3080	557078.566257380182	1
2	3085	557228.214717988617	0
2	3100	560530.148195900564	1
2	3102	560530.148195900564	0
2	3105	560623.137818518262	1
2	3110	560814.37325245562	0
2	3130	561439.413817368341	1
2	3135	561798.739025146535	0
2	3141	562578.74756003062	1
2	3143	562578.74756003062	0
2	3149	563063.762183609117	1
2	3151	563063.762183609117	0
2	3199	569945.358215752697	1
2	3201	569945.358215752697	0
2	3208	570329.659098188579	1
2	3210	570329.659098188579	0
2	3216	570930.705601159336	1
2	3218	570930.705601159336	0
2	3225	573243.551533811859	1
2	3227	573243.551533811859	0
2	3266	578091.072496939135	1
2	3268	578091.072496939135	0
2	3284	584915.671074954103	1
2	3286	584915.671074954103	0
2	3293	585884.466401618181	1
2	3295	585884.466401618181	0
2	3301	586658.035904363349	1
2	3303	586658.035904363349	0
2	3335	591668.498627150491	1
2	3337	591668.498627150491	0
2	3344	594540.201855449329	1
2	3346	594540.201855449329	0
2	3349	594558.860224229338	1
2	3354	594862.607949099903	0
2	3368	596279.547932026649	1
2	3370	596279.547932026649	0
2	3377	598109.212209768713	1
2	3379	598109.212209768713	0
2	3393	598869.018530636755	1
2	3395	598869.018530636755	0
2	3418	601392.746131510487	1
2	3420	601392.746131510487	0
2	3452	607637.971567758593	1
2	3454	607637.971567758593	0
2	3461	611532.126797836977	1
2	3463	611532.126797836977	0
2	3478	614559.995115853297	1
2	3480	614559.995115853297	0
2	3483	614727.249984727752	1
2	3488	614885.085340038854	0
2	3504	618525.07077474471	1
2	3506	618525.07077474471	0
2	3529	621486.680093079449	1
2	3531	621486.680093079449	0
2	3546	624829.811774734157	1
2	3548	624829.811774734157	0
2	3559	625884.863644886653	1
2	3564	625964.058647545048	0
2	3567	626134.510734483295	1
2	3572	626239.062033588074	0
2	3579	627628.857033182659	1
2	3581	627628.857033182659	0
2	3595	628485.919874651435	1
2	3597	628485.919874651435	0
2	3603	628839.908736685881	1
2	3605	628839.908736685881	0
2	3654	638362.307184518189	1
2	3656	638362.307184518189	0
2	3663	639114.952383060559	1
2	3665	639114.952383060559	0
2	3671	640031.558949804216	1
2	3673	640031.558949804216	0
2	3676	640112.330604497286	1
2	3681	640327.652188575252	0
2	3687	641192.43974158421	1
2	3689	641192.43974158421	0
2	3692	641265.011947588361	1
2	3697	641526.347906410588	0
2	3709	642394.812243537047	1
2	3714	642594.807024770079	0
2	3725	643100.106179022849	1
2	3730	643191.381979909405	0
2	3744	644124.975770307503	1
2	3746	644124.975770307503	0
2	3804	656961.115235293369	1
2	3806	656961.115235293369	0
2	3813	657396.823763880387	1
2	3815	657396.823763880387	0
2	3840	666654.155306949331	1
2	3842	666654.155306949331	0
2	3845	666691.0643293774	1
2	3850	666974.520235369161	0
2	3856	668896.79920930245	1
2	3858	668896.79920930245	0
2	3873	670836.252360860326	1
2	3875	670836.252360860326	0
2	3886	671133.464071931784	1
2	3891	671466.437883081733	0
2	3906	673736.952730719643	1
2	3908	673736.952730719643	0
2	3944	691869.671169298171	1
2	3946	691869.671169298171	0
2	3962	696258.192202499735	1
2	3964	696258.192202499735	0
2	3971	699010.783490466373	1
2	3973	699010.783490466373	0
2	3997	705300.218845928235	1
2	3999	705300.218845928235	0
2	4006	708611.546549352822	1
2	4008	708611.546549352822	0
2	4023	711050.110598432272	1
2	4025	711050.110598432272	0
2	4028	711181.971133878659	1
2	4033	711407.135093168769	0
2	4047	713548.572059158243	1
2	4049	713548.572059158243	0
2	4072	716869.231963793838	1
2	4074	716869.231963793838	0
2	4089	718209.086827525324	1
2	4091	718209.086827525324	0
2	4106	721215.106610384011	1
2	4108	721215.106610384011	0
2	4114	721659.419306139471	1
2	4116	721659.419306139471	0
2	4119	721720.152755186925	1
2	4124	721922.429632270353	0
2	4164	726934.462416375871	1
2	4166	726934.462416375871	0
2	4173	729168.895051492578	1
2	4175	729168.895051492578	0
2	4201	741831.782925450202	1
2	4203	741831.782925450202	0
2	4209	743521.770612616193	1
2	4211	743521.770612616193	0
2	4214	743754.059648736243	1
2	4219	743810.671933462242	0
2	4234	746327.433594669549	1
2	4236	746327.433594669549	0
2	4251	747718.388761200067	1
2	4253	747718.388761200067	0
2	4264	748200.778872135352	1
2	4269	748312.527762429919	0
2	4304	762865.251096099104	1
2	4306	762865.251096099104	0
2	4313	765051.762520909424	1
2	4315	765051.762520909424	0
2	4321	766594.689247177161	1
2	4323	766594.689247177161	0
2	4326	766688.726985730782	1
2	4331	766904.007522511643	0
2	4342	767265.255657857339	1
2	4347	767523.925021571777	0
2	4353	767956.939629877441	1
2	4355	767956.939629877441	0
2	4404	776943.152056951869	1
2	4406	776943.152056951869	0
2	4413	777372.281180872998	1
2	4415	777372.281180872998	0
2	4442	793837.887479556198	1
2	4444	793837.887479556198	0
2	4461	801197.079871259486	1
2	4463	801197.079871259486	0
2	4469	803699.958493515024	1
2	4471	803699.958493515024	0
2	4478	804317.205261969632	1
2	4480	804317.205261969632	0
2	4511	809658.437235017918	1
2	4513	809658.437235017918	0
2	4529	815809.558183454382	1
2	4531	815809.558183454382	0
2	4538	818691.760247172318	1
2	4540	818691.760247172318	0
2	4565	826543.71707108707	1
2	4567	826543.71707108707	0
2	4575	831436.10355073527	1
2	4577	831436.10355073527	0
2	4600	836055.009046400368	1
2	4602	836055.009046400368	0
2	4609	838192.680023925802	1
2	4611	838192.680023925802	0
2	4614	838264.625628080604	1
2	4619	838500.422270428009	0
2	4630	839758.667496535888	1
2	4634	840072.274492073187	2
2	4639	840081.428276400928	1
2	4644	840360.816796996292	0
2	4684	848497.197015384749	1
2	4686	848497.197015384749	0
2	4703	857224.581288549647	1
2	4705	857224.581288549647	0
2	4711	857893.256674253337	1
2	4713	857893.256674253337	0
2	4717	858188.11259893435	1
2	4722	858215.347306002865	0
2	4728	859223.531953490326	1
2	4730	859223.531953490326	0
2	4769	863903.146053862626	1
2	4771	863903.146053862626	0
2	4778	865503.727386993314	1
2	4780	865503.727386993314	0
2	4804	872914.532697766314	1
2	4806	872914.532697766314	0
2	4813	874862.789619155559	1
2	4815	874862.789619155559	0
2	4839	881324.599465539071	1
2	4841	881324.599465539071	0
2	4848	882602.553159629861	1
2	4850	882602.553159629861	0
2	4856	883215.597103688083	1
2	4858	883215.597103688083	0
2	4890	888223.089384083357	1
2	4892	888223.089384083357	0
2	4898	889987.411157960328	1
2	4900	889987.411157960328	0
2	4915	893771.624920050128	1
2	4917	893771.624920050128	0
2	4932	894917.356359413224	1
2	4934	894917.356359413224	0
2	4941	897283.308334118491	1
2	4943	897283.308334118491	0
2	4954	897751.109447513974	1
2	4959	897844.720920838138	0
2	4991	903393.535491804552	1
2	4993	903393.535491804552	0
2	5009	910398.96111842639	1
2	5011	910398.96111842639	0
2	5018	912044.860233035138	1
2	5020	912044.860233035138	0
2	5026	913998.881739144569	1
2	5028	913998.881739144569	0
2	5039	914350.981618732853	1
2	5044	914669.366051439672	0
2	5051	915274.666550774842	1
2	5053	915274.666550774842	0
2	5067	916600.252632616272	1
2	5069	916600.252632616272	0
2	5080	917539.560201399819	1
2	5085	917721.705979247004	0
2	5105	919241.100423841179	1
2	5110	919329.503782611068	0
2	5113	919333.801976359153	1
2	5118	919601.80991706976	0
2	5129	920082.298790906346	1
2	5132	920349.516252279195	2
2	5137	920388.942750245538	1
2	5142	920676.159808499457	0
2	5149	921330.11718109624	1
2	5151	921330.11718109624	0
2	5178	923456.524397146493	1
2	5183	923617.925568121493	0
2	5214	926853.408201257941	1
2	5216	926853.408201257941	0
2	5231	927993.434202551537	1
2	5233	927993.434202551537	0
2	5239	929982.824070495308	1
2	5241	929982.824070495308	0
2	5264	932528.540400262631	1
2	5266	932528.540400262631	0
2	5278	933523.705723421835	1
2	5281	933692.269077126264	2
2	5286	933807.481416498332	1
2	5291	934115.750441117528	0
2	5297	934689.869931720492	1
2	5299	934689.869931720492	0
2	5314	937124.566994668038	1
2	5316	937124.566994668038	0
2	5338	938748.723601718283	1
2	5340	938748.723601718283	0
2	5373	946819.397007027857	1
2	5375	946819.397007027857	0
2	5378	946821.418930403103	1
2	5383	947163.675726124865	0
2	5395	950689.025561997619	1
2	5400	950988.348542020301	0
2	5425	958000.107385388819	1
2	5427	958000.107385388819	0
2	5444	966301.815172660957	1
2	5446	966301.815172660957	0
2	5453	969020.967213695316	1
2	5455	969020.967213695316	0
2	5458	969244.755038164668	1
2	5463	969341.838419967866	0
2	5483	972750.763103255612	1
2	5488	973021.067403563382	0
2	5502	973659.960159938665	1
2	5504	973659.960159938665	0
2	5511	975734.293661800927	1
2	5513	975734.293661800927	0
2	5544	980851.280643480657	1
2	5546	980851.280643480657	0
2	5562	986017.159487464819	1
2	5564	986017.159487464819	0
2	5571	989209.324709535827	1
2	5573	989209.324709535827	0
2	5576	989360.698183524334	1
2	5579	989434.837697160402	2
2	5584	989536.336411109138	1
2	5589	989868.62817618359	0
2	5630	996488.374016486926	1
2	5632	996488.374016486926	0
2	5639	999085.44108983589	1
2	5641	999085.44108983589	0
2	5644	999202.256403778511	1
2	5649	999344.092720010097	0
2	5672	1003051.908053603869	1
2	5674	1003051.908053603869	0
2	5680	1003232.960528907623	1
2	5685	1003315.974722624857	0
3	836	144927.02233452395	0
3	877	148273.988320785391	0
3	885	148603.129868920342	0
3	894	150669.472784699982	0
3	902	151014.52535985984	169.8746938065
3	910	151931.321606672409	0
3	939	165863.446490046424	0
3	956	168164.247141715695	0
3	981	172153.64115379449	0
3	997	173316.76745231528	0
3	1006	174298.795429695977	0
3	1022	176276.516955297572	0
3	1031	178706.42955191799	0
3	1061	196125.805240135276	0
3	1069	197753.928056915456	0
3	1104	204233.64929541375	293.35697870331
3	1120	204774.239236126037	171.47285173306
3	1129	207270.685428468806	0
3	1137	208379.620570157597	0
3	1163	214051.689020960127	0
3	1180	216117.478202771962	0
3	1197	219173.305194137017	0
3	1213	220741.532869682444	0
3	1230	223980.057378183455	0
3	1239	225830.758404168591	0
3	1264	230029.69306199365	0
3	1272	230349.021413810643	197.92883738955
3	1290	234192.079992094388	0
3	1315	238192.365469051452	0
3	1332	240325.901384333974	0
3	1348	242279.207391550755	0
3	1366	246131.364200972599	0
3	1390	248054.042226224508	0
3	1407	249669.103371493059	0
3	1415	251420.464718657279	0
3	1424	253166.130295907763	0
3	1450	259461.584526697898	27.952835850708
3	1459	262763.063501405892	0
3	1484	266498.59171012589	0
3	1493	268119.583023537611	0
3	1519	273869.382924942949	265.6310405508
3	1544	277034.804577872937	0
3	1553	279334.944768762281	0
3	1561	279999.981634922302	0
3	1586	284861.055448166205	0
3	1595	286672.824497048271	0
3	1613	292431.975027371368	0
3	1631	297140.246955354075	0
3	1657	303805.882283108985	0
3	1665	304146.685732413657	179.34611912463
3	1700	314237.15941689874	0
3	1708	314622.347855662426	0
3	1725	317645.323640348819	160.3033866126
3	1743	321726.697025502695	0
3	1751	322039.336519890471	250.67909923366
3	1769	327700.809966014964	0
3	1795	335962.153980211163	0
3	1813	339243.577342938986	0
3	1838	342802.657949644703	0
3	1846	343554.813895003942	0
3	1863	346464.25102724163	242.3176140921
3	1888	350311.434053195238	0
3	1896	350694.027736022943	0
3	1905	353493.07297936841	0
3	1924	361623.429120753124	0
3	1942	366478.068073857209	0
3	1967	371555.54825567681	0
3	1984	373050.23410112902	0
3	2001	375871.211545013775	0
3	2009	376899.958124337262	0
3	2027	383595.752118652056	0
3	2053	388984.027094178892	0
3	2061	389326.708245316455	3.771702774305
3	2079	394804.934288432651	0
3	2113	400860.189603826952	0
3	2138	402383.274415261987	45.378969654376
3	2154	404259.05092202938	0
3	2163	405473.545322858677	0
3	2171	406067.338068686821	0
3	2179	406659.449643876771	0
3	2205	412628.689444430651	0
3	2222	414343.59594086874	0
3	2247	417900.031169761575	0
3	2255	418979.756435271009	0
3	2264	420992.123990429049	0
3	2298	427294.794140326074	0
3	2315	431016.171122102204	0
3	2323	431340.372963205785	319.00655031165
3	2332	432837.574941864256	0
3	2360	444248.087070634663	0
3	2377	447232.858471451165	0
3	2393	448015.194850404058	0
3	2410	451806.130203755561	0
3	2426	452446.467071832923	0
3	2435	455775.642552283444	0
3	2461	461418.687194073162	0
3	2478	463998.066322042957	0
3	2495	466295.813860275376	0
3	2512	469598.750262939664	0
3	2537	472373.68747420186	0
3	2546	474028.007080554315	0
3	2562	475081.628682581542	0
3	2587	478902.614073236796	529.66076877666
3	2596	481727.207437969961	0
3	2604	482098.084070716742	0
3	2630	486497.829390371514	0
3	2638	487681.759876805013	0
3	2680	493054.449881337158	99.479589279171
3	2688	494575.701001253277	0
3	2713	496183.751182772535	281.44555731947
3	2721	497124.954012560876	0
3	2738	499005.548008101591	0
3	2754	499853.875102892809	0
3	2763	501769.212036522737	0
3	2771	503671.696818999686	0
3	2813	509387.335132981243	0
3	2821	509693.758541810813	72.450445330261
3	2830	510768.242322173344	0
3	2846	512038.542841887665	0
3	2880	516389.189785718075	0
3	2888	517228.624105659725	0
3	2896	518070.866092931562	0
3	2904	518655.142391640333	0
3	2932	530996.327291919224	0
3	2950	534057.214076194723	231.24618145989
3	2991	537685.175699730325	0
3	2999	539281.076120948256	0
3	3007	539544.990808360169	188.73982679573
3	3015	539806.013338880877	190.44043398233
3	3024	540525.552122909444	0
3	3050	548228.351870544659	0
3	3058	548968.886547789491	0
3	3094	559441.77896733605	0
3	3122	561105.763424703906	165.81058950264
3	3127	561429.115372220065	451.66116870869
3	3160	564390.229142296626	0
3	3168	564732.691735903894	0
3	3176	565188.990972051083	0
3	3184	566313.151223389416	0
3	3193	567429.700933849571	0
3	3235	573510.377832623872	15.612022017757
3	3243	574179.391516257717	0
3	3251	574501.904325386758	0
3	3260	577641.049511374537	0
3	3277	581767.239812484345	0
3	3312	588615.769716912288	0
3	3320	589220.946897709106	0
3	3329	591035.421100362589	0
3	3362	595148.299564899402	70.971745919035
3	3387	598498.92583784191	0
3	3403	599141.854684096796	0
3	3412	600225.277666113942	0
3	3428	601724.579559998637	0
3	3436	602628.822729567736	0
3	3445	605161.302426268898	0
3	3471	611859.51726166414	0
3	3497	615698.631821877641	0
3	3514	618805.546616791758	85.62454307273
3	3522	619567.650481930379	0
3	3539	622130.624153323087	0
3	3556	625638.419200754182	0
3	3589	627969.322359388341	141.40754796345
3	3613	629714.84135387157	0
3	3622	630716.060450545583	0
3	3630	631002.806276174998	157.63742993579
3	3638	632474.316030581367	0
3	3647	633052.55597800064	0
3	3706	642283.185136464214	0
3	3722	642892.964778151271	242.39939196054
3	3738	643849.92625801998	0
3	3754	644686.343595211638	0
3	3763	645047.396635467513	0
3	3771	645943.367075977101	0
3	3779	646618.386103367591	0
3	3787	646920.470316044258	0
3	3796	648539.304808089849	0
3	3824	660884.087114774276	0
3	3832	661258.766172419889	0
3	3867	670406.531738909472	0
3	3883	671108.798732442528	164.32830194791
3	3900	672627.36815656919	0
3	3916	674462.883277778885	0
3	3925	675298.572031484799	0
3	3933	677547.134940313419	0
3	3955	695780.083180376349	0
3	3981	700872.724760292008	0
3	3990	702488.489005093276	0
3	4016	708919.264071263024	118.1522949546
3	4041	712727.164540517906	0
3	4057	713949.413758901074	0
3	4066	714876.338974441118	0
3	4083	717410.947174917842	0
3	4100	720392.00639707367	0
3	4132	722472.101890140958	0
3	4141	724899.777230671939	0
3	4149	725894.875145795103	0
3	4158	726555.904908897273	0
3	4183	730892.580686468642	0
3	4192	733548.619372411494	0
3	4228	745637.636401132929	0
3	4245	747376.814918442256	0
3	4261	748041.673312004817	275.1866763545
3	4278	750805.806667298296	0
3	4286	751816.042654336786	0
3	4294	752156.454957074316	0
3	4339	767209.943105970405	252.29246923659
3	4364	768684.825247550865	0
3	4372	770093.695386661457	0
3	4380	770714.777206795379	0
3	4389	771641.411851749852	0
3	4397	772042.106135523354	0
3	4424	780644.861448197066	0
3	4432	780959.883224181487	43.623210095249
3	4453	797139.210596201181	0
3	4488	805115.237482658362	0
3	4497	807985.536952974666	0
3	4505	808433.584740271124	0
3	4523	813842.395943723753	0
3	4549	819587.788800174078	0
3	4558	822184.147675575671	0
3	4585	831759.577745346208	247.87426453939
3	4594	835254.45982391105	0
3	4627	839736.137365942175	0
3	4652	841665.317432950343	0
3	4660	842518.880203527314	0
3	4669	844200.2100702165	0
3	4677	844561.181420178836	346.48102289015
3	4696	852494.989506502426	0
3	4739	861526.327982473887	0
3	4747	861836.516097871157	52.708997128894
3	4755	862199.54023418518	0
3	4763	862824.496702315338	0
3	4789	867775.768635886559	0
3	4798	870032.329745310544	0
3	4824	877343.48489581285	0
3	4832	878788.426556615777	0
3	4866	884829.656048380604	0
3	4875	887110.038623713593	0
3	4883	887478.541846404921	0
3	4909	892423.374639048559	0
3	4926	894394.743221705953	0
3	4951	897568.729605042175	33.384705167334
3	4967	898720.255733129531	0
3	4976	900650.687270560945	0
3	4984	901370.375989472253	0
3	5002	906987.808756098545	0
3	5036	914348.532889041998	128.3614143313
3	5061	915624.930631434208	0
3	5077	917381.926746125182	0
3	5094	918749.341556910119	0
3	5102	919057.528880228767	127.30006096601
3	5126	920069.548723639121	0
3	5159	921654.030209408319	159.5434136517
3	5167	922826.193118711435	0
3	5175	923326.18236113654	0
3	5192	924345.745850781578	0
3	5200	925015.728435986676	0
3	5208	925319.463393060423	141.97493835969
3	5225	927673.01447157863	0
3	5250	930898.469799732556	0
3	5258	931826.839623562503	0
3	5275	933480.555915669364	0
3	5308	936536.258255785318	0
3	5324	938084.087783947002	0
3	5332	938366.793703958797	216.87352891979
3	5349	939073.862898196561	175.81260050165
3	5357	941238.823155393681	0
3	5366	942026.646826142416	0
3	5392	950665.114082519153	0
3	5409	952075.629157212495	0
3	5418	955011.088978701132	0
3	5436	962069.665549465569	0
3	5471	970719.531153850816	0
3	5480	972705.02005252726	0
3	5496	973345.698488053141	197.47462850242
3	5521	976839.265081941439	0
3	5529	977405.679196837747	0
3	5538	979225.963868389658	0
3	5556	984461.156076581344	0
3	5598	990200.442876946035	0
3	5607	993047.469515486023	0
3	5615	993615.155701957515	0
3	5623	993982.823231681114	0
3	5657	1000434.195577300117	0
3	5666	1002645.874671415489	0
3	5690	1003611.735065406232	407.0968378098
4	834	144927.02233452395	1
4	836	144927.02233452395	0
4	875	148273.988320785391	1
4	877	148273.988320785391	0
4	883	148603.129868920342	1
4	885	148603.129868920342	0
4	892	150669.472784699982	1
4	894	150669.472784699982	0
4	897	150844.650666053339	1
4	902	151014.52535985984	0
4	908	151931.321606672409	1
4	910	151931.321606672409	0
4	937	165863.446490046424	1
4	939	165863.446490046424	0
4	954	168164.247141715695	1
4	956	168164.247141715695	0
4	979	172153.64115379449	1
4	981	172153.64115379449	0
4	995	173316.76745231528	1
4	997	173316.76745231528	0
4	1004	174298.795429695977	1
4	1006	174298.795429695977	0
4	1020	176276.516955297572	1
4	1022	176276.516955297572	0
4	1029	178706.42955191799	1
4	1031	178706.42955191799	0
4	1059	196125.805240135276	1
4	1061	196125.805240135276	0
4	1067	197753.928056915456	1
4	1069	197753.928056915456	0
4	1098	203940.292316710438	1
4	1104	204233.64929541375	0
4	1115	204602.766384392981	1
4	1120	204774.239236126037	0
4	1127	207270.685428468806	1
4	1129	207270.685428468806	0
4	1135	208379.620570157597	1
4	1137	208379.620570157597	0
4	1161	214051.689020960127	1
4	1163	214051.689020960127	0
4	1178	216117.478202771962	1
4	1180	216117.478202771962	0
4	1195	219173.305194137017	1
4	1197	219173.305194137017	0
4	1211	220741.532869682444	1
4	1213	220741.532869682444	0
4	1228	223980.057378183455	1
4	1230	223980.057378183455	0
4	1237	225830.758404168591	1
4	1239	225830.758404168591	0
4	1262	230029.69306199365	1
4	1264	230029.69306199365	0
4	1267	230151.092576421093	1
4	1272	230349.021413810643	0
4	1288	234192.079992094388	1
4	1290	234192.079992094388	0
4	1313	238192.365469051452	1
4	1315	238192.365469051452	0
4	1330	240325.901384333974	1
4	1332	240325.901384333974	0
4	1346	242279.207391550755	1
4	1348	242279.207391550755	0
4	1364	246131.364200972599	1
4	1366	246131.364200972599	0
4	1388	248054.042226224508	1
4	1390	248054.042226224508	0
4	1405	249669.103371493059	1
4	1407	249669.103371493059	0
4	1413	251420.464718657279	1
4	1415	251420.464718657279	0
4	1422	253166.130295907763	1
4	1424	253166.130295907763	0
4	1445	259433.63169084719	1
4	1450	259461.584526697898	0
4	1457	262763.063501405892	1
4	1459	262763.063501405892	0
4	1482	266498.59171012589	1
4	1484	266498.59171012589	0
4	1491	268119.583023537611	1
4	1493	268119.583023537611	0
4	1514	273603.751884392151	1
4	1519	273869.382924942949	0
4	1542	277034.804577872937	1
4	1544	277034.804577872937	0
4	1551	279334.944768762281	1
4	1553	279334.944768762281	0
4	1559	279999.981634922302	1
4	1561	279999.981634922302	0
4	1584	284861.055448166205	1
4	1586	284861.055448166205	0
4	1593	286672.824497048271	1
4	1595	286672.824497048271	0
4	1611	292431.975027371368	1
4	1613	292431.975027371368	0
4	1629	297140.246955354075	1
4	1631	297140.246955354075	0
4	1655	303805.882283108985	1
4	1657	303805.882283108985	0
4	1660	303967.339613289027	1
4	1665	304146.685732413657	0
4	1698	314237.15941689874	1
4	1700	314237.15941689874	0
4	1706	314622.347855662426	1
4	1708	314622.347855662426	0
4	1720	317485.020253736222	1
4	1725	317645.323640348819	0
4	1741	321726.697025502695	1
4	1743	321726.697025502695	0
4	1746	321788.657420656811	1
4	1751	322039.336519890471	0
4	1767	327700.809966014964	1
4	1769	327700.809966014964	0
4	1793	335962.153980211163	1
4	1795	335962.153980211163	0
4	1811	339243.577342938986	1
4	1813	339243.577342938986	0
4	1836	342802.657949644703	1
4	1838	342802.657949644703	0
4	1844	343554.813895003942	1
4	1846	343554.813895003942	0
4	1858	346221.933413149526	1
4	1863	346464.25102724163	0
4	1886	350311.434053195238	1
4	1888	350311.434053195238	0
4	1894	350694.027736022943	1
4	1896	350694.027736022943	0
4	1903	353493.07297936841	1
4	1905	353493.07297936841	0
4	1922	361623.429120753124	1
4	1924	361623.429120753124	0
4	1940	366478.068073857209	1
4	1942	366478.068073857209	0
4	1965	371555.54825567681	1
4	1967	371555.54825567681	0
4	1982	373050.23410112902	1
4	1984	373050.23410112902	0
4	1999	375871.211545013775	1
4	2001	375871.211545013775	0
4	2007	376899.958124337262	1
4	2009	376899.958124337262	0
4	2025	383595.752118652056	1
4	2027	383595.752118652056	0
4	2051	388984.027094178892	1
4	2053	388984.027094178892	0
4	2056	389322.93654254215	1
4	2061	389326.708245316455	0
4	2077	394804.934288432651	1
4	2079	394804.934288432651	0
4	2111	400860.189603826952	1
4	2113	400860.189603826952	0
4	2133	402337.895445607611	1
4	2138	402383.274415261987	0
4	2152	404259.05092202938	1
4	2154	404259.05092202938	0
4	2161	405473.545322858677	1
4	2163	405473.545322858677	0
4	2169	406067.338068686821	1
4	2171	406067.338068686821	0
4	2177	406659.449643876771	1
4	2179	406659.449643876771	0
4	2203	412628.689444430651	1
4	2205	412628.689444430651	0
4	2220	414343.59594086874	1
4	2222	414343.59594086874	0
4	2245	417900.031169761575	1
4	2247	417900.031169761575	0
4	2253	418979.756435271009	1
4	2255	418979.756435271009	0
4	2262	420992.123990429049	1
4	2264	420992.123990429049	0
4	2296	427294.794140326074	1
4	2298	427294.794140326074	0
4	2313	431016.171122102204	1
4	2315	431016.171122102204	0
4	2318	431021.36641289414	1
4	2323	431340.372963205785	0
4	2330	432837.574941864256	1
4	2332	432837.574941864256	0
4	2358	444248.087070634663	1
4	2360	444248.087070634663	0
4	2375	447232.858471451165	1
4	2377	447232.858471451165	0
4	2391	448015.194850404058	1
4	2393	448015.194850404058	0
4	2408	451806.130203755561	1
4	2410	451806.130203755561	0
4	2424	452446.467071832923	1
4	2426	452446.467071832923	0
4	2433	455775.642552283444	1
4	2435	455775.642552283444	0
4	2459	461418.687194073162	1
4	2461	461418.687194073162	0
4	2476	463998.066322042957	1
4	2478	463998.066322042957	0
4	2493	466295.813860275376	1
4	2495	466295.813860275376	0
4	2510	469598.750262939664	1
4	2512	469598.750262939664	0
4	2535	472373.68747420186	1
4	2537	472373.68747420186	0
4	2544	474028.007080554315	1
4	2546	474028.007080554315	0
4	2560	475081.628682581542	1
4	2562	475081.628682581542	0
4	2577	478372.953304460133	1
4	2587	478902.614073236796	0
4	2594	481727.207437969961	1
4	2596	481727.207437969961	0
4	2602	482098.084070716742	1
4	2604	482098.084070716742	0
4	2628	486497.829390371514	1
4	2630	486497.829390371514	0
4	2636	487681.759876805013	1
4	2638	487681.759876805013	0
4	2675	492954.970292057987	1
4	2680	493054.449881337158	0
4	2686	494575.701001253277	1
4	2688	494575.701001253277	0
4	2708	495902.30562545306	1
4	2713	496183.751182772535	0
4	2719	497124.954012560876	1
4	2721	497124.954012560876	0
4	2736	499005.548008101591	1
4	2738	499005.548008101591	0
4	2752	499853.875102892809	1
4	2754	499853.875102892809	0
4	2761	501769.212036522737	1
4	2763	501769.212036522737	0
4	2769	503671.696818999686	1
4	2771	503671.696818999686	0
4	2811	509387.335132981243	1
4	2813	509387.335132981243	0
4	2816	509621.308096480552	1
4	2821	509693.758541810813	0
4	2828	510768.242322173344	1
4	2830	510768.242322173344	0
4	2844	512038.542841887665	1
4	2846	512038.542841887665	0
4	2878	516389.189785718075	1
4	2880	516389.189785718075	0
4	2886	517228.624105659725	1
4	2888	517228.624105659725	0
4	2894	518070.866092931562	1
4	2896	518070.866092931562	0
4	2902	518655.142391640333	1
4	2904	518655.142391640333	0
4	2930	530996.327291919224	1
4	2932	530996.327291919224	0
4	2944	533825.967894734828	1
4	2950	534057.214076194723	0
4	2989	537685.175699730325	1
4	2991	537685.175699730325	0
4	2997	539281.076120948256	1
4	2999	539281.076120948256	0
4	3002	539356.25098156444	1
4	3007	539544.990808360169	0
4	3010	539615.572904898546	1
4	3015	539806.013338880877	0
4	3022	540525.552122909444	1
4	3024	540525.552122909444	0
4	3048	548228.351870544659	1
4	3050	548228.351870544659	0
4	3056	548968.886547789491	1
4	3058	548968.886547789491	0
4	3092	559441.77896733605	1
4	3094	559441.77896733605	0
4	3113	560939.952835201266	1
4	3116	560977.454203511373	2
4	3122	561105.763424703906	1
4	3127	561429.115372220065	0
4	3158	564390.229142296626	1
4	3160	564390.229142296626	0
4	3166	564732.691735903894	1
4	3168	564732.691735903894	0
4	3174	565188.990972051083	1
4	3176	565188.990972051083	0
4	3182	566313.151223389416	1
4	3184	566313.151223389416	0
4	3191	567429.700933849571	1
4	3193	567429.700933849571	0
4	3230	573494.765810606115	1
4	3235	573510.377832623872	0
4	3241	574179.391516257717	1
4	3243	574179.391516257717	0
4	3249	574501.904325386758	1
4	3251	574501.904325386758	0
4	3258	577641.049511374537	1
4	3260	577641.049511374537	0
4	3275	581767.239812484345	1
4	3277	581767.239812484345	0
4	3310	588615.769716912288	1
4	3312	588615.769716912288	0
4	3318	589220.946897709106	1
4	3320	589220.946897709106	0
4	3327	591035.421100362589	1
4	3329	591035.421100362589	0
4	3357	595077.327818980367	1
4	3362	595148.299564899402	0
4	3385	598498.92583784191	1
4	3387	598498.92583784191	0
4	3401	599141.854684096796	1
4	3403	599141.854684096796	0
4	3410	600225.277666113942	1
4	3412	600225.277666113942	0
4	3426	601724.579559998637	1
4	3428	601724.579559998637	0
4	3434	602628.822729567736	1
4	3436	602628.822729567736	0
4	3443	605161.302426268898	1
4	3445	605161.302426268898	0
4	3469	611859.51726166414	1
4	3471	611859.51726166414	0
4	3495	615698.631821877641	1
4	3497	615698.631821877641	0
4	3509	618719.922073719028	1
4	3514	618805.546616791758	0
4	3520	619567.650481930379	1
4	3522	619567.650481930379	0
4	3537	622130.624153323087	1
4	3539	622130.624153323087	0
4	3554	625638.419200754182	1
4	3556	625638.419200754182	0
4	3584	627827.914811424893	1
4	3589	627969.322359388341	0
4	3611	629714.84135387157	1
4	3613	629714.84135387157	0
4	3620	630716.060450545583	1
4	3622	630716.060450545583	0
4	3625	630845.168846239206	1
4	3630	631002.806276174998	0
4	3636	632474.316030581367	1
4	3638	632474.316030581367	0
4	3645	633052.55597800064	1
4	3647	633052.55597800064	0
4	3704	642283.185136464214	1
4	3706	642283.185136464214	0
4	3717	642650.565386190726	1
4	3722	642892.964778151271	0
4	3736	643849.92625801998	1
4	3738	643849.92625801998	0
4	3752	644686.343595211638	1
4	3754	644686.343595211638	0
4	3761	645047.396635467513	1
4	3763	645047.396635467513	0
4	3769	645943.367075977101	1
4	3771	645943.367075977101	0
4	3777	646618.386103367591	1
4	3779	646618.386103367591	0
4	3785	646920.470316044258	1
4	3787	646920.470316044258	0
4	3794	648539.304808089849	1
4	3796	648539.304808089849	0
4	3822	660884.087114774276	1
4	3824	660884.087114774276	0
4	3830	661258.766172419889	1
4	3832	661258.766172419889	0
4	3865	670406.531738909472	1
4	3867	670406.531738909472	0
4	3878	670944.470430494623	1
4	3883	671108.798732442528	0
4	3898	672627.36815656919	1
4	3900	672627.36815656919	0
4	3914	674462.883277778885	1
4	3916	674462.883277778885	0
4	3923	675298.572031484799	1
4	3925	675298.572031484799	0
4	3931	677547.134940313419	1
4	3933	677547.134940313419	0
4	3953	695780.083180376349	1
4	3955	695780.083180376349	0
4	3979	700872.724760292008	1
4	3981	700872.724760292008	0
4	3988	702488.489005093276	1
4	3990	702488.489005093276	0
4	4011	708801.111776308423	1
4	4016	708919.264071263024	0
4	4039	712727.164540517906	1
4	4041	712727.164540517906	0
4	4055	713949.413758901074	1
4	4057	713949.413758901074	0
4	4064	714876.338974441118	1
4	4066	714876.338974441118	0
4	4081	717410.947174917842	1
4	4083	717410.947174917842	0
4	4098	720392.00639707367	1
4	4100	720392.00639707367	0
4	4130	722472.101890140958	1
4	4132	722472.101890140958	0
4	4139	724899.777230671939	1
4	4141	724899.777230671939	0
4	4147	725894.875145795103	1
4	4149	725894.875145795103	0
4	4156	726555.904908897273	1
4	4158	726555.904908897273	0
4	4181	730892.580686468642	1
4	4183	730892.580686468642	0
4	4190	733548.619372411494	1
4	4192	733548.619372411494	0
4	4226	745637.636401132929	1
4	4228	745637.636401132929	0
4	4243	747376.814918442256	1
4	4245	747376.814918442256	0
4	4256	747766.486635650321	1
4	4261	748041.673312004817	0
4	4276	750805.806667298296	1
4	4278	750805.806667298296	0
4	4284	751816.042654336786	1
4	4286	751816.042654336786	0
4	4292	752156.454957074316	1
4	4294	752156.454957074316	0
4	4334	766957.650636733818	1
4	4339	767209.943105970405	0
4	4362	768684.825247550865	1
4	4364	768684.825247550865	0
4	4370	770093.695386661457	1
4	4372	770093.695386661457	0
4	4378	770714.777206795379	1
4	4380	770714.777206795379	0
4	4387	771641.411851749852	1
4	4389	771641.411851749852	0
4	4395	772042.106135523354	1
4	4397	772042.106135523354	0
4	4422	780644.861448197066	1
4	4424	780644.861448197066	0
4	4427	780916.260014086238	1
4	4432	780959.883224181487	0
4	4451	797139.210596201181	1
4	4453	797139.210596201181	0
4	4486	805115.237482658362	1
4	4488	805115.237482658362	0
4	4495	807985.536952974666	1
4	4497	807985.536952974666	0
4	4503	808433.584740271124	1
4	4505	808433.584740271124	0
4	4521	813842.395943723753	1
4	4523	813842.395943723753	0
4	4547	819587.788800174078	1
4	4549	819587.788800174078	0
4	4556	822184.147675575671	1
4	4558	822184.147675575671	0
4	4580	831511.703480806816	1
4	4585	831759.577745346208	0
4	4592	835254.45982391105	1
4	4594	835254.45982391105	0
4	4625	839736.137365942175	1
4	4627	839736.137365942175	0
4	4650	841665.317432950343	1
4	4652	841665.317432950343	0
4	4658	842518.880203527314	1
4	4660	842518.880203527314	0
4	4667	844200.2100702165	1
4	4669	844200.2100702165	0
4	4672	844214.70039728869	1
4	4677	844561.181420178836	0
4	4694	852494.989506502426	1
4	4696	852494.989506502426	0
4	4737	861526.327982473887	1
4	4739	861526.327982473887	0
4	4742	861783.807100742263	1
4	4747	861836.516097871157	0
4	4753	862199.54023418518	1
4	4755	862199.54023418518	0
4	4761	862824.496702315338	1
4	4763	862824.496702315338	0
4	4787	867775.768635886559	1
4	4789	867775.768635886559	0
4	4796	870032.329745310544	1
4	4798	870032.329745310544	0
4	4822	877343.48489581285	1
4	4824	877343.48489581285	0
4	4830	878788.426556615777	1
4	4832	878788.426556615777	0
4	4864	884829.656048380604	1
4	4866	884829.656048380604	0
4	4873	887110.038623713593	1
4	4875	887110.038623713593	0
4	4881	887478.541846404921	1
4	4883	887478.541846404921	0
4	4907	892423.374639048559	1
4	4909	892423.374639048559	0
4	4924	894394.743221705953	1
4	4926	894394.743221705953	0
4	4946	897535.344899874841	1
4	4951	897568.729605042175	0
4	4965	898720.255733129531	1
4	4967	898720.255733129531	0
4	4974	900650.687270560945	1
4	4976	900650.687270560945	0
4	4982	901370.375989472253	1
4	4984	901370.375989472253	0
4	5000	906987.808756098545	1
4	5002	906987.808756098545	0
4	5031	914220.171474710699	1
4	5036	914348.532889041998	0
4	5059	915624.930631434208	1
4	5061	915624.930631434208	0
4	5075	917381.926746125182	1
4	5077	917381.926746125182	0
4	5092	918749.341556910119	1
4	5094	918749.341556910119	0
4	5097	918930.228819262758	1
4	5102	919057.528880228767	0
4	5124	920069.548723639121	1
4	5126	920069.548723639121	0
4	5154	921494.486795756618	1
4	5159	921654.030209408319	0
4	5165	922826.193118711435	1
4	5167	922826.193118711435	0
4	5173	923326.18236113654	1
4	5175	923326.18236113654	0
4	5190	924345.745850781578	1
4	5192	924345.745850781578	0
4	5198	925015.728435986676	1
4	5200	925015.728435986676	0
4	5203	925177.488454700732	1
4	5208	925319.463393060423	0
4	5223	927673.01447157863	1
4	5225	927673.01447157863	0
4	5248	930898.469799732556	1
4	5250	930898.469799732556	0
4	5256	931826.839623562503	1
4	5258	931826.839623562503	0
4	5273	933480.555915669364	1
4	5275	933480.555915669364	0
4	5306	936536.258255785318	1
4	5308	936536.258255785318	0
4	5322	938084.087783947002	1
4	5324	938084.087783947002	0
4	5327	938149.920175039011	1
4	5332	938366.793703958797	0
4	5343	938898.050297694907	1
4	5349	939073.862898196561	0
4	5355	941238.823155393681	1
4	5357	941238.823155393681	0
4	5364	942026.646826142416	1
4	5366	942026.646826142416	0
4	5390	950665.114082519153	1
4	5392	950665.114082519153	0
4	5407	952075.629157212495	1
4	5409	952075.629157212495	0
4	5416	955011.088978701132	1
4	5418	955011.088978701132	0
4	5434	962069.665549465569	1
4	5436	962069.665549465569	0
4	5469	970719.531153850816	1
4	5471	970719.531153850816	0
4	5478	972705.02005252726	1
4	5480	972705.02005252726	0
4	5491	973148.223859550723	1
4	5496	973345.698488053141	0
4	5519	976839.265081941439	1
4	5521	976839.265081941439	0
4	5527	977405.679196837747	1
4	5529	977405.679196837747	0
4	5536	979225.963868389658	1
4	5538	979225.963868389658	0
4	5554	984461.156076581344	1
4	5556	984461.156076581344	0
4	5596	990200.442876946035	1
4	5598	990200.442876946035	0
4	5605	993047.469515486023	1
4	5607	993047.469515486023	0
4	5613	993615.155701957515	1
4	5615	993615.155701957515	0
4	5621	993982.823231681114	1
4	5623	993982.823231681114	0
4	5655	1000434.195577300117	1
4	5657	1000434.195577300117	0
4	5664	1002645.874671415489	1
4	5666	1002645.874671415489	0
4	5677	1003204.638227596433	1
4	5690	1003611.735065406232	0
5	823	141000	1
5	824	144000	0
5	862	147000	3
5	890	150000	2
5	915	153000	0
5	916	156000	0
5	917	159000	0
5	923	162000	0
5	932	165000	1
5	949	168000	1
5	977	171000	3
5	1002	174000	1
5	1027	177000	1
5	1036	180000	0
5	1037	183000	0
5	1038	186000	0
5	1039	189000	0
5	1045	192000	0
5	1057	195000	2
5	1071	198000	0
5	1088	201000	1
5	1100	204000	1
5	1125	207000	2
5	1147	210000	0
5	1159	213000	2
5	1176	216000	1
5	1193	219000	1
5	1226	222000	2
5	1235	225000	0
5	1260	228000	2
5	1285	231000	1
5	1286	234000	0
5	1311	237000	2
5	1328	240000	1
5	1353	243000	1
5	1362	246000	1
5	1400	249000	2
5	1420	252000	1
5	1429	255000	0
5	1438	258000	1
5	1455	261000	1
5	1472	264000	1
5	1489	267000	1
5	1506	270000	1
5	1507	273000	0
5	1532	276000	2
5	1549	279000	1
5	1574	282000	1
5	1588	285000	1
5	1600	288000	0
5	1609	291000	1
5	1626	294000	1
5	1627	297000	0
5	1636	300000	0
5	1653	303000	2
5	1670	306000	0
5	1671	309000	0
5	1688	312000	2
5	1713	315000	1
5	1735	318000	1
5	1739	321000	1
5	1761	324000	0
5	1765	327000	1
5	1774	330000	0
5	1783	333000	1
5	1797	336000	1
5	1806	339000	0
5	1826	342000	2
5	1851	345000	1
5	1876	348000	2
5	1901	351000	1
5	1910	354000	0
5	1911	357000	0
5	1920	360000	1
5	1937	363000	1
5	1938	366000	0
5	1955	369000	1
5	1977	372000	1
5	1997	375000	2
5	2014	378000	0
5	2023	381000	1
5	2032	384000	0
5	2049	387000	2
5	2066	390000	0
5	2075	393000	1
5	2084	396000	0
5	2101	399000	2
5	2126	402000	2
5	2159	405000	2
5	2184	408000	0
5	2198	411000	1
5	2215	414000	1
5	2240	417000	2
5	2260	420000	1
5	2269	423000	0
5	2278	426000	1
5	2308	429000	2
5	2328	432000	1
5	2337	435000	0
5	2338	438000	0
5	2347	441000	1
5	2356	444000	1
5	2373	447000	1
5	2406	450000	2
5	2431	453000	1
5	2437	456000	0
5	2449	459000	1
5	2466	462000	1
5	2483	465000	1
5	2500	468000	1
5	2525	471000	2
5	2542	474000	1
5	2567	477000	1
5	2592	480000	2
5	2617	483000	1
5	2626	486000	1
5	2648	489000	0
5	2665	492000	2
5	2693	495000	2
5	2731	498000	2
5	2759	501000	2
5	2776	504000	0
5	2801	507000	3
5	2826	510000	1
5	2851	513000	1
5	2876	516000	3
5	2909	519000	0
5	2910	522000	0
5	2911	525000	0
5	2920	528000	1
5	2934	531000	1
5	2946	534000	0
5	2979	537000	4
5	3017	540000	1
5	3029	543000	0
5	3046	546000	2
5	3060	549000	0
5	3064	552000	0
5	3065	555000	0
5	3090	558000	3
5	3118	561000	1
5	3156	564000	4
5	3189	567000	0
5	3203	570000	0
5	3223	573000	3
5	3256	576000	1
5	3273	579000	1
5	3279	582000	0
5	3288	585000	0
5	3308	588000	3
5	3325	591000	0
5	3342	594000	1
5	3375	597000	3
5	3408	600000	2
5	3441	603000	1
5	3450	606000	0
5	3459	609000	1
5	3473	612000	1
5	3490	615000	1
5	3502	618000	1
5	3527	621000	1
5	3544	624000	1
5	3577	627000	3
5	3618	630000	3
5	3643	633000	0
5	3652	636000	0
5	3661	639000	1
5	3702	642000	5
5	3759	645000	3
5	3792	648000	0
5	3801	651000	0
5	3802	654000	0
5	3808	657000	0
5	3820	660000	2
5	3837	663000	0
5	3838	666000	0
5	3860	669000	2
5	3896	672000	3
5	3921	675000	1
5	3938	678000	0
5	3939	681000	0
5	3940	684000	0
5	3941	687000	0
5	3942	690000	0
5	3951	693000	1
5	3957	696000	0
5	3969	699000	1
5	3986	702000	1
5	3995	705000	0
5	4004	708000	1
5	4021	711000	1
5	4059	714000	3
5	4076	717000	0
5	4096	720000	2
5	4137	723000	3
5	4151	726000	0
5	4171	729000	1
5	4188	732000	1
5	4197	735000	0
5	4198	738000	0
5	4199	741000	0
5	4221	744000	2
5	4241	747000	2
5	4274	750000	2
5	4299	753000	0
5	4300	756000	0
5	4301	759000	0
5	4302	762000	0
5	4311	765000	1
5	4357	768000	4
5	4382	771000	1
5	4402	774000	0
5	4408	777000	0
5	4420	780000	2
5	4437	783000	0
5	4438	786000	0
5	4439	789000	0
5	4440	792000	0
5	4449	795000	1
5	4458	798000	0
5	4459	801000	0
5	4476	804000	2
5	4493	807000	1
5	4518	810000	1
5	4519	813000	0
5	4533	816000	0
5	4545	819000	2
5	4554	822000	0
5	4563	825000	0
5	4572	828000	1
5	4573	831000	0
5	4590	834000	1
5	4607	837000	1
5	4632	840000	2
5	4665	843000	2
5	4682	846000	0
5	4691	849000	1
5	4692	852000	0
5	4701	855000	0
5	4715	858000	1
5	4735	861000	3
5	4773	864000	0
5	4785	867000	2
5	4794	870000	0
5	4808	873000	0
5	4820	876000	2
5	4834	879000	0
5	4846	882000	1
5	4868	885000	2
5	4888	888000	0
5	4905	891000	2
5	4919	894000	0
5	4939	897000	2
5	4972	900000	2
5	4989	903000	0
5	4998	906000	1
5	5007	909000	0
5	5016	912000	1
5	5046	915000	2
5	5087	918000	3
5	5147	921000	5
5	5188	924000	2
5	5218	927000	0
5	5243	930000	2
5	5271	933000	2
5	5304	936000	3
5	5345	939000	1
5	5362	942000	1
5	5371	945000	0
5	5388	948000	2
5	5402	951000	0
5	5414	954000	1
5	5423	957000	0
5	5432	960000	1
5	5441	963000	0
5	5442	966000	0
5	5451	969000	1
5	5476	972000	2
5	5509	975000	2
5	5534	978000	1
5	5548	981000	0
5	5552	984000	1
5	5569	987000	1
5	5591	990000	2
5	5603	993000	1
5	5628	996000	0
5	5637	999000	1
5	5662	1002000	2
6	823	141000	0
6	824	144000	0
6	862	147000	1
6	890	150000	2
6	915	153000	3
6	916	156000	0
6	917	159000	0
6	923	162000	0
6	932	165000	0
6	949	168000	1
6	977	171000	1
6	1002	174000	2
6	1027	177000	2
6	1036	180000	1
6	1037	183000	0
6	1038	186000	0
6	1039	189000	0
6	1045	192000	0
6	1057	195000	0
6	1071	198000	1
6	1088	201000	1
6	1100	204000	0
6	1125	207000	2
6	1147	210000	2
6	1159	213000	0
6	1176	216000	1
6	1193	219000	1
6	1226	222000	2
6	1235	225000	1
6	1260	228000	1
6	1285	231000	2
6	1286	234000	0
6	1311	237000	1
6	1328	240000	1
6	1353	243000	2
6	1362	246000	0
6	1400	249000	2
6	1420	252000	2
6	1429	255000	1
6	1438	258000	0
6	1455	261000	1
6	1472	264000	1
6	1489	267000	1
6	1506	270000	1
6	1507	273000	0
6	1532	276000	1
6	1549	279000	1
6	1574	282000	2
6	1588	285000	0
6	1600	288000	2
6	1609	291000	0
6	1626	294000	1
6	1627	297000	0
6	1636	300000	1
6	1653	303000	0
6	1670	306000	2
6	1671	309000	0
6	1688	312000	0
6	1713	315000	2
6	1735	318000	1
6	1739	321000	0
6	1761	324000	2
6	1765	327000	0
6	1774	330000	1
6	1783	333000	0
6	1797	336000	0
6	1806	339000	1
6	1826	342000	1
6	1851	345000	2
6	1876	348000	1
6	1901	351000	2
6	1910	354000	1
6	1911	357000	0
6	1920	360000	0
6	1937	363000	1
6	1938	366000	0
6	1955	369000	1
6	1977	372000	1
6	1997	375000	1
6	2014	378000	2
6	2023	381000	0
6	2032	384000	1
6	2049	387000	0
6	2066	390000	2
6	2075	393000	0
6	2084	396000	1
6	2101	399000	0
6	2126	402000	1
6	2159	405000	2
6	2184	408000	3
6	2198	411000	0
6	2215	414000	1
6	2240	417000	1
6	2260	420000	2
6	2269	423000	1
6	2278	426000	0
6	2308	429000	1
6	2328	432000	2
6	2337	435000	1
6	2338	438000	0
6	2347	441000	0
6	2356	444000	0
6	2373	447000	1
6	2406	450000	2
6	2431	453000	2
6	2437	456000	0
6	2449	459000	1
6	2466	462000	1
6	2483	465000	1
6	2500	468000	1
6	2525	471000	1
6	2542	474000	1
6	2567	477000	2
6	2592	480000	1
6	2617	483000	2
6	2626	486000	0
6	2648	489000	2
6	2665	492000	0
6	2693	495000	2
6	2731	498000	2
6	2759	501000	2
6	2776	504000	2
6	2801	507000	0
6	2826	510000	2
6	2851	513000	2
6	2876	516000	0
6	2909	519000	4
6	2910	522000	0
6	2911	525000	0
6	2920	528000	0
6	2934	531000	0
6	2946	534000	1
6	2979	537000	1
6	3017	540000	3
6	3029	543000	2
6	3046	546000	0
6	3060	549000	1
6	3064	552000	1
6	3065	555000	0
6	3090	558000	0
6	3118	561000	1
6	3156	564000	2
6	3189	567000	4
6	3203	570000	1
6	3223	573000	0
6	3256	576000	3
6	3273	579000	1
6	3279	582000	0
6	3288	585000	1
6	3308	588000	0
6	3325	591000	2
6	3342	594000	1
6	3375	597000	1
6	3408	600000	2
6	3441	603000	3
6	3450	606000	1
6	3459	609000	0
6	3473	612000	0
6	3490	615000	1
6	3502	618000	1
6	3527	621000	2
6	3544	624000	1
6	3577	627000	1
6	3618	630000	2
6	3643	633000	3
6	3652	636000	1
6	3661	639000	0
6	3702	642000	0
6	3759	645000	4
6	3792	648000	4
6	3801	651000	1
6	3802	654000	0
6	3808	657000	0
6	3820	660000	0
6	3837	663000	2
6	3838	666000	0
6	3860	669000	0
6	3896	672000	2
6	3921	675000	2
6	3938	678000	2
6	3939	681000	0
6	3940	684000	0
6	3941	687000	0
6	3942	690000	0
6	3951	693000	0
6	3957	696000	0
6	3969	699000	1
6	3986	702000	1
6	3995	705000	1
6	4004	708000	0
6	4021	711000	1
6	4059	714000	1
6	4076	717000	2
6	4096	720000	1
6	4137	723000	2
6	4151	726000	1
6	4171	729000	2
6	4188	732000	1
6	4197	735000	1
6	4198	738000	0
6	4199	741000	0
6	4221	744000	0
6	4241	747000	1
6	4274	750000	2
6	4299	753000	3
6	4300	756000	0
6	4301	759000	0
6	4302	762000	0
6	4311	765000	0
6	4357	768000	1
6	4382	771000	2
6	4402	774000	3
6	4408	777000	0
6	4420	780000	0
6	4437	783000	2
6	4438	786000	0
6	4439	789000	0
6	4440	792000	0
6	4449	795000	0
6	4458	798000	1
6	4459	801000	0
6	4476	804000	0
6	4493	807000	1
6	4518	810000	2
6	4519	813000	0
6	4533	816000	1
6	4545	819000	0
6	4554	822000	1
6	4563	825000	1
6	4572	828000	0
6	4573	831000	0
6	4590	834000	1
6	4607	837000	1
6	4632	840000	0
6	4665	843000	3
6	4682	846000	2
6	4691	849000	0
6	4692	852000	0
6	4701	855000	1
6	4715	858000	0
6	4735	861000	0
6	4773	864000	4
6	4785	867000	0
6	4794	870000	1
6	4808	873000	1
6	4820	876000	0
6	4834	879000	1
6	4846	882000	1
6	4868	885000	0
6	4888	888000	3
6	4905	891000	0
6	4919	894000	1
6	4939	897000	1
6	4972	900000	2
6	4989	903000	2
6	4998	906000	0
6	5007	909000	1
6	5016	912000	0
6	5046	915000	1
6	5087	918000	2
6	5147	921000	3
6	5188	924000	3
6	5218	927000	3
6	5243	930000	1
6	5271	933000	2
6	5304	936000	1
6	5345	939000	3
6	5362	942000	2
6	5371	945000	1
6	5388	948000	0
6	5402	951000	1
6	5414	954000	1
6	5423	957000	1
6	5432	960000	0
6	5441	963000	1
6	5442	966000	0
6	5451	969000	0
6	5476	972000	1
6	5509	975000	2
6	5534	978000	2
6	5548	981000	1
6	5552	984000	0
6	5569	987000	1
6	5591	990000	0
6	5603	993000	1
6	5628	996000	3
6	5637	999000	0
6	5662	1002000	1
7	821	140875.95491675481	1
7	831	144853.723317420747	2
7	833	144927.02233452395	1
7	847	145480.62313820598	2
7	858	146875.52026891774	3
7	864	147177.983466771836	4
7	872	147897.635166284171	5
7	874	148273.988320785391	4
7	882	148603.129868920342	3
7	891	150669.472784699982	2
7	896	150844.650666053339	1
7	907	151931.321606672409	0
7	925	162133.571481108801	1
7	934	165216.97772219285	2
7	936	165863.446490046424	1
7	951	168098.896753342805	2
7	953	168164.247141715695	1
7	967	169564.181127583107	2
7	975	170715.009981187441	3
7	978	172153.64115379449	2
7	992	172971.97069002264	3
7	994	173316.76745231528	2
7	1003	174298.795429695977	1
7	1017	175393.910121519513	2
7	1019	176276.516955297572	1
7	1028	178706.42955191799	0
7	1047	192314.991895536835	1
7	1055	193637.394449637643	2
7	1058	196125.805240135276	1
7	1066	197753.928056915456	0
7	1081	199837.280049800946	1
7	1090	201102.444784592633	2
7	1097	203940.292316710438	1
7	1102	204233.64929541375	2
7	1114	204602.766384392981	1
7	1118	204774.239236126037	2
7	1126	207270.685428468806	1
7	1134	208379.620570157597	0
7	1149	210084.934179599205	1
7	1157	212739.190447040794	2
7	1160	214051.689020960127	1
7	1174	215530.691535483501	2
7	1177	216117.478202771962	1
7	1191	216808.752433078072	2
7	1194	219173.305194137017	1
7	1208	220261.966504009066	2
7	1210	220741.532869682444	1
7	1224	221834.947596085407	2
7	1227	223980.057378183455	1
7	1236	225830.758404168591	0
7	1250	226396.713275165338	1
7	1258	226806.929312516409	2
7	1261	230029.69306199365	1
7	1266	230151.092576421093	0
7	1283	230976.012744740955	1
7	1287	234192.079992094388	0
7	1301	234878.646234275402	1
7	1309	236638.906393412937	2
7	1312	238192.365469051452	1
7	1326	238761.755746942888	2
7	1329	240325.901384333974	1
7	1343	241596.169260322425	2
7	1345	242279.207391550755	1
7	1360	244365.987852092033	2
7	1363	246131.364200972599	1
7	1377	246678.666243613814	2
7	1385	247843.032896411862	3
7	1387	248054.042226224508	2
7	1402	249269.264519710256	3
7	1404	249669.103371493059	2
7	1412	251420.464718657279	1
7	1421	253166.130295907763	0
7	1436	255483.412717662074	1
7	1444	259433.63169084719	0
7	1448	259461.584526697898	1
7	1456	262763.063501405892	0
7	1470	263355.286019954822	1
7	1479	264856.705408651543	2
7	1481	266498.59171012589	1
7	1490	268119.583023537611	0
7	1504	269102.033917212287	1
7	1513	273603.751884392151	0
7	1517	273869.382924942949	1
7	1530	275474.521257634961	2
7	1539	276457.724781830643	3
7	1541	277034.804577872937	2
7	1550	279334.944768762281	1
7	1558	279999.981634922302	0
7	1572	280670.292885166026	1
7	1581	283325.916174795265	2
7	1583	284861.055448166205	1
7	1592	286672.824497048271	0
7	1607	288659.239119241553	1
7	1610	292431.975027371368	0
7	1624	293039.530483894283	1
7	1628	297140.246955354075	0
7	1643	300305.066707828642	1
7	1651	300752.984273340661	2
7	1654	303805.882283108985	1
7	1659	303967.339613289027	0
7	1681	310805.723161480215	1
7	1686	311138.854550110634	2
7	1695	314200.950019445167	3
7	1697	314237.15941689874	2
7	1705	314622.347855662426	1
7	1719	317485.020253736222	0
7	1723	317645.323640348819	1
7	1737	318234.605658769868	2
7	1740	321726.697025502695	1
7	1745	321788.657420656811	0
7	1763	324199.140744564766	1
7	1766	327700.809966014964	0
7	1781	332385.156915656961	1
7	1790	335514.103463085368	2
7	1792	335962.153980211163	1
7	1808	339240.255817135668	2
7	1810	339243.577342938986	1
7	1824	340026.87634454911	2
7	1833	342566.455913045496	3
7	1835	342802.657949644703	2
7	1843	343554.813895003942	1
7	1857	346221.933413149526	0
7	1861	346464.25102724163	1
7	1874	347242.782043544288	2
7	1883	349675.861436540504	3
7	1885	350311.434053195238	2
7	1893	350694.027736022943	1
7	1902	353493.07297936841	0
7	1918	357339.993000104104	1
7	1921	361623.429120753124	0
7	1935	362469.251749905446	1
7	1939	366478.068073857209	0
7	1953	367333.59691884082	1
7	1962	369964.888122937363	2
7	1964	371555.54825567681	1
7	1979	372181.979087618979	2
7	1981	373050.23410112902	1
7	1995	373632.698693534592	2
7	1998	375871.211545013775	1
7	2006	376899.958124337262	0
7	2021	379955.695346066219	1
7	2024	383595.752118652056	0
7	2042	385539.697235055266	1
7	2047	385831.149096609388	2
7	2050	388984.027094178892	1
7	2055	389322.93654254215	0
7	2073	390813.207609314743	1
7	2076	394804.934288432651	0
7	2091	396757.081130416266	1
7	2099	398641.257858202448	2
7	2108	400407.546053817144	3
7	2110	400860.189603826952	2
7	2124	401954.498386205981	3
7	2132	402337.895445607611	2
7	2136	402383.274415261987	3
7	2149	403136.183982233755	4
7	2151	404259.05092202938	3
7	2160	405473.545322858677	2
7	2168	406067.338068686821	1
7	2176	406659.449643876771	0
7	2191	408462.988499507008	1
7	2200	411257.707627154729	2
7	2202	412628.689444430651	1
7	2217	414240.724158763287	2
7	2219	414343.59594086874	1
7	2233	415005.463931000369	2
7	2242	417178.108180710855	3
7	2244	417900.031169761575	2
7	2252	418979.756435271009	1
7	2261	420992.123990429049	0
7	2276	423626.778046174427	1
7	2288	426974.364585453132	2
7	2293	427256.907634589569	3
7	2295	427294.794140326074	2
7	2310	429189.17474719846	3
7	2312	431016.171122102204	2
7	2317	431021.36641289414	1
7	2329	432837.574941864256	0
7	2345	440652.919352073859	1
7	2354	443732.142508123313	2
7	2357	444248.087070634663	1
7	2371	444834.092841041015	2
7	2374	447232.858471451165	1
7	2388	447769.676602507742	2
7	2390	448015.194850404058	1
7	2404	448841.208605370586	2
7	2407	451806.130203755561	1
7	2421	452298.163174733734	2
7	2423	452446.467071832923	1
7	2432	455775.642552283444	0
7	2447	458089.977760062773	1
7	2456	460309.026252496147	2
7	2458	461418.687194073162	1
7	2473	463279.254269487321	2
7	2475	463998.066322042957	1
7	2490	465799.349484506565	2
7	2492	466295.813860275376	1
7	2507	469064.009965043558	2
7	2509	469598.750262939664	1
7	2523	470197.166567638906	2
7	2532	471629.359119777311	3
7	2534	472373.68747420186	2
7	2543	474028.007080554315	1
7	2557	475045.723012565587	2
7	2559	475081.628682581542	1
7	2576	478372.953304460133	0
7	2580	478617.542997281797	1
7	2585	478902.614073236796	2
7	2593	481727.207437969961	1
7	2601	482098.084070716742	0
7	2615	482732.467412595696	1
7	2624	484302.457402658911	2
7	2627	486497.829390371514	1
7	2635	487681.759876805013	0
7	2650	489199.201994185052	1
7	2658	491127.15792867668	2
7	2667	492064.388075935778	3
7	2674	492954.970292057987	2
7	2678	493054.449881337158	3
7	2685	494575.701001253277	2
7	2700	495729.217110911052	3
7	2707	495902.30562545306	2
7	2711	496183.751182772535	3
7	2718	497124.954012560876	2
7	2733	498050.365057109469	3
7	2735	499005.548008101591	2
7	2749	499811.209115173333	3
7	2751	499853.875102892809	2
7	2760	501769.212036522737	1
7	2768	503671.696818999686	0
7	2786	505327.669690974679	1
7	2791	505606.286759668421	2
7	2799	506930.836429358071	3
7	2808	507885.900194907831	4
7	2810	509387.335132981243	3
7	2815	509621.308096480552	2
7	2827	510768.242322173344	1
7	2841	511564.415004639637	2
7	2843	512038.542841887665	1
7	2858	513566.568144786388	2
7	2866	514012.069744532077	3
7	2874	514571.444074995155	4
7	2877	516389.189785718075	3
7	2885	517228.624105659725	2
7	2893	518070.866092931562	1
7	2901	518655.142391640333	0
7	2918	527770.425550601137	1
7	2927	530062.424261771326	2
7	2929	530996.327291919224	1
7	2943	533825.967894734828	0
7	2948	534057.214076194723	1
7	2961	535476.240909318559	2
7	2969	536079.025184491126	3
7	2977	536431.322616190038	4
7	2986	537368.879308298357	5
7	2988	537685.175699730325	4
7	2996	539281.076120948256	3
7	3001	539356.25098156444	2
7	3009	539615.572904898546	1
7	3021	540525.552122909444	0
7	3036	544732.329793476196	1
7	3044	545157.016827699282	2
7	3047	548228.351870544659	1
7	3055	548968.886547789491	0
7	3072	555988.73577704952	1
7	3083	557228.214717988617	2
7	3088	557561.383893041852	3
7	3091	559441.77896733605	2
7	3108	560814.37325245562	3
7	3112	560939.952835201266	2
7	3115	560977.454203511373	1
7	3120	561105.763424703906	2
7	3138	562059.504374926963	3
7	3146	562896.441326822069	4
7	3154	563365.52870850267	5
7	3157	564390.229142296626	4
7	3165	564732.691735903894	3
7	3173	565188.990972051083	2
7	3181	566313.151223389416	1
7	3190	567429.700933849571	0
7	3205	570273.566161681742	1
7	3213	570642.612307256137	2
7	3221	571249.761071879234	3
7	3229	573494.765810606115	2
7	3233	573510.377832623872	3
7	3240	574179.391516257717	2
7	3248	574501.904325386758	1
7	3257	577641.049511374537	0
7	3271	578400.702333867499	1
7	3274	581767.239812484345	0
7	3290	585171.226976558818	1
7	3298	586169.522733126274	2
7	3306	586918.849033102219	3
7	3309	588615.769716912288	2
7	3317	589220.946897709106	1
7	3326	591035.421100362589	0
7	3340	591960.846280035292	1
7	3352	594862.607949099903	2
7	3356	595077.327818980367	1
7	3360	595148.299564899402	2
7	3373	596580.431252570391	3
7	3382	598373.688632733845	4
7	3384	598498.92583784191	3
7	3398	599122.826586511867	4
7	3400	599141.854684096796	3
7	3409	600225.277666113942	2
7	3423	601673.242076408138	3
7	3425	601724.579559998637	2
7	3433	602628.822729567736	1
7	3442	605161.302426268898	0
7	3457	607966.20672053913	1
7	3466	611852.629805501812	2
7	3468	611859.51726166414	1
7	3486	614885.085340038854	2
7	3492	615232.148883706455	3
7	3494	615698.631821877641	2
7	3508	618719.922073719028	1
7	3512	618805.546616791758	2
7	3519	619567.650481930379	1
7	3534	621754.057372929625	2
7	3536	622130.624153323087	1
7	3551	625160.87603065553	2
7	3553	625638.419200754182	1
7	3570	626239.062033588074	2
7	3575	626571.406113040548	3
7	3583	627827.914811424893	2
7	3587	627969.322359388341	3
7	3600	628757.462382279359	4
7	3608	629139.844540396779	5
7	3610	629714.84135387157	4
7	3619	630716.060450545583	3
7	3624	630845.168846239206	2
7	3635	632474.316030581367	1
7	3644	633052.55597800064	0
7	3659	638680.482185951537	1
7	3668	639430.585723617843	2
7	3679	640327.652188575252	3
7	3684	640640.773763803793	4
7	3695	641526.347906410588	5
7	3700	641867.627055686627	6
7	3703	642283.185136464214	5
7	3716	642650.565386190726	4
7	3720	642892.964778151271	5
7	3733	643466.896484585227	6
7	3735	643849.92625801998	5
7	3749	644403.083822636042	6
7	3751	644686.343595211638	5
7	3760	645047.396635467513	4
7	3768	645943.367075977101	3
7	3776	646618.386103367591	2
7	3784	646920.470316044258	1
7	3793	648539.304808089849	0
7	3810	657232.104204191276	1
7	3818	657712.186256892757	2
7	3821	660884.087114774276	1
7	3829	661258.766172419889	0
7	3848	666974.520235369161	1
7	3853	667251.198965477229	2
7	3862	669199.950081810938	3
7	3864	670406.531738909472	2
7	3877	670944.470430494623	1
7	3881	671108.798732442528	2
7	3894	671803.525825679638	3
7	3897	672627.36815656919	2
7	3911	674076.681778945436	3
7	3913	674462.883277778885	2
7	3922	675298.572031484799	1
7	3930	677547.134940313419	0
7	3949	692177.697934941542	1
7	3952	695780.083180376349	0
7	3967	696584.642613039736	1
7	3976	699378.710491137383	2
7	3978	700872.724760292008	1
7	3987	702488.489005093276	0
7	4002	705586.233293914397	1
7	4010	708801.111776308423	0
7	4014	708919.264071263024	1
7	4031	711407.135093168769	2
7	4036	711710.139671417994	3
7	4038	712727.164540517906	2
7	4052	713898.091342384045	3
7	4054	713949.413758901074	2
7	4063	714876.338974441118	1
7	4078	717188.597140420444	2
7	4080	717410.947174917842	1
7	4094	718433.742865037117	2
7	4097	720392.00639707367	1
7	4111	721515.109629625362	2
7	4122	721922.429632270353	3
7	4127	722204.478980493015	4
7	4129	722472.101890140958	3
7	4138	724899.777230671939	2
7	4146	725894.875145795103	1
7	4155	726555.904908897273	0
7	4169	727243.677664515842	1
7	4178	729479.963435955555	2
7	4180	730892.580686468642	1
7	4189	733548.619372411494	0
7	4206	742121.204357570387	1
7	4217	743810.671933462242	2
7	4223	744092.833049012751	3
7	4225	745637.636401132929	2
7	4239	746609.76461376867	3
7	4242	747376.814918442256	2
7	4255	747766.486635650321	1
7	4259	748041.673312004817	2
7	4272	748620.121809985258	3
7	4275	750805.806667298296	2
7	4283	751816.042654336786	1
7	4291	752156.454957074316	0
7	4309	763194.387362602376	1
7	4318	765371.610784050711	2
7	4329	766904.007522511643	3
7	4333	766957.650636733818	2
7	4337	767209.943105970405	3
7	4350	767826.015161035398	4
7	4359	768249.455988625637	5
7	4361	768684.825247550865	4
7	4369	770093.695386661457	3
7	4377	770714.777206795379	2
7	4386	771641.411851749852	1
7	4394	772042.106135523354	0
7	4410	777235.66236907456	1
7	4418	777674.149494196954	2
7	4421	780644.861448197066	1
7	4426	780916.260014086238	0
7	4447	794165.843288036722	1
7	4450	797139.210596201181	0
7	4466	801499.168667388217	1
7	4474	803974.065009065061	2
7	4483	804581.814460125175	3
7	4485	805115.237482658362	2
7	4494	807985.536952974666	1
7	4502	808433.584740271124	0
7	4516	809933.96952903931	1
7	4520	813842.395943723753	0
7	4535	816187.531502886582	1
7	4543	818919.64841847889	2
7	4546	819587.788800174078	1
7	4555	822184.147675575671	0
7	4570	826878.724203060342	1
7	4579	831511.703480806816	0
7	4583	831759.577745346208	1
7	4591	835254.45982391105	0
7	4605	836345.606155000442	1
7	4617	838500.422270428009	2
7	4622	838810.429266930281	3
7	4624	839736.137365942175	2
7	4642	840360.816796996292	3
7	4647	840631.762721572835	4
7	4649	841665.317432950343	3
7	4657	842518.880203527314	2
7	4666	844200.2100702165	1
7	4671	844214.70039728869	0
7	4689	848801.384328073687	1
7	4693	852494.989506502426	0
7	4708	857497.262333411954	1
7	4720	858215.347306002865	2
7	4725	858494.51389012888	3
7	4733	859524.069873612685	4
7	4736	861526.327982473887	3
7	4741	861783.807100742263	2
7	4752	862199.54023418518	1
7	4760	862824.496702315338	0
7	4775	864159.971544374381	1
7	4783	865862.018342172345	2
7	4786	867775.768635886559	1
7	4795	870032.329745310544	0
7	4810	873232.102117461629	1
7	4818	875197.859414066619	2
7	4821	877343.48489581285	1
7	4829	878788.426556615777	0
7	4844	881663.233761219447	1
7	4853	882886.408760164808	2
7	4861	883499.818093886793	3
7	4863	884829.656048380604	2
7	4872	887110.038623713593	1
7	4880	887478.541846404921	0
7	4895	888521.119788550688	1
7	4903	890324.849304308462	2
7	4906	892423.374639048559	1
7	4921	894122.42365621072	2
7	4923	894394.743221705953	1
7	4937	895211.085659048304	2
7	4945	897535.344899874841	1
7	4949	897568.729605042175	2
7	4962	898175.762069890294	3
7	4964	898720.255733129531	2
7	4973	900650.687270560945	1
7	4981	901370.375989472253	0
7	4996	903661.111017137694	1
7	4999	906987.808756098545	0
7	5014	910631.232035293631	1
7	5023	912379.481650540494	2
7	5030	914220.171474710699	1
7	5034	914348.532889041998	2
7	5048	915000.175373903599	3
7	5056	915544.225864780373	4
7	5058	915624.930631434208	3
7	5072	916906.321040803361	4
7	5074	917381.926746125182	3
7	5089	918031.944811067601	4
7	5091	918749.341556910119	3
7	5096	918930.228819262758	2
7	5116	919601.80991706976	3
7	5121	919888.233994685155	4
7	5123	920069.548723639121	3
7	5140	920676.159808499457	4
7	5145	920962.855504192823	5
7	5153	921494.486795756618	4
7	5157	921654.030209408319	5
7	5164	922826.193118711435	4
7	5172	923326.18236113654	3
7	5186	923934.261137579029	4
7	5189	924345.745850781578	3
7	5197	925015.728435986676	2
7	5202	925177.488454700732	1
7	5220	927143.152037718056	2
7	5222	927673.01447157863	1
7	5236	928296.828447926956	2
7	5245	930307.553914582776	3
7	5247	930898.469799732556	2
7	5255	931826.839623562503	1
7	5269	932849.005943582941	2
7	5272	933480.555915669364	1
7	5289	934115.750441117528	2
7	5294	934404.809813280094	3
7	5302	935015.234799833698	4
7	5305	936536.258255785318	3
7	5319	937400.149696580251	4
7	5321	938084.087783947002	3
7	5326	938149.920175039011	2
7	5342	938898.050297694907	1
7	5347	939073.862898196561	2
7	5354	941238.823155393681	1
7	5363	942026.646826142416	0
7	5381	947163.675726124865	1
7	5386	947526.695544567931	2
7	5389	950665.114082519153	1
7	5404	951260.552341211588	2
7	5406	952075.629157212495	1
7	5415	955011.088978701132	0
7	5430	958261.892471923447	1
7	5433	962069.665549465569	0
7	5449	966597.065096571146	1
7	5461	969341.838419967866	2
7	5466	969659.055711680051	3
7	5468	970719.531153850816	2
7	5477	972705.02005252726	1
7	5490	973148.223859550723	0
7	5494	973345.698488053141	1
7	5507	973899.616284143036	2
7	5516	976031.915635550779	3
7	5518	976839.265081941439	2
7	5526	977405.679196837747	1
7	5535	979225.963868389658	0
7	5550	981171.985068841506	1
7	5553	984461.156076581344	0
7	5567	986334.211815494027	1
7	5582	989536.336411109138	2
7	5587	989868.62817618359	3
7	5593	990162.171212388085	4
7	5595	990200.442876946035	3
7	5604	993047.469515486023	2
7	5612	993615.155701957515	1
7	5620	993982.823231681114	0
7	5635	996811.581076906262	1
7	5647	999344.092720010097	2
7	5652	999647.34829617475	3
7	5654	1000434.195577300117	2
7	5663	1002645.874671415489	1
7	5676	1003204.638227596433	0
7	5683	1003315.974722624857	1
7	5688	1003611.735065406232	2
