version 2
run ResponseMeasurement-60-20170110-19:47:51-22941
attr configname ResponseMeasurement
attr datetime 20170110-19:47:51
attr experiment ResponseMeasurement
attr inifile responseStudy.ini
attr iterationvars ""
attr iterationvars2 $repetition=60
attr measurement ""
attr network controltower.SimNetwork
attr processid 22941
attr repetition 60
attr replication #60
attr resultdir results
attr runnumber 60
attr seedset 60
param SimNetwork.a.parkingLot.parkingDelay "truncnormal(60min, 6min)"
param SimNetwork.a.runway.landingTime "truncnormal(5min, 0.5min)"
param SimNetwork.a.runway.takeoffTime "truncnormal(5min, 0.5min)"
param SimNetwork.a.runway.throughputCheckInterval 50min
param SimNetwork.wg.interArrivalTime exponential(50min)

statistic SimNetwork.wg 	responseTime:stats
field count 322
field mean 6929.9879584892
field stddev 2590.3104071885
field sum 2231456.1226335
field sqrsum 17617780329.542
field min 3755.3078055918
field max 18312.011118156
attr source  responseTimeSignal
scalar SimNetwork.a.landingQueue 	queueLength:timeavg 	0.0123787160366
attr source  queueLengthSignal
statistic SimNetwork.a.landingQueue 	queueLength:stats
field count 646
field mean 0.50928792569659
field stddev 0.50951302551732
field sum 329
field sqrsum 335
field min 0
field max 2
attr source  queueLengthSignal
statistic SimNetwork.a.landingQueue 	queueTime:stats
field count 323
field mean 33.072459830101
field stddev 83.193822023636
field sum 10682.404525123
field sqrsum 2581923.66592
field min 0
field max 581.12946975398
attr source  queueTimeSignal
scalar SimNetwork.a.takeoffQueue 	queueLength:timeavg 	0.012620796711885
attr source  queueLengthSignal
statistic SimNetwork.a.takeoffQueue 	queueLength:stats
field count 644
field mean 0.50621118012422
field stddev 0.50652838375071
field sum 326
field sqrsum 330
field min 0
field max 2
attr source  queueLengthSignal
statistic SimNetwork.a.takeoffQueue 	queueTime:stats
field count 322
field mean 33.745183257322
field stddev 91.149236123242
field sum 10865.949008858
field sqrsum 3033600.2624867
field min 0
field max 613.53541652255
attr source  queueTimeSignal
scalar SimNetwork.a.parkingLot 	parkingOccupancy:timeavg 	1.3407005775715
attr source  parkingOccupancy
statistic SimNetwork.a.parkingLot 	parkingOccupancy:stats
field count 644
field mean 1.8012422360248
field stddev 1.1728917131515
field sum 1160
field sqrsum 2974
field min 0
field max 6
attr source  parkingOccupancy
