version 2
run ResponseMeasurement-94-20170110-19:48:02-22975
attr configname ResponseMeasurement
attr datetime 20170110-19:48:02
attr experiment ResponseMeasurement
attr inifile responseStudy.ini
attr iterationvars ""
attr iterationvars2 $repetition=94
attr measurement ""
attr network controltower.SimNetwork
attr processid 22975
attr repetition 94
attr replication #94
attr resultdir results
attr runnumber 94
attr seedset 94
param SimNetwork.a.parkingLot.parkingDelay "truncnormal(60min, 6min)"
param SimNetwork.a.runway.landingTime "truncnormal(5min, 0.5min)"
param SimNetwork.a.runway.takeoffTime "truncnormal(5min, 0.5min)"
param SimNetwork.a.runway.throughputCheckInterval 50min
param SimNetwork.wg.interArrivalTime exponential(50min)

vector 5  SimNetwork.a.runway  landedThroughput:vector  ETV
attr source  landedThroughputSignal
vector 6  SimNetwork.a.runway  tookoffThroughput:vector  ETV
attr source  tookoffThroughputSignal
vector 2  SimNetwork.a.landingQueue  queueLength:vector  ETV
attr source  queueLengthSignal
vector 1  SimNetwork.a.landingQueue  queueTime:vector  ETV
attr source  queueTimeSignal
vector 7  SimNetwork.a.parkingLot  parkingOccupancy:vector  ETV
attr source  parkingOccupancy
vector 4  SimNetwork.a.takeoffQueue  queueLength:vector  ETV
attr source  queueLengthSignal
vector 3  SimNetwork.a.takeoffQueue  queueTime:vector  ETV
attr source  queueTimeSignal
vector 0  SimNetwork.wg  responseTime:vector  ETV
attr source  responseTimeSignal
0	934	143239.785693131929	7703.2692259226
0	951	146650.559907152425	7452.1926231178
0	968	148180.125361017855	5702.3876261877
0	993	151824.726965592376	7603.0063894637
0	1002	153760.833629260918	6306.3112094382
0	1019	156501.734288650202	6500.3005010996
0	1027	158629.744592942465	7406.5122674332
0	1065	167587.029109488258	13538.338544417
0	1082	168230.183015174163	5084.4455644016
0	1087	168527.155906673762	5105.8233005791
0	1104	171697.646771912277	7720.5872500879
0	1112	172731.037991615661	5350.4919849034
0	1163	180851.243916516138	11594.44874507
0	1171	181298.409034832605	4408.3833948366
0	1179	181745.447333177979	4832.0871341626
0	1187	182493.17763152752	5362.7808929264
0	1196	183452.676735325252	5796.425792844
0	1214	189881.00893735189	10986.132638969
0	1242	194918.873739579935	9352.113646122
0	1248	195227.085471762274	4319.8191869134
0	1266	201763.301688992998	10579.154854745
0	1293	212831.466605413246	15157.484140474
0	1303	216329.186644261834	7718.0767751725
0	1324	231519.262918603871	19738.30936571
0	1360	236698.06790782423	9708.5482548371
0	1365	236985.311879476175	4220.9514801015
0	1377	238445.232697653231	5264.5285298825
0	1399	242402.794900883648	7686.938482858
0	1408	245485.104678091034	7176.8565451222
0	1440	250914.255201312303	9721.5016537853
0	1450	251494.321777634422	4928.9202693581
0	1475	254987.894564544339	7949.8710836489
0	1484	256504.283010030457	5652.6502701265
0	1495	257343.004416285085	5132.0189372801
0	1510	261663.372573818505	8194.710015383
0	1537	271142.42415616681	13841.159974277
0	1546	273806.506887068985	7351.9553158431
0	1571	278740.37347422582	8629.7071121293
0	1580	279884.150963898468	4914.0418207934
0	1598	285702.253891632064	10152.198651959
0	1616	291473.936122956198	9816.7764642254
0	1652	295768.01354917124	8609.4782117602
0	1657	296096.862077880304	4273.9599859504
0	1666	298370.793188925084	5989.2856949751
0	1700	303473.877429324801	8877.6377378686
0	1728	306652.844131761319	4726.8939458956
0	1733	306937.071037061872	8331.8489859358
0	1741	307290.428050863875	4792.40860742
0	1753	310488.674079389937	6985.6167362933
0	1767	314600.711580892622	8732.554397087
0	1794	322215.746679972305	12008.674549676
0	1811	325127.189290238648	7068.0686769732
0	1836	327449.117827685592	6459.4868105333
0	1861	330310.812504447691	6951.3810326384
0	1869	330988.172937914412	4709.8129972154
0	1878	333245.735665441877	6840.4280089696
0	1886	333612.392255589456	5008.7549622585
0	1922	346229.21360913999	17392.068546186
0	1934	348119.169671616915	5492.4260975763
0	1939	348445.502949136239	4341.5862608497
0	1959	352862.15438919185	8529.535155477
0	1981	356977.773748071309	8266.2692447062
0	1990	357777.229107131898	4986.640060558
0	2026	371799.912617089895	18361.711106323
0	2035	372370.71589370348	4422.0011108157
0	2043	373921.277048304715	5267.8757980131
0	2061	380878.789598310671	11402.313919504
0	2107	387200.108378613871	10049.121713486
0	2112	387498.416921448098	4875.4213231337
0	2123	388286.623869708003	4980.3710653458
0	2128	388550.064174738436	5240.7628702863
0	2163	397869.853837025261	13161.529291355
0	2172	399149.200277183252	5351.6591812661
0	2180	400506.86779061028	5603.6543732176
0	2208	412403.026184967025	16134.907630763
0	2216	413621.177782160459	5619.110331113
0	2235	420321.283104497798	11222.151859573
0	2262	429271.022836225368	13261.628162863
0	2279	432065.525021394329	7123.9163771333
0	2299	436085.526230473936	8093.7941925375
0	2304	436381.857705020613	5039.9360866803
0	2347	446362.473694313072	14215.122536039
0	2359	447969.576997453006	6089.3852597417
0	2364	448251.553466432483	4851.5505214554
0	2372	449719.279615645566	5961.5255656323
0	2400	459181.959338797451	13539.236129657
0	2417	462625.000960727942	7706.9620775118
0	2433	464559.214852455192	6369.0826232343
0	2442	467602.231908935569	7549.9703273561
0	2468	472027.50602509306	8218.2313353349
0	2479	473051.096281128809	5406.7678799173
0	2502	477234.696375121671	8463.4381426973
0	2511	481552.844633791729	8535.6761022697
0	2544	485574.668085795088	9129.7858400089
0	2553	487699.831241528942	6017.5072298074
0	2561	488295.972757132045	4520.4287521205
0	2588	496144.068433790742	11261.841564081
0	2597	499235.848740474461	6524.4499916119
0	2636	510137.721225231824	4078.2077608
0	2641	510414.072585043891	15662.665987282
0	2657	511887.230859232797	5441.9840782115
0	2666	514831.711494029124	7475.7973299258
0	2684	521305.547488534224	10351.03853112
0	2703	529114.584051024719	11856.956934175
0	2743	534846.926942485716	10311.884468222
0	2753	535386.302158711319	4725.1408624593
0	2770	537290.228633185573	6516.3483536423
0	2784	539087.605809173182	6065.2579799665
0	2819	540507.323127277106	5801.970794265
0	2831	543287.515051600705	4437.8895337615
0	2839	543580.56145186331	7128.2111351063
0	2847	543876.692797774629	5111.83106512
0	2852	544170.344552612717	4832.6253935579
0	2887	552296.306279157693	12916.333802017
0	2895	552646.527051160324	4288.4701887383
0	2904	555140.892780703699	6775.3332410131
0	2921	559424.421926668222	8029.1065548663
0	2948	567130.639924135777	11527.105081803
0	2956	567951.134193632587	4923.1988088272
0	3001	573837.543930832119	9487.3073355391
0	3006	574131.470453804892	4753.7236235787
0	3026	576310.355281378505	4996.883869177
0	3034	576628.172485327608	7157.2164165466
0	3048	579560.962616166981	8157.7948202987
0	3056	580541.691537791349	5417.019451837
0	3091	588163.119389248341	11761.715328533
0	3105	589513.553382425168	6033.0393933342
0	3123	590455.599817643002	5380.9219772956
0	3140	593524.810715175858	7769.3355722235
0	3149	594177.846969963782	4748.4286535455
0	3157	595480.515596822775	6020.972528942
0	3175	602527.422389831736	10640.414364195
0	3202	609220.002827070981	11030.109478424
0	3218	611440.627415327285	5942.5228808992
0	3235	613763.161153539535	6724.5747713239
0	3252	617618.641032880285	8079.5759676418
0	3261	620970.50304313819	7809.0759785892
0	3298	626692.186656232947	9900.2652500185
0	3315	627528.070539349654	5103.6173734441
0	3320	627861.091132935762	5004.3520339833
0	3329	630807.569669382889	6952.8648213535
0	3355	636268.924191115217	9849.4555916556
0	3371	638083.47110183909	6344.0242422727
0	3384	642290.910645295355	8924.4140543513
0	3449	647133.187223283025	9946.404342348
0	3457	647448.947992077208	5240.4520035848
0	3462	647767.81618146114	5199.8742925868
0	3479	649866.104380042668	6373.39768673
0	3493	650128.796666525851	4326.9461343803
0	3506	650701.379753916738	5144.9876862403
0	3511	650984.90434964602	5178.1886446169
0	3528	653916.241442623021	7715.5079663918
0	3537	655033.806871657663	5789.148448881
0	3561	656782.482134179783	6757.6065780808
0	3576	659802.271283168066	7479.6980530525
0	3587	660471.311127488427	5386.0541883144
0	3612	663799.054509649281	7567.4071039762
0	3637	666613.50564990394	6944.5644015691
0	3645	667023.401263211572	4700.2477351762
0	3654	669104.783790508664	6306.5818484636
0	3670	669950.795363933891	5145.0972157396
0	3703	672992.714724105419	7192.8996712314
0	3711	674191.228895314447	4794.7371372056
0	3719	674729.180128206778	4225.6186716621
0	3728	676055.203815931609	5133.1300236672
0	3761	680371.020132366707	8487.4507499279
0	3769	680815.685968148966	4714.2026664601
0	3802	683120.486782096181	6350.2062020244
0	3819	685541.791748574114	6369.7566117053
0	3827	686229.573210878127	5011.6225681496
0	3838	686546.928070623228	4618.406299157
0	3860	688843.47783848959	6721.3771557729
0	3877	690815.538839395172	6216.2026540584
0	3888	692875.911414433601	6418.0494258289
0	3894	693178.640405131906	4904.0182211238
0	3938	711222.646763146789	4193.1195589573
0	3948	711814.440188830544	22915.701053665
0	3957	714020.433046561737	6708.6746584624
0	3965	715086.715025996492	5586.8703623912
0	3983	721306.271766106434	10093.974269877
0	4025	726010.256165708727	9009.8410922107
0	4036	726359.867341405199	4210.6435834529
0	4044	726689.098227106968	5215.0366182538
0	4052	726989.604829279618	4788.1562663002
0	4082	730067.471496284651	7529.1005464452
0	4091	732259.410665516185	5422.6469458588
0	4099	733192.654392485537	5097.154209567
0	4125	738282.28143826239	9770.4900953625
0	4133	740527.165198476254	6456.8720760503
0	4151	745952.589956534448	9288.2794131741
0	4178	753882.261622527452	11818.036000548
0	4186	755997.49412663329	6270.3723447578
0	4240	764207.550157727447	12195.811579197
0	4245	764466.316301586479	3954.578112934
0	4254	765538.476774443668	4763.2417176452
0	4273	767197.526823408028	5198.3656421569
0	4278	767467.566100654682	4376.7347589928
0	4287	770416.976043267737	7054.6528322847
0	4329	774795.453750714669	8936.7616708287
0	4343	775286.880739959476	4674.4069446276
0	4369	776466.452240920403	5585.8667251175
0	4386	778068.576689899807	6614.3056196787
0	4405	779726.752553901861	4691.4436109234
0	4413	779998.707437355682	6466.6569419679
0	4419	780288.956133318966	5236.5575085734
0	4427	781865.105636405491	6424.5152308013
0	4447	783242.146413339964	5999.4669769135
0	4477	786801.234552428517	7681.8745732033
0	4485	787740.2336782479	5337.0210170045
0	4494	789888.14773095964	6718.9267119802
0	4502	791836.293686198518	5999.2124910329
0	4520	796442.067838284589	10253.753479725
0	4546	801113.716511420078	8451.6245575074
0	4563	804826.174277751989	8142.0442338692
0	4571	805751.652150556847	5151.855563157
0	4591	816768.090991758062	15173.995274119
0	4612	823084.049235082515	10490.150690361
0	4645	827761.801641567051	8531.9407512377
0	4651	828047.280312386425	5080.430756116
0	4659	830658.030564151493	6992.2763314169
0	4678	838654.291589861058	12650.074357059
0	4713	847338.036884010911	12777.655782129
0	4733	850337.399661625595	7807.9096893271
0	4738	850641.215310265905	4737.7718335477
0	4763	852698.979961129036	6624.1138895737
0	4779	854837.318848979162	5975.4240161356
0	4804	856415.331211593043	5578.9182001239
0	4812	857794.499982653098	5800.6696272355
0	4821	859485.162482011119	5917.7864770067
0	4829	860072.25305808003	5096.8131658319
0	4856	868109.138239675253	12561.059941578
0	4873	871592.078342533331	7660.2825047162
0	4881	872794.890178294749	5366.4023631454
0	4907	877489.893973253934	8672.0858686472
0	4916	879250.655747022241	5511.5989564799
0	4949	884563.894397289949	9567.701060206
0	4958	885015.273954810267	4912.7514491679
0	4977	886255.138011623958	5509.7936983283
0	4999	889726.993719099458	7158.1017429273
0	5015	890897.64464343165	5455.0314321213
0	5032	891886.248379986357	5858.4808345709
0	5064	893797.201668671121	6361.0452249644
0	5073	894867.248232817719	5069.0255363567
0	5084	896439.134463035185	5135.704497216
0	5089	896750.208977775343	4066.4864607492
0	5098	897040.594039183277	4633.0433851514
0	5132	905003.741231809344	12043.297710733
0	5157	906491.43600271594	5815.1357542567
0	5165	908744.545693248642	6005.9839914625
0	5177	909803.632295004968	5381.9833359733
0	5182	910113.820593277187	4629.5240607685
0	5225	920642.514556110245	14788.833414689
0	5234	921291.25611873371	5489.2401653263
0	5242	923588.098813314958	6965.3750592652
0	5251	924151.69326159143	4497.6252800969
0	5288	931395.639961005483	11457.890728496
0	5293	931684.74184678024	4992.7834146851
0	5308	934302.538640931547	6803.3466505854
0	5327	938013.660646968922	7277.064991314
0	5335	938913.177346668281	4902.2724880187
0	5362	946938.230339402006	12921.6469941
0	5370	947677.922973763727	4925.6435536118
0	5388	952174.762196093164	8333.4287934884
0	5423	962121.606490979622	14229.214850064
0	5432	963498.156808204994	3732.731701035
0	5440	964133.037741371271	6038.0088682576
0	5478	974511.336542759767	4483.5212225827
0	5483	974869.067057118183	14918.774367659
0	5493	978527.730175384296	7977.1091156217
0	5511	984023.182255983741	10387.202351875
0	5529	991866.271683150567	11610.327958673
0	5555	997022.607401981439	9736.5243380987
0	5563	997391.739883491898	5021.3578795102
1	923	142477.73773483016	0
1	940	144221.720576128714	0
1	957	147454.522419822698	0
1	974	150001.433787550569	0
1	982	151223.232325509222	0
1	1007	154048.690565070926	0
1	1034	163145.737450772514	0
1	1042	163459.327343604385	37.994737509764
1	1050	163977.059521824386	0
1	1067	167587.029109488258	206.483102776
1	1092	169256.795171446411	0
1	1118	176890.025639995987	0
1	1130	177225.115986319372	311.75578730398
1	1135	177510.511900317174	380.11516171608
1	1143	177810.304203177241	154.05326069599
1	1151	178894.876298383049	0
1	1201	185566.760093457907	0
1	1219	190907.266284848835	0
1	1227	191207.342220939511	23.195386691439
1	1253	197673.982464939432	0
1	1273	208611.109869089322	0
1	1282	211780.95355289393	0
1	1311	226989.519652987106	0
1	1329	232764.360399374666	0
1	1337	233180.704167770713	0
1	1346	234715.856418025643	0
1	1379	238445.232697653231	136.98456468437
1	1388	241192.753547527048	0
1	1414	246565.401508276324	0
1	1422	247038.023480895431	0
1	1442	250914.255201312303	62.622461408381
1	1456	252210.985479004981	0
1	1464	253468.662558435483	0
1	1497	257343.004416285085	41.740234395226
1	1516	266454.551571225845	0
1	1526	270110.666362096542	0
1	1551	274970.10914310507	0
1	1559	275550.055239673407	0
1	1585	281657.159658730841	0
1	1603	287158.535337411075	0
1	1621	291822.902091929939	0
1	1629	292381.507493949954	0
1	1638	294596.239691456197	0
1	1671	298605.222051126115	0
1	1680	301925.950185865757	0
1	1688	302498.019443443834	0
1	1705	303503.057343096608	0
1	1713	305868.157183805651	0
1	1755	310488.674079389937	281.60194909413
1	1774	318059.120613265439	0
1	1782	320989.631017152312	0
1	1799	323359.431471809313	0
1	1816	326278.35994069906	0
1	1824	326591.668637869237	186.36098139694
1	1841	328603.637293330979	0
1	1849	328939.92752273825	102.78245978452
1	1894	342626.743574040655	0
1	1902	344103.916688286539	0
1	1910	344428.559826002666	95.940592287777
1	1944	348711.504503365135	0
1	1961	352862.15438919185	71.565342617968
1	1969	353438.201510767026	0
1	1998	367948.714782887798	0
1	2006	368653.401250291566	0
1	2015	369476.475678806824	0
1	2049	377150.986665127492	0
1	2067	382622.995598314356	0
1	2075	383306.252804362184	0
1	2083	383635.106873183494	325.80556873133
1	2092	384708.324545670437	0
1	2135	393797.541095917179	0
1	2143	394903.213417392644	0
1	2152	396268.118554204015	0
1	2188	408002.067451047493	0
1	2196	409099.131244924979	0
1	2222	416009.394673362689	0
1	2241	424941.608644261001	0
1	2250	427991.732037936391	0
1	2267	431341.921618340281	0
1	2284	432147.351158274253	0
1	2311	441880.191737711315	0
1	2319	443400.002944977073	0
1	2327	443757.754050013285	0
1	2336	445642.7232091409	0
1	2379	454918.038883216146	0
1	2388	458190.132229220876	0
1	2405	460052.261581579419	0
1	2422	463809.274689758198	0
1	2447	467644.328401211523	0
1	2456	468771.25823242435	0
1	2481	473051.096281128809	33.927749606773
1	2490	476444.882245786188	0
1	2516	481682.32401172158	0
1	2525	483775.544005011517	0
1	2533	484882.226869710145	0
1	2568	492711.398748862519	0
1	2576	494751.406597761739	0
1	2604	506059.513464431833	0
1	2612	506445.24678102131	0
1	2621	507355.914164103374	0
1	2646	510954.508957413794	0
1	2672	517257.627116849918	0
1	2690	524535.042474263534	0
1	2708	530661.161296252068	0
1	2716	530971.575115175258	197.69483563195
1	2725	533022.347829206667	0
1	2745	534846.926942485716	141.57460947358
1	2758	536452.350316757049	0
1	2786	539087.605809173182	322.74407651852
1	2797	539409.380172890869	559.75465505171
1	2805	539709.765022176458	372.04586312162
1	2810	539976.924570467817	596.9520933275
1	2858	548358.056862422001	0
1	2866	548669.815418042786	304.25587835218
1	2875	551395.315371801918	0
1	2909	555603.534842333045	0
1	2927	563027.935384805399	0
1	2936	564350.236595293057	0
1	2961	569377.746830226153	0
1	2969	569705.12082120243	234.16475242145
1	2978	571313.471412201488	0
1	2986	571640.56236906624	237.39457319795
1	3011	575124.672085954299	0
1	3036	576628.172485327608	226.76842461272
1	3062	583480.51398909094	0
1	3071	585074.677840347397	0
1	3079	585755.475142952359	0
1	3107	589513.553382425168	84.135066006907
1	3115	589821.865455866902	362.32238798615
1	3129	591887.008025636269	0
1	3163	598189.893348646817	0
1	3181	605498.104534428123	0
1	3190	607038.586382215603	0
1	3207	609539.065065238512	0
1	3224	613161.427064548978	0
1	3241	616791.921406214416	0
1	3267	622424.4531659056	0
1	3275	622856.739098952458	0
1	3283	623854.704848029416	0
1	3300	626692.186656232947	272.71805677329
1	3334	631739.446859566374	0
1	3343	633366.49659094401	0
1	3360	637186.782880935004	0
1	3386	642290.910645295355	82.414656802997
1	3394	642567.941888874386	0
1	3402	643492.706693312653	0
1	3411	645556.392067676445	0
1	3422	645904.438676065103	102.58814391951
1	3436	646269.851326323688	463.1356212946
1	3441	646554.70344349502	353.96996726381
1	3468	649244.658422776676	0
1	3495	650128.796666525851	103.92111042688
1	3517	652322.573230115557	0
1	3542	655085.256939174042	0
1	3550	656231.647405673076	0
1	3578	659802.271283168066	133.33003483319
1	3592	662323.153528035322	0
1	3600	662798.201942045097	0
1	3617	664805.698148194242	0
1	3625	665799.815052874053	0
1	3659	669396.491758108887	0
1	3675	670503.561456544653	0
1	3683	670922.073792264416	0
1	3691	671883.56938243879	0
1	3733	676101.483301688883	0
1	3741	676770.280580071815	0
1	3750	679172.035136868784	0
1	3775	681217.950642728554	0
1	3783	681928.521771466257	0
1	3791	682301.151867818315	179.05118510163
1	3808	684599.336185336813	0
1	3840	686546.928070623228	89.066082018503
1	3849	688274.622184008075	0
1	3865	688898.739135165474	0
1	3903	707029.527204189486	0
1	3911	707311.758388099365	0
1	3920	709499.844663605278	0
1	3940	711222.646763146789	10.349266917523
1	3971	717000.415073498026	0
1	3988	721474.061608853187	0
1	3996	722149.2237579523	0
1	4004	722477.01408671505	275.5655237356
1	4012	722766.331196223272	227.96024638387
1	4054	726989.604829279618	152.84110962225
1	4062	728095.500182918576	0
1	4070	728511.791342899896	0
1	4104	734070.293122425982	0
1	4113	736664.310543360376	0
1	4139	742064.22562197972	0
1	4157	749727.121781875476	0
1	4166	752011.7385785304	0
1	4193	760511.738188652446	0
1	4201	760810.741868588857	35.506811790412
1	4209	761999.161181251087	0
1	4218	763090.83134166185	0
1	4226	763391.03254774771	28.709336764672
1	4259	765858.692079886016	0
1	4292	770612.473795331908	0
1	4300	770896.730316439642	16.144800636747
1	4309	771454.271070221153	0
1	4317	773532.050495387817	0
1	4345	775286.880739959476	251.57179698104
1	4356	775599.508501276651	547.10987653112
1	4361	775881.62203829188	441.03163268765
1	4375	777242.679436426414	0
1	4391	779119.359979225255	0
1	4432	782403.21266124342	0
1	4449	783242.146413339964	72.925394360534
1	4457	785837.08119516564	0
1	4466	786188.314358559871	0
1	4508	792662.091953912715	0
1	4525	796684.130043882752	0
1	4534	800599.796587399865	0
1	4551	801594.095717638801	0
1	4578	812593.898544721067	0
1	4597	819229.860890329327	0
1	4614	823084.049235082515	117.19967881212
1	4622	823665.754232734594	0
1	4631	826004.217232802513	0
1	4666	834560.381101882111	0
1	4684	842529.489972298489	0
1	4693	845903.44347671823	0
1	4702	846186.008867603738	111.14279604841
1	4718	848861.89483284353	0
1	4743	850836.413011469179	0
1	4751	851993.830355417634	0
1	4768	853567.376005004401	0
1	4784	854975.439892248146	0
1	4793	855548.078298097205	0
1	4835	863931.795837817167	0
1	4845	867428.487815149345	0
1	4861	868817.808104606721	0
1	4887	873739.056790542365	0
1	4895	874996.193337083961	0
1	4921	880102.522505642387	0
1	4929	880745.344313295648	0
1	4938	882568.891976172146	0
1	4963	885442.61321131035	0
1	4979	886255.138011623958	227.37046620851
1	4987	887436.156443706675	0
1	5004	889798.222696460996	0
1	5021	891303.429965819191	0
1	5037	892407.55065403192	0
1	5045	892728.543893508785	44.821376482637
1	5053	893033.518714568871	73.075193492852
1	5104	900676.300248459191	0
1	5112	902738.561701786105	0
1	5121	904421.648959031701	0
1	5137	905484.296532508717	0
1	5145	905853.68114142161	0
1	5189	915802.015953407432	0
1	5197	916622.723754049759	0
1	5206	919654.067981494552	0
1	5214	919958.367131990281	20.61789948058
1	5256	926691.958432095157	0
1	5265	927499.191990346191	0
1	5274	930736.59565565491	0
1	5310	934302.538640931547	291.63378228199
1	5315	934565.608527620685	549.02518231838
1	5342	942752.279420151915	0
1	5350	943841.333402604776	0
1	5375	947892.391640915638	0
1	5395	958095.028873113626	0
1	5403	959765.425107169993	0
1	5412	960082.754381282957	132.46169182343
1	5447	970027.815320177063	0
1	5455	970550.621059762604	0
1	5464	973635.979904108448	0
1	5498	980255.943724477182	0
1	5517	987286.083063882724	0
1	5534	992370.382003981728	0
1	5543	993028.105003862295	0
2	921	142477.73773483016	1
2	923	142477.73773483016	0
2	938	144221.720576128714	1
2	940	144221.720576128714	0
2	955	147454.522419822698	1
2	957	147454.522419822698	0
2	972	150001.433787550569	1
2	974	150001.433787550569	0
2	980	151223.232325509222	1
2	982	151223.232325509222	0
2	1005	154048.690565070926	1
2	1007	154048.690565070926	0
2	1032	163145.737450772514	1
2	1034	163145.737450772514	0
2	1037	163421.332606094621	1
2	1042	163459.327343604385	0
2	1048	163977.059521824386	1
2	1050	163977.059521824386	0
2	1062	167380.546006712256	1
2	1067	167587.029109488258	0
2	1090	169256.795171446411	1
2	1092	169256.795171446411	0
2	1116	176890.025639995987	1
2	1118	176890.025639995987	0
2	1121	176913.360199015393	1
2	1125	177130.39673860109	2
2	1130	177225.115986319372	1
2	1135	177510.511900317174	0
2	1138	177656.250942481248	1
2	1143	177810.304203177241	0
2	1149	178894.876298383049	1
2	1151	178894.876298383049	0
2	1199	185566.760093457907	1
2	1201	185566.760093457907	0
2	1217	190907.266284848835	1
2	1219	190907.266284848835	0
2	1222	191184.146834248072	1
2	1227	191207.342220939511	0
2	1251	197673.982464939432	1
2	1253	197673.982464939432	0
2	1271	208611.109869089322	1
2	1273	208611.109869089322	0
2	1280	211780.95355289393	1
2	1282	211780.95355289393	0
2	1309	226989.519652987106	1
2	1311	226989.519652987106	0
2	1327	232764.360399374666	1
2	1329	232764.360399374666	0
2	1335	233180.704167770713	1
2	1337	233180.704167770713	0
2	1344	234715.856418025643	1
2	1346	234715.856418025643	0
2	1374	238308.248132968856	1
2	1379	238445.232697653231	0
2	1386	241192.753547527048	1
2	1388	241192.753547527048	0
2	1412	246565.401508276324	1
2	1414	246565.401508276324	0
2	1420	247038.023480895431	1
2	1422	247038.023480895431	0
2	1437	250851.632739903922	1
2	1442	250914.255201312303	0
2	1454	252210.985479004981	1
2	1456	252210.985479004981	0
2	1462	253468.662558435483	1
2	1464	253468.662558435483	0
2	1492	257301.264181889859	1
2	1497	257343.004416285085	0
2	1514	266454.551571225845	1
2	1516	266454.551571225845	0
2	1524	270110.666362096542	1
2	1526	270110.666362096542	0
2	1549	274970.10914310507	1
2	1551	274970.10914310507	0
2	1557	275550.055239673407	1
2	1559	275550.055239673407	0
2	1583	281657.159658730841	1
2	1585	281657.159658730841	0
2	1601	287158.535337411075	1
2	1603	287158.535337411075	0
2	1619	291822.902091929939	1
2	1621	291822.902091929939	0
2	1627	292381.507493949954	1
2	1629	292381.507493949954	0
2	1636	294596.239691456197	1
2	1638	294596.239691456197	0
2	1669	298605.222051126115	1
2	1671	298605.222051126115	0
2	1678	301925.950185865757	1
2	1680	301925.950185865757	0
2	1686	302498.019443443834	1
2	1688	302498.019443443834	0
2	1703	303503.057343096608	1
2	1705	303503.057343096608	0
2	1711	305868.157183805651	1
2	1713	305868.157183805651	0
2	1750	310207.072130295809	1
2	1755	310488.674079389937	0
2	1772	318059.120613265439	1
2	1774	318059.120613265439	0
2	1780	320989.631017152312	1
2	1782	320989.631017152312	0
2	1797	323359.431471809313	1
2	1799	323359.431471809313	0
2	1814	326278.35994069906	1
2	1816	326278.35994069906	0
2	1819	326405.307656472299	1
2	1824	326591.668637869237	0
2	1839	328603.637293330979	1
2	1841	328603.637293330979	0
2	1844	328837.145062953733	1
2	1849	328939.92752273825	0
2	1892	342626.743574040655	1
2	1894	342626.743574040655	0
2	1900	344103.916688286539	1
2	1902	344103.916688286539	0
2	1905	344332.619233714889	1
2	1910	344428.559826002666	0
2	1942	348711.504503365135	1
2	1944	348711.504503365135	0
2	1956	352790.589046573882	1
2	1961	352862.15438919185	0
2	1967	353438.201510767026	1
2	1969	353438.201510767026	0
2	1996	367948.714782887798	1
2	1998	367948.714782887798	0
2	2004	368653.401250291566	1
2	2006	368653.401250291566	0
2	2013	369476.475678806824	1
2	2015	369476.475678806824	0
2	2047	377150.986665127492	1
2	2049	377150.986665127492	0
2	2065	382622.995598314356	1
2	2067	382622.995598314356	0
2	2073	383306.252804362184	1
2	2075	383306.252804362184	0
2	2078	383309.30130445216	1
2	2083	383635.106873183494	0
2	2090	384708.324545670437	1
2	2092	384708.324545670437	0
2	2133	393797.541095917179	1
2	2135	393797.541095917179	0
2	2141	394903.213417392644	1
2	2143	394903.213417392644	0
2	2150	396268.118554204015	1
2	2152	396268.118554204015	0
2	2186	408002.067451047493	1
2	2188	408002.067451047493	0
2	2194	409099.131244924979	1
2	2196	409099.131244924979	0
2	2220	416009.394673362689	1
2	2222	416009.394673362689	0
2	2239	424941.608644261001	1
2	2241	424941.608644261001	0
2	2248	427991.732037936391	1
2	2250	427991.732037936391	0
2	2265	431341.921618340281	1
2	2267	431341.921618340281	0
2	2282	432147.351158274253	1
2	2284	432147.351158274253	0
2	2309	441880.191737711315	1
2	2311	441880.191737711315	0
2	2317	443400.002944977073	1
2	2319	443400.002944977073	0
2	2325	443757.754050013285	1
2	2327	443757.754050013285	0
2	2334	445642.7232091409	1
2	2336	445642.7232091409	0
2	2377	454918.038883216146	1
2	2379	454918.038883216146	0
2	2386	458190.132229220876	1
2	2388	458190.132229220876	0
2	2403	460052.261581579419	1
2	2405	460052.261581579419	0
2	2420	463809.274689758198	1
2	2422	463809.274689758198	0
2	2445	467644.328401211523	1
2	2447	467644.328401211523	0
2	2454	468771.25823242435	1
2	2456	468771.25823242435	0
2	2476	473017.168531522036	1
2	2481	473051.096281128809	0
2	2488	476444.882245786188	1
2	2490	476444.882245786188	0
2	2514	481682.32401172158	1
2	2516	481682.32401172158	0
2	2523	483775.544005011517	1
2	2525	483775.544005011517	0
2	2531	484882.226869710145	1
2	2533	484882.226869710145	0
2	2566	492711.398748862519	1
2	2568	492711.398748862519	0
2	2574	494751.406597761739	1
2	2576	494751.406597761739	0
2	2602	506059.513464431833	1
2	2604	506059.513464431833	0
2	2610	506445.24678102131	1
2	2612	506445.24678102131	0
2	2619	507355.914164103374	1
2	2621	507355.914164103374	0
2	2644	510954.508957413794	1
2	2646	510954.508957413794	0
2	2670	517257.627116849918	1
2	2672	517257.627116849918	0
2	2688	524535.042474263534	1
2	2690	524535.042474263534	0
2	2706	530661.161296252068	1
2	2708	530661.161296252068	0
2	2711	530773.880279543311	1
2	2716	530971.575115175258	0
2	2723	533022.347829206667	1
2	2725	533022.347829206667	0
2	2740	534705.352333012131	1
2	2745	534846.926942485716	0
2	2756	536452.350316757049	1
2	2758	536452.350316757049	0
2	2778	538764.861732654664	1
2	2781	538849.625517839162	2
2	2786	539087.605809173182	1
2	2789	539337.719159054843	2
2	2792	539379.972477140313	3
2	2797	539409.380172890869	2
2	2805	539709.765022176458	1
2	2810	539976.924570467817	0
2	2856	548358.056862422001	1
2	2858	548358.056862422001	0
2	2861	548365.559539690605	1
2	2866	548669.815418042786	0
2	2873	551395.315371801918	1
2	2875	551395.315371801918	0
2	2907	555603.534842333045	1
2	2909	555603.534842333045	0
2	2925	563027.935384805399	1
2	2927	563027.935384805399	0
2	2934	564350.236595293057	1
2	2936	564350.236595293057	0
2	2959	569377.746830226153	1
2	2961	569377.746830226153	0
2	2964	569470.956068780976	1
2	2969	569705.12082120243	0
2	2976	571313.471412201488	1
2	2978	571313.471412201488	0
2	2981	571403.167795868285	1
2	2986	571640.56236906624	0
2	3009	575124.672085954299	1
2	3011	575124.672085954299	0
2	3031	576401.404060714886	1
2	3036	576628.172485327608	0
2	3060	583480.51398909094	1
2	3062	583480.51398909094	0
2	3069	585074.677840347397	1
2	3071	585074.677840347397	0
2	3077	585755.475142952359	1
2	3079	585755.475142952359	0
2	3099	589429.418316418261	1
2	3102	589459.543067880755	2
2	3107	589513.553382425168	1
2	3115	589821.865455866902	0
2	3127	591887.008025636269	1
2	3129	591887.008025636269	0
2	3161	598189.893348646817	1
2	3163	598189.893348646817	0
2	3179	605498.104534428123	1
2	3181	605498.104534428123	0
2	3188	607038.586382215603	1
2	3190	607038.586382215603	0
2	3205	609539.065065238512	1
2	3207	609539.065065238512	0
2	3222	613161.427064548978	1
2	3224	613161.427064548978	0
2	3239	616791.921406214416	1
2	3241	616791.921406214416	0
2	3265	622424.4531659056	1
2	3267	622424.4531659056	0
2	3273	622856.739098952458	1
2	3275	622856.739098952458	0
2	3281	623854.704848029416	1
2	3283	623854.704848029416	0
2	3295	626419.468599459658	1
2	3300	626692.186656232947	0
2	3332	631739.446859566374	1
2	3334	631739.446859566374	0
2	3341	633366.49659094401	1
2	3343	633366.49659094401	0
2	3358	637186.782880935004	1
2	3360	637186.782880935004	0
2	3381	642208.495988492358	1
2	3386	642290.910645295355	0
2	3392	642567.941888874386	1
2	3394	642567.941888874386	0
2	3400	643492.706693312653	1
2	3402	643492.706693312653	0
2	3409	645556.392067676445	1
2	3411	645556.392067676445	0
2	3414	645801.850532145594	1
2	3417	645806.715705029086	2
2	3422	645904.438676065103	1
2	3431	646200.733476231214	2
2	3436	646269.851326323688	1
2	3441	646554.70344349502	0
2	3466	649244.658422776676	1
2	3468	649244.658422776676	0
2	3490	650024.875556098972	1
2	3495	650128.796666525851	0
2	3515	652322.573230115557	1
2	3517	652322.573230115557	0
2	3540	655085.256939174042	1
2	3542	655085.256939174042	0
2	3548	656231.647405673076	1
2	3550	656231.647405673076	0
2	3570	659668.94124833488	1
2	3578	659802.271283168066	0
2	3590	662323.153528035322	1
2	3592	662323.153528035322	0
2	3598	662798.201942045097	1
2	3600	662798.201942045097	0
2	3615	664805.698148194242	1
2	3617	664805.698148194242	0
2	3623	665799.815052874053	1
2	3625	665799.815052874053	0
2	3657	669396.491758108887	1
2	3659	669396.491758108887	0
2	3673	670503.561456544653	1
2	3675	670503.561456544653	0
2	3681	670922.073792264416	1
2	3683	670922.073792264416	0
2	3689	671883.56938243879	1
2	3691	671883.56938243879	0
2	3731	676101.483301688883	1
2	3733	676101.483301688883	0
2	3739	676770.280580071815	1
2	3741	676770.280580071815	0
2	3748	679172.035136868784	1
2	3750	679172.035136868784	0
2	3773	681217.950642728554	1
2	3775	681217.950642728554	0
2	3781	681928.521771466257	1
2	3783	681928.521771466257	0
2	3786	682122.10068271668	1
2	3791	682301.151867818315	0
2	3806	684599.336185336813	1
2	3808	684599.336185336813	0
2	3835	686457.861988604725	1
2	3840	686546.928070623228	0
2	3847	688274.622184008075	1
2	3849	688274.622184008075	0
2	3863	688898.739135165474	1
2	3865	688898.739135165474	0
2	3901	707029.527204189486	1
2	3903	707029.527204189486	0
2	3909	707311.758388099365	1
2	3911	707311.758388099365	0
2	3918	709499.844663605278	1
2	3920	709499.844663605278	0
2	3935	711212.297496229266	1
2	3940	711222.646763146789	0
2	3969	717000.415073498026	1
2	3971	717000.415073498026	0
2	3986	721474.061608853187	1
2	3988	721474.061608853187	0
2	3994	722149.2237579523	1
2	3996	722149.2237579523	0
2	3999	722201.448562979452	1
2	4004	722477.01408671505	0
2	4007	722538.370949839402	1
2	4012	722766.331196223272	0
2	4049	726836.763719657366	1
2	4054	726989.604829279618	0
2	4060	728095.500182918576	1
2	4062	728095.500182918576	0
2	4068	728511.791342899896	1
2	4070	728511.791342899896	0
2	4102	734070.293122425982	1
2	4104	734070.293122425982	0
2	4111	736664.310543360376	1
2	4113	736664.310543360376	0
2	4137	742064.22562197972	1
2	4139	742064.22562197972	0
2	4155	749727.121781875476	1
2	4157	749727.121781875476	0
2	4164	752011.7385785304	1
2	4166	752011.7385785304	0
2	4191	760511.738188652446	1
2	4193	760511.738188652446	0
2	4196	760775.235056798445	1
2	4201	760810.741868588857	0
2	4207	761999.161181251087	1
2	4209	761999.161181251087	0
2	4216	763090.83134166185	1
2	4218	763090.83134166185	0
2	4221	763362.323210983038	1
2	4226	763391.03254774771	0
2	4257	765858.692079886016	1
2	4259	765858.692079886016	0
2	4290	770612.473795331908	1
2	4292	770612.473795331908	0
2	4295	770880.585515802895	1
2	4300	770896.730316439642	0
2	4307	771454.271070221153	1
2	4309	771454.271070221153	0
2	4315	773532.050495387817	1
2	4317	773532.050495387817	0
2	4337	775035.308942978434	1
2	4340	775052.398624745535	2
2	4345	775286.880739959476	1
2	4348	775440.590405604234	2
2	4356	775599.508501276651	1
2	4361	775881.62203829188	0
2	4373	777242.679436426414	1
2	4375	777242.679436426414	0
2	4389	779119.359979225255	1
2	4391	779119.359979225255	0
2	4430	782403.21266124342	1
2	4432	782403.21266124342	0
2	4444	783169.22101897943	1
2	4449	783242.146413339964	0
2	4455	785837.08119516564	1
2	4457	785837.08119516564	0
2	4464	786188.314358559871	1
2	4466	786188.314358559871	0
2	4506	792662.091953912715	1
2	4508	792662.091953912715	0
2	4523	796684.130043882752	1
2	4525	796684.130043882752	0
2	4532	800599.796587399865	1
2	4534	800599.796587399865	0
2	4549	801594.095717638801	1
2	4551	801594.095717638801	0
2	4576	812593.898544721067	1
2	4578	812593.898544721067	0
2	4595	819229.860890329327	1
2	4597	819229.860890329327	0
2	4609	822966.849556270397	1
2	4614	823084.049235082515	0
2	4620	823665.754232734594	1
2	4622	823665.754232734594	0
2	4629	826004.217232802513	1
2	4631	826004.217232802513	0
2	4664	834560.381101882111	1
2	4666	834560.381101882111	0
2	4682	842529.489972298489	1
2	4684	842529.489972298489	0
2	4691	845903.44347671823	1
2	4693	845903.44347671823	0
2	4697	846074.866071555326	1
2	4702	846186.008867603738	0
2	4716	848861.89483284353	1
2	4718	848861.89483284353	0
2	4741	850836.413011469179	1
2	4743	850836.413011469179	0
2	4749	851993.830355417634	1
2	4751	851993.830355417634	0
2	4766	853567.376005004401	1
2	4768	853567.376005004401	0
2	4782	854975.439892248146	1
2	4784	854975.439892248146	0
2	4791	855548.078298097205	1
2	4793	855548.078298097205	0
2	4833	863931.795837817167	1
2	4835	863931.795837817167	0
2	4843	867428.487815149345	1
2	4845	867428.487815149345	0
2	4859	868817.808104606721	1
2	4861	868817.808104606721	0
2	4885	873739.056790542365	1
2	4887	873739.056790542365	0
2	4893	874996.193337083961	1
2	4895	874996.193337083961	0
2	4919	880102.522505642387	1
2	4921	880102.522505642387	0
2	4927	880745.344313295648	1
2	4929	880745.344313295648	0
2	4936	882568.891976172146	1
2	4938	882568.891976172146	0
2	4961	885442.61321131035	1
2	4963	885442.61321131035	0
2	4974	886027.767545415448	1
2	4979	886255.138011623958	0
2	4985	887436.156443706675	1
2	4987	887436.156443706675	0
2	5002	889798.222696460996	1
2	5004	889798.222696460996	0
2	5019	891303.429965819191	1
2	5021	891303.429965819191	0
2	5035	892407.55065403192	1
2	5037	892407.55065403192	0
2	5040	892683.722517026148	1
2	5045	892728.543893508785	0
2	5048	892960.443521076019	1
2	5053	893033.518714568871	0
2	5102	900676.300248459191	1
2	5104	900676.300248459191	0
2	5110	902738.561701786105	1
2	5112	902738.561701786105	0
2	5119	904421.648959031701	1
2	5121	904421.648959031701	0
2	5135	905484.296532508717	1
2	5137	905484.296532508717	0
2	5143	905853.68114142161	1
2	5145	905853.68114142161	0
2	5187	915802.015953407432	1
2	5189	915802.015953407432	0
2	5195	916622.723754049759	1
2	5197	916622.723754049759	0
2	5204	919654.067981494552	1
2	5206	919654.067981494552	0
2	5209	919937.749232509701	1
2	5214	919958.367131990281	0
2	5254	926691.958432095157	1
2	5256	926691.958432095157	0
2	5263	927499.191990346191	1
2	5265	927499.191990346191	0
2	5272	930736.59565565491	1
2	5274	930736.59565565491	0
2	5302	934010.904858649557	1
2	5305	934016.583345302305	2
2	5310	934302.538640931547	1
2	5315	934565.608527620685	0
2	5340	942752.279420151915	1
2	5342	942752.279420151915	0
2	5348	943841.333402604776	1
2	5350	943841.333402604776	0
2	5373	947892.391640915638	1
2	5375	947892.391640915638	0
2	5393	958095.028873113626	1
2	5395	958095.028873113626	0
2	5401	959765.425107169993	1
2	5403	959765.425107169993	0
2	5406	959950.292689459523	1
2	5412	960082.754381282957	0
2	5445	970027.815320177063	1
2	5447	970027.815320177063	0
2	5453	970550.621059762604	1
2	5455	970550.621059762604	0
2	5462	973635.979904108448	1
2	5464	973635.979904108448	0
2	5496	980255.943724477182	1
2	5498	980255.943724477182	0
2	5515	987286.083063882724	1
2	5517	987286.083063882724	0
2	5532	992370.382003981728	1
2	5534	992370.382003981728	0
2	5541	993028.105003862295	1
2	5543	993028.105003862295	0
3	931	142940.19394743818	0
3	948	146351.02321305271	0
3	965	147860.313869891961	0
3	990	151539.349843972759	0
3	999	153457.524797893503	0
3	1016	156206.674572501959	0
3	1024	158340.615135218778	0
3	1059	167225.289934017681	0
3	1075	167900.433530972386	302.60798836909
3	1084	168230.183015174163	185.03356281383
3	1101	171415.943196426525	0
3	1109	172447.665483624504	0
3	1160	180555.09130125607	0
3	1168	180983.335748579094	0
3	1176	181411.236340709432	0
3	1184	182175.063843927859	0
3	1193	183158.988854305007	0
3	1211	189583.195344764574	0
3	1236	194584.922219167726	0
3	1244	194918.873739579935	291.08069639209
3	1263	201446.191969798065	0
3	1290	212494.704717531692	0
3	1300	216042.100743723549	0
3	1321	231253.292951920294	0
3	1354	236416.258677435152	0
3	1362	236698.06790782423	230.43585996566
3	1371	238159.472135474867	0
3	1396	242069.641030926275	0
3	1405	245193.179527761992	0
3	1431	250630.841101026436	0
3	1447	251189.514982389581	400.45982505228
3	1472	254691.003722492035	0
3	1481	256191.608371985528	0
3	1489	256986.515503407866	0
3	1507	261342.142487917497	0
3	1534	270862.54036341706	0
3	1543	273539.473547946244	0
3	1568	278452.480659753833	0
3	1577	279574.800318063779	0
3	1595	285329.633686147689	0
3	1613	291206.600073235462	0
3	1646	295443.714007597532	0
3	1654	295768.01354917124	65.94110536702
3	1663	298053.274741917758	0
3	1697	303143.615467753707	0
3	1722	306357.399006935966	0
3	1730	306652.844131761319	293.96745848676
3	1738	307006.327152791577	0
3	1747	310186.341956631032	0
3	1764	314309.069357232522	0
3	1791	321874.78241468871	0
3	1808	324840.169632961952	0
3	1833	327108.169320785444	0
3	1858	330065.952743965705	0
3	1866	330700.090695736741	0
3	1874	332950.648117359781	0
3	1883	333325.168414283068	0
3	1919	345976.754673984585	0
3	1927	347830.660081984058	0
3	1936	348119.169671616915	249.84341342343
3	1953	352553.523633580401	0
3	1978	356662.15388647401	0
3	1987	357539.666733398234	0
3	2023	371518.549687925802	0
3	2032	372134.835568386441	0
3	2040	373606.017109116036	0
3	2058	380548.752526017713	0
3	2100	386908.976172939339	0
3	2109	387200.108378613871	111.82038120888
3	2117	387944.478565813299	0
3	2125	388286.623869708003	160.41333584783
3	2160	397613.027764012085	0
3	2168	398809.977565395494	0
3	2177	400231.424666971737	0
3	2205	412099.432984327362	0
3	2213	413382.64534485928	0
3	2231	419964.373167167614	0
3	2258	428945.138112310817	0
3	2275	431809.107650647038	0
3	2293	435758.457737650009	0
3	2301	436085.526230473936	280.98004861938
3	2344	446060.429109639164	0
3	2353	447675.344238190247	0
3	2361	447969.576997453006	192.51229523918
3	2369	449395.71151530789	0
3	2396	458915.090608676381	0
3	2414	462269.242636753655	0
3	2430	464202.936812200778	0
3	2439	467274.25867079418	0
3	2465	471703.399510466126	0
3	2473	472777.452130905354	0
3	2498	476930.680177512702	0
3	2508	481213.003814790299	0
3	2541	485244.058546435381	56.20089027618
3	2550	487391.716920846344	0
3	2558	488032.008618753899	0
3	2585	495862.580529038763	0
3	2594	498932.936618110167	0
3	2629	509862.89760595297	0
3	2638	510137.721225231824	155.60231276891
3	2654	511559.981045920846	0
3	2663	514527.178021565368	0
3	2681	520974.415050048741	0
3	2700	528794.705978470239	0
3	2734	534595.775377072696	0
3	2750	535124.297555457249	446.83360906824
3	2766	536983.536896391496	0
3	2775	538743.694013593765	0
3	2816	540230.784273824483	727.90376444058
3	2824	542953.438150540266	0
3	2833	543287.515051600705	124.62417687566
3	2841	543580.56145186331	39.967199796868
3	2849	543876.692797774629	202.15378129922
3	2883	551968.776637331408	0
3	2892	552379.298101293611	0
3	2900	554846.203752422073	0
3	2918	559110.029896369884	0
3	2944	566818.705826110979	0
3	2953	567698.095908079744	0
3	2995	573548.177375218612	0
3	3003	573837.543930832119	217.72480890038
3	3019	575978.544659522531	0
3	3028	576310.355281378505	114.66732294025
3	3045	579221.399763657451	0
3	3053	580257.131875972169	0
3	3087	587835.515624573657	0
3	3096	589195.270185906362	0
3	3120	590125.113476228942	464.7193566632
3	3137	593217.079577985995	0
3	3145	593880.950099150528	0
3	3154	595177.219865858294	0
3	3172	602289.39092620792	0
3	3198	608893.618693216535	0
3	3215	611148.439242092938	0
3	3232	613470.230921713543	292.34381664456
3	3249	617284.097373612505	0
3	3258	620646.57980747874	0
3	3292	626354.61954403794	0
3	3309	627215.834114301972	0
3	3317	627528.070539349654	185.78468789011
3	3326	630484.308592001245	0
3	3351	635976.927106601342	0
3	3368	637787.259880112198	0
3	3378	642016.893645956188	0
3	3446	646861.908403106423	902.59706448556
3	3451	647133.187223283025	990.49902675693
3	3459	647448.947992077208	280.75206657078
3	3476	649562.169351994086	259.09570410477
3	3484	649870.317225296369	0
3	3503	650430.743144965233	535.43419057332
3	3508	650701.379753916738	497.89906871267
3	3525	653640.476887533442	0
3	3534	654752.001263576761	0
3	3558	656534.901053747493	165.84378278915
3	3567	659505.502979209814	0
3	3584	660107.879749352539	375.62381653112
3	3609	663552.692939590668	0
3	3634	666322.646335165629	0
3	3642	666680.839632892042	0
3	3650	668811.924835624209	0
3	3667	669654.273726603186	0
3	3700	672688.130289607478	0
3	3708	673898.688072075843	0
3	3716	674469.795573857977	0
3	3725	675772.166584135881	0
3	3758	680014.443445846396	0
3	3766	680513.135528603776	0
3	3799	682809.49220295986	0
3	3816	685223.06142118433	0
3	3824	685913.760084995515	0
3	3832	686280.800605440106	0
3	3857	688544.773193435191	57.647333197187
3	3874	690525.281992357547	0
3	3882	692566.175275629513	0
3	3890	692875.911414433601	237.05934775854
3	3928	710942.639290578281	0
3	3945	711518.099669493922	485.76977723521
3	3953	713712.239560031395	0
3	3962	714714.561978968679	0
3	3980	721002.436361437593	0
3	4021	725666.767972346802	0
3	4030	726073.496997718273	0
3	4038	726359.867341405199	113.89426248399
3	4046	726689.098227106968	133.01655204575
3	4079	729815.313134468942	0
3	4087	731980.609524354855	0
3	4096	732900.515037608579	0
3	4121	737934.76968448024	0
3	4130	740208.244269100534	0
3	4148	745630.648246404064	0
3	4175	753541.488136862284	0
3	4183	755657.764803551476	0
3	4234	763912.150559527618	0
3	4242	764207.550157727447	175.92027738638
3	4251	765249.172440464426	0
3	4267	766898.821895356575	0
3	4275	767197.526823408028	78.19836961193
3	4284	770091.104857951518	0
3	4326	774469.059945904275	0
3	4334	774978.09852396617	0
3	4366	776149.455576051036	661.13087822636
3	4383	777743.375248553443	0
3	4399	779415.938424553157	130.86949257075
3	4407	779726.752553901861	50.099221541854
3	4415	779998.707437355682	114.04390417034
3	4424	781513.305854138882	0
3	4440	782984.007318685385	0
3	4474	786489.855946350823	272.3158996928
3	4482	787467.532937513718	0
3	4491	789619.894727670397	0
3	4499	791520.954830797873	0
3	4517	796165.922677618458	0
3	4542	800902.627283007171	0
3	4560	804559.018914113956	0
3	4568	805452.921126296336	0
3	4588	816481.707260307763	0
3	4606	822775.343486902025	0
3	4639	827472.31852559919	0
3	4647	827761.801641567051	238.44440739196
3	4656	830368.562902526353	0
3	4675	838383.671749145737	0
3	4710	847035.221458156521	0
3	4727	850032.521026715466	0
3	4735	850337.399661625595	218.20689914532
3	4760	852379.329598780707	0
3	4776	854512.268827466477	0
3	4801	856153.194502250516	0
3	4809	857483.008882314624	0
3	4818	859196.427830589095	0
3	4826	859749.936324117296	0
3	4853	867781.794430855185	218.34936338432
3	4870	871260.149309218403	0
3	4878	872496.408276152445	0
3	4904	877218.760726101984	0
3	4913	879010.264576572081	0
3	4946	884233.345635482051	0
3	4954	884720.736196697814	0
3	4971	885939.918782889861	0
3	4996	889496.938388936898	0
3	5012	890603.45867171657	0
3	5029	891594.994632718846	20.909761278586
3	5061	893500.332149935989	0
3	5070	894567.944735430931	0
3	5078	896105.460330825189	0
3	5086	896439.134463035185	73.261118447464
3	5094	896782.497919725597	0
3	5129	904720.665107482787	79.221685217301
3	5154	906141.087078872794	15.006227880129
3	5162	908459.579883001232	0
3	5171	909517.979418380524	0
3	5179	909803.632295004968	133.69334121574
3	5222	920382.017481993349	0
3	5230	920961.043569445854	0
3	5239	923266.197531909826	0
3	5247	923891.345216007111	0
3	5282	931087.596747456743	229.73173773547
3	5290	931395.639961005483	15.279717486445
3	5299	933989.808961184749	0
3	5324	937685.988080500371	0
3	5332	938634.75801681609	0
3	5359	946645.113634382874	0
3	5367	947368.36985148192	0
3	5385	951825.480881773856	0
3	5420	961828.832313587151	0
3	5429	963273.391711554494	0
3	5437	963852.322960069085	0
3	5472	974228.214629460522	0
3	5480	974511.336542759767	145.80087108063
3	5490	978288.465580493015	0
3	5507	983722.681522427719	0
3	5526	991578.236708444964	0
3	5552	996728.082977357286	0
3	5560	997050.862097466179	0
4	929	142940.19394743818	1
4	931	142940.19394743818	0
4	946	146351.02321305271	1
4	948	146351.02321305271	0
4	963	147860.313869891961	1
4	965	147860.313869891961	0
4	988	151539.349843972759	1
4	990	151539.349843972759	0
4	997	153457.524797893503	1
4	999	153457.524797893503	0
4	1014	156206.674572501959	1
4	1016	156206.674572501959	0
4	1022	158340.615135218778	1
4	1024	158340.615135218778	0
4	1057	167225.289934017681	1
4	1059	167225.289934017681	0
4	1070	167597.825542603296	1
4	1075	167900.433530972386	0
4	1079	168045.149452360332	1
4	1084	168230.183015174163	0
4	1099	171415.943196426525	1
4	1101	171415.943196426525	0
4	1107	172447.665483624504	1
4	1109	172447.665483624504	0
4	1158	180555.09130125607	1
4	1160	180555.09130125607	0
4	1166	180983.335748579094	1
4	1168	180983.335748579094	0
4	1174	181411.236340709432	1
4	1176	181411.236340709432	0
4	1182	182175.063843927859	1
4	1184	182175.063843927859	0
4	1191	183158.988854305007	1
4	1193	183158.988854305007	0
4	1209	189583.195344764574	1
4	1211	189583.195344764574	0
4	1234	194584.922219167726	1
4	1236	194584.922219167726	0
4	1239	194627.793043187843	1
4	1244	194918.873739579935	0
4	1261	201446.191969798065	1
4	1263	201446.191969798065	0
4	1288	212494.704717531692	1
4	1290	212494.704717531692	0
4	1298	216042.100743723549	1
4	1300	216042.100743723549	0
4	1319	231253.292951920294	1
4	1321	231253.292951920294	0
4	1352	236416.258677435152	1
4	1354	236416.258677435152	0
4	1357	236467.632047858574	1
4	1362	236698.06790782423	0
4	1369	238159.472135474867	1
4	1371	238159.472135474867	0
4	1394	242069.641030926275	1
4	1396	242069.641030926275	0
4	1403	245193.179527761992	1
4	1405	245193.179527761992	0
4	1429	250630.841101026436	1
4	1431	250630.841101026436	0
4	1434	250789.055157337297	1
4	1447	251189.514982389581	0
4	1470	254691.003722492035	1
4	1472	254691.003722492035	0
4	1479	256191.608371985528	1
4	1481	256191.608371985528	0
4	1487	256986.515503407866	1
4	1489	256986.515503407866	0
4	1505	261342.142487917497	1
4	1507	261342.142487917497	0
4	1532	270862.54036341706	1
4	1534	270862.54036341706	0
4	1541	273539.473547946244	1
4	1543	273539.473547946244	0
4	1566	278452.480659753833	1
4	1568	278452.480659753833	0
4	1575	279574.800318063779	1
4	1577	279574.800318063779	0
4	1593	285329.633686147689	1
4	1595	285329.633686147689	0
4	1611	291206.600073235462	1
4	1613	291206.600073235462	0
4	1644	295443.714007597532	1
4	1646	295443.714007597532	0
4	1649	295702.07244380422	1
4	1654	295768.01354917124	0
4	1661	298053.274741917758	1
4	1663	298053.274741917758	0
4	1695	303143.615467753707	1
4	1697	303143.615467753707	0
4	1720	306357.399006935966	1
4	1722	306357.399006935966	0
4	1725	306358.876673274559	1
4	1730	306652.844131761319	0
4	1736	307006.327152791577	1
4	1738	307006.327152791577	0
4	1745	310186.341956631032	1
4	1747	310186.341956631032	0
4	1762	314309.069357232522	1
4	1764	314309.069357232522	0
4	1789	321874.78241468871	1
4	1791	321874.78241468871	0
4	1806	324840.169632961952	1
4	1808	324840.169632961952	0
4	1831	327108.169320785444	1
4	1833	327108.169320785444	0
4	1856	330065.952743965705	1
4	1858	330065.952743965705	0
4	1864	330700.090695736741	1
4	1866	330700.090695736741	0
4	1872	332950.648117359781	1
4	1874	332950.648117359781	0
4	1881	333325.168414283068	1
4	1883	333325.168414283068	0
4	1917	345976.754673984585	1
4	1919	345976.754673984585	0
4	1925	347830.660081984058	1
4	1927	347830.660081984058	0
4	1930	347869.326258193485	1
4	1936	348119.169671616915	0
4	1951	352553.523633580401	1
4	1953	352553.523633580401	0
4	1976	356662.15388647401	1
4	1978	356662.15388647401	0
4	1985	357539.666733398234	1
4	1987	357539.666733398234	0
4	2021	371518.549687925802	1
4	2023	371518.549687925802	0
4	2030	372134.835568386441	1
4	2032	372134.835568386441	0
4	2038	373606.017109116036	1
4	2040	373606.017109116036	0
4	2056	380548.752526017713	1
4	2058	380548.752526017713	0
4	2098	386908.976172939339	1
4	2100	386908.976172939339	0
4	2104	387088.287997404992	1
4	2109	387200.108378613871	0
4	2115	387944.478565813299	1
4	2117	387944.478565813299	0
4	2120	388126.210533860169	1
4	2125	388286.623869708003	0
4	2158	397613.027764012085	1
4	2160	397613.027764012085	0
4	2166	398809.977565395494	1
4	2168	398809.977565395494	0
4	2175	400231.424666971737	1
4	2177	400231.424666971737	0
4	2203	412099.432984327362	1
4	2205	412099.432984327362	0
4	2211	413382.64534485928	1
4	2213	413382.64534485928	0
4	2229	419964.373167167614	1
4	2231	419964.373167167614	0
4	2256	428945.138112310817	1
4	2258	428945.138112310817	0
4	2273	431809.107650647038	1
4	2275	431809.107650647038	0
4	2291	435758.457737650009	1
4	2293	435758.457737650009	0
4	2296	435804.546181854557	1
4	2301	436085.526230473936	0
4	2342	446060.429109639164	1
4	2344	446060.429109639164	0
4	2351	447675.344238190247	1
4	2353	447675.344238190247	0
4	2356	447777.064702213829	1
4	2361	447969.576997453006	0
4	2367	449395.71151530789	1
4	2369	449395.71151530789	0
4	2394	458915.090608676381	1
4	2396	458915.090608676381	0
4	2412	462269.242636753655	1
4	2414	462269.242636753655	0
4	2428	464202.936812200778	1
4	2430	464202.936812200778	0
4	2437	467274.25867079418	1
4	2439	467274.25867079418	0
4	2463	471703.399510466126	1
4	2465	471703.399510466126	0
4	2471	472777.452130905354	1
4	2473	472777.452130905354	0
4	2496	476930.680177512702	1
4	2498	476930.680177512702	0
4	2506	481213.003814790299	1
4	2508	481213.003814790299	0
4	2536	485187.857656159201	1
4	2541	485244.058546435381	0
4	2548	487391.716920846344	1
4	2550	487391.716920846344	0
4	2556	488032.008618753899	1
4	2558	488032.008618753899	0
4	2583	495862.580529038763	1
4	2585	495862.580529038763	0
4	2592	498932.936618110167	1
4	2594	498932.936618110167	0
4	2627	509862.89760595297	1
4	2629	509862.89760595297	0
4	2632	509982.118912462916	1
4	2638	510137.721225231824	0
4	2652	511559.981045920846	1
4	2654	511559.981045920846	0
4	2661	514527.178021565368	1
4	2663	514527.178021565368	0
4	2679	520974.415050048741	1
4	2681	520974.415050048741	0
4	2698	528794.705978470239	1
4	2700	528794.705978470239	0
4	2732	534595.775377072696	1
4	2734	534595.775377072696	0
4	2737	534677.463946389007	1
4	2750	535124.297555457249	0
4	2764	536983.536896391496	1
4	2766	536983.536896391496	0
4	2773	538743.694013593765	1
4	2775	538743.694013593765	0
4	2800	539502.880509383901	1
4	2816	540230.784273824483	0
4	2822	542953.438150540266	1
4	2824	542953.438150540266	0
4	2828	543162.890874725042	1
4	2833	543287.515051600705	0
4	2836	543540.594252066442	1
4	2841	543580.56145186331	0
4	2844	543674.539016475408	1
4	2849	543876.692797774629	0
4	2881	551968.776637331408	1
4	2883	551968.776637331408	0
4	2890	552379.298101293611	1
4	2892	552379.298101293611	0
4	2898	554846.203752422073	1
4	2900	554846.203752422073	0
4	2916	559110.029896369884	1
4	2918	559110.029896369884	0
4	2942	566818.705826110979	1
4	2944	566818.705826110979	0
4	2951	567698.095908079744	1
4	2953	567698.095908079744	0
4	2993	573548.177375218612	1
4	2995	573548.177375218612	0
4	2998	573619.819121931742	1
4	3003	573837.543930832119	0
4	3017	575978.544659522531	1
4	3019	575978.544659522531	0
4	3023	576195.68795843826	1
4	3028	576310.355281378505	0
4	3043	579221.399763657451	1
4	3045	579221.399763657451	0
4	3051	580257.131875972169	1
4	3053	580257.131875972169	0
4	3085	587835.515624573657	1
4	3087	587835.515624573657	0
4	3094	589195.270185906362	1
4	3096	589195.270185906362	0
4	3110	589660.394119565747	1
4	3120	590125.113476228942	0
4	3135	593217.079577985995	1
4	3137	593217.079577985995	0
4	3143	593880.950099150528	1
4	3145	593880.950099150528	0
4	3152	595177.219865858294	1
4	3154	595177.219865858294	0
4	3170	602289.39092620792	1
4	3172	602289.39092620792	0
4	3196	608893.618693216535	1
4	3198	608893.618693216535	0
4	3213	611148.439242092938	1
4	3215	611148.439242092938	0
4	3227	613177.887105068987	1
4	3232	613470.230921713543	0
4	3247	617284.097373612505	1
4	3249	617284.097373612505	0
4	3256	620646.57980747874	1
4	3258	620646.57980747874	0
4	3290	626354.61954403794	1
4	3292	626354.61954403794	0
4	3307	627215.834114301972	1
4	3309	627215.834114301972	0
4	3312	627342.285851459541	1
4	3317	627528.070539349654	0
4	3324	630484.308592001245	1
4	3326	630484.308592001245	0
4	3349	635976.927106601342	1
4	3351	635976.927106601342	0
4	3366	637787.259880112198	1
4	3368	637787.259880112198	0
4	3376	642016.893645956188	1
4	3378	642016.893645956188	0
4	3425	645959.311338620862	1
4	3428	646142.688196526092	2
4	3446	646861.908403106423	1
4	3451	647133.187223283025	0
4	3454	647168.195925506425	1
4	3459	647448.947992077208	0
4	3471	649303.07364788932	1
4	3476	649562.169351994086	0
4	3482	649870.317225296369	1
4	3484	649870.317225296369	0
4	3487	649895.308954391915	1
4	3498	650203.480685204063	2
4	3503	650430.743144965233	1
4	3508	650701.379753916738	0
4	3523	653640.476887533442	1
4	3525	653640.476887533442	0
4	3532	654752.001263576761	1
4	3534	654752.001263576761	0
4	3553	656369.057270958346	1
4	3558	656534.901053747493	0
4	3565	659505.502979209814	1
4	3567	659505.502979209814	0
4	3573	659732.255932821414	1
4	3584	660107.879749352539	0
4	3607	663552.692939590668	1
4	3609	663552.692939590668	0
4	3632	666322.646335165629	1
4	3634	666322.646335165629	0
4	3640	666680.839632892042	1
4	3642	666680.839632892042	0
4	3648	668811.924835624209	1
4	3650	668811.924835624209	0
4	3665	669654.273726603186	1
4	3667	669654.273726603186	0
4	3698	672688.130289607478	1
4	3700	672688.130289607478	0
4	3706	673898.688072075843	1
4	3708	673898.688072075843	0
4	3714	674469.795573857977	1
4	3716	674469.795573857977	0
4	3723	675772.166584135881	1
4	3725	675772.166584135881	0
4	3756	680014.443445846396	1
4	3758	680014.443445846396	0
4	3764	680513.135528603776	1
4	3766	680513.135528603776	0
4	3797	682809.49220295986	1
4	3799	682809.49220295986	0
4	3814	685223.06142118433	1
4	3816	685223.06142118433	0
4	3822	685913.760084995515	1
4	3824	685913.760084995515	0
4	3830	686280.800605440106	1
4	3832	686280.800605440106	0
4	3852	688487.125860238004	1
4	3857	688544.773193435191	0
4	3872	690525.281992357547	1
4	3874	690525.281992357547	0
4	3880	692566.175275629513	1
4	3882	692566.175275629513	0
4	3885	692638.852066675057	1
4	3890	692875.911414433601	0
4	3926	710942.639290578281	1
4	3928	710942.639290578281	0
4	3932	711032.329892258711	1
4	3945	711518.099669493922	0
4	3951	713712.239560031395	1
4	3953	713712.239560031395	0
4	3960	714714.561978968679	1
4	3962	714714.561978968679	0
4	3978	721002.436361437593	1
4	3980	721002.436361437593	0
4	4019	725666.767972346802	1
4	4021	725666.767972346802	0
4	4028	726073.496997718273	1
4	4030	726073.496997718273	0
4	4033	726245.973078921212	1
4	4038	726359.867341405199	0
4	4041	726556.081675061216	1
4	4046	726689.098227106968	0
4	4077	729815.313134468942	1
4	4079	729815.313134468942	0
4	4085	731980.609524354855	1
4	4087	731980.609524354855	0
4	4094	732900.515037608579	1
4	4096	732900.515037608579	0
4	4119	737934.76968448024	1
4	4121	737934.76968448024	0
4	4128	740208.244269100534	1
4	4130	740208.244269100534	0
4	4146	745630.648246404064	1
4	4148	745630.648246404064	0
4	4173	753541.488136862284	1
4	4175	753541.488136862284	0
4	4181	755657.764803551476	1
4	4183	755657.764803551476	0
4	4232	763912.150559527618	1
4	4234	763912.150559527618	0
4	4237	764031.629880341067	1
4	4242	764207.550157727447	0
4	4249	765249.172440464426	1
4	4251	765249.172440464426	0
4	4265	766898.821895356575	1
4	4267	766898.821895356575	0
4	4270	767119.328453796098	1
4	4275	767197.526823408028	0
4	4282	770091.104857951518	1
4	4284	770091.104857951518	0
4	4324	774469.059945904275	1
4	4326	774469.059945904275	0
4	4332	774978.09852396617	1
4	4334	774978.09852396617	0
4	4351	775488.324697824671	1
4	4366	776149.455576051036	0
4	4381	777743.375248553443	1
4	4383	777743.375248553443	0
4	4394	779285.068931982404	1
4	4399	779415.938424553157	0
4	4402	779676.653332360007	1
4	4407	779726.752553901861	0
4	4410	779884.663533185343	1
4	4415	779998.707437355682	0
4	4422	781513.305854138882	1
4	4424	781513.305854138882	0
4	4438	782984.007318685385	1
4	4440	782984.007318685385	0
4	4469	786217.540046658027	1
4	4474	786489.855946350823	0
4	4480	787467.532937513718	1
4	4482	787467.532937513718	0
4	4489	789619.894727670397	1
4	4491	789619.894727670397	0
4	4497	791520.954830797873	1
4	4499	791520.954830797873	0
4	4515	796165.922677618458	1
4	4517	796165.922677618458	0
4	4540	800902.627283007171	1
4	4542	800902.627283007171	0
4	4558	804559.018914113956	1
4	4560	804559.018914113956	0
4	4566	805452.921126296336	1
4	4568	805452.921126296336	0
4	4586	816481.707260307763	1
4	4588	816481.707260307763	0
4	4604	822775.343486902025	1
4	4606	822775.343486902025	0
4	4637	827472.31852559919	1
4	4639	827472.31852559919	0
4	4642	827523.357234175092	1
4	4647	827761.801641567051	0
4	4654	830368.562902526353	1
4	4656	830368.562902526353	0
4	4673	838383.671749145737	1
4	4675	838383.671749145737	0
4	4708	847035.221458156521	1
4	4710	847035.221458156521	0
4	4725	850032.521026715466	1
4	4727	850032.521026715466	0
4	4730	850119.192762480271	1
4	4735	850337.399661625595	0
4	4758	852379.329598780707	1
4	4760	852379.329598780707	0
4	4774	854512.268827466477	1
4	4776	854512.268827466477	0
4	4799	856153.194502250516	1
4	4801	856153.194502250516	0
4	4807	857483.008882314624	1
4	4809	857483.008882314624	0
4	4816	859196.427830589095	1
4	4818	859196.427830589095	0
4	4824	859749.936324117296	1
4	4826	859749.936324117296	0
4	4848	867563.445067470868	1
4	4853	867781.794430855185	0
4	4868	871260.149309218403	1
4	4870	871260.149309218403	0
4	4876	872496.408276152445	1
4	4878	872496.408276152445	0
4	4902	877218.760726101984	1
4	4904	877218.760726101984	0
4	4911	879010.264576572081	1
4	4913	879010.264576572081	0
4	4944	884233.345635482051	1
4	4946	884233.345635482051	0
4	4952	884720.736196697814	1
4	4954	884720.736196697814	0
4	4969	885939.918782889861	1
4	4971	885939.918782889861	0
4	4994	889496.938388936898	1
4	4996	889496.938388936898	0
4	5010	890603.45867171657	1
4	5012	890603.45867171657	0
4	5024	891574.08487144026	1
4	5029	891594.994632718846	0
4	5059	893500.332149935989	1
4	5061	893500.332149935989	0
4	5068	894567.944735430931	1
4	5070	894567.944735430931	0
4	5076	896105.460330825189	1
4	5078	896105.460330825189	0
4	5081	896365.873344587721	1
4	5086	896439.134463035185	0
4	5092	896782.497919725597	1
4	5094	896782.497919725597	0
4	5124	904641.443422265486	1
4	5129	904720.665107482787	0
4	5149	906126.080850992665	1
4	5154	906141.087078872794	0
4	5160	908459.579883001232	1
4	5162	908459.579883001232	0
4	5169	909517.979418380524	1
4	5171	909517.979418380524	0
4	5174	909669.938953789226	1
4	5179	909803.632295004968	0
4	5220	920382.017481993349	1
4	5222	920382.017481993349	0
4	5228	920961.043569445854	1
4	5230	920961.043569445854	0
4	5237	923266.197531909826	1
4	5239	923266.197531909826	0
4	5245	923891.345216007111	1
4	5247	923891.345216007111	0
4	5277	930857.865009721271	1
4	5282	931087.596747456743	0
4	5285	931380.360243519038	1
4	5290	931395.639961005483	0
4	5297	933989.808961184749	1
4	5299	933989.808961184749	0
4	5322	937685.988080500371	1
4	5324	937685.988080500371	0
4	5330	938634.75801681609	1
4	5332	938634.75801681609	0
4	5357	946645.113634382874	1
4	5359	946645.113634382874	0
4	5365	947368.36985148192	1
4	5367	947368.36985148192	0
4	5383	951825.480881773856	1
4	5385	951825.480881773856	0
4	5418	961828.832313587151	1
4	5420	961828.832313587151	0
4	5427	963273.391711554494	1
4	5429	963273.391711554494	0
4	5435	963852.322960069085	1
4	5437	963852.322960069085	0
4	5470	974228.214629460522	1
4	5472	974228.214629460522	0
4	5475	974365.535671679139	1
4	5480	974511.336542759767	0
4	5488	978288.465580493015	1
4	5490	978288.465580493015	0
4	5505	983722.681522427719	1
4	5507	983722.681522427719	0
4	5524	991578.236708444964	1
4	5526	991578.236708444964	0
4	5550	996728.082977357286	1
4	5552	996728.082977357286	0
4	5558	997050.862097466179	1
4	5560	997050.862097466179	0
5	919	141000	1
5	936	144000	1
5	953	147000	1
5	970	150000	1
5	995	153000	2
5	1012	156000	1
5	1029	159000	0
5	1030	162000	0
5	1055	165000	3
5	1077	168000	1
5	1097	171000	1
5	1114	174000	0
5	1123	177000	0
5	1156	180000	5
5	1189	183000	0
5	1206	186000	1
5	1207	189000	0
5	1232	192000	2
5	1246	195000	0
5	1255	198000	0
5	1259	201000	1
5	1268	204000	0
5	1269	207000	0
5	1278	210000	1
5	1295	213000	1
5	1296	216000	0
5	1305	219000	0
5	1306	222000	0
5	1307	225000	0
5	1316	228000	1
5	1317	231000	0
5	1342	234000	2
5	1367	237000	1
5	1384	240000	1
5	1401	243000	1
5	1410	246000	0
5	1427	249000	2
5	1452	252000	1
5	1477	255000	2
5	1502	258000	1
5	1503	261000	0
5	1512	264000	0
5	1521	267000	1
5	1522	270000	0
5	1539	273000	1
5	1564	276000	2
5	1573	279000	0
5	1590	282000	1
5	1591	285000	0
5	1608	288000	1
5	1609	291000	0
5	1634	294000	2
5	1659	297000	1
5	1676	300000	1
5	1693	303000	2
5	1715	306000	1
5	1743	309000	1
5	1760	312000	1
5	1769	315000	0
5	1770	318000	0
5	1784	321000	1
5	1804	324000	2
5	1829	327000	2
5	1854	330000	2
5	1876	333000	0
5	1888	336000	0
5	1889	339000	0
5	1890	342000	0
5	1915	345000	3
5	1932	348000	0
5	1949	351000	1
5	1974	354000	2
5	1983	357000	0
5	1992	360000	0
5	1993	363000	0
5	1994	366000	0
5	2011	369000	2
5	2028	372000	1
5	2045	375000	0
5	2054	378000	1
5	2063	381000	0
5	2088	384000	3
5	2102	387000	1
5	2130	390000	0
5	2131	393000	0
5	2148	396000	2
5	2170	399000	1
5	2182	402000	0
5	2183	405000	0
5	2184	408000	0
5	2201	411000	2
5	2218	414000	0
5	2227	417000	1
5	2233	420000	0
5	2237	423000	0
5	2246	426000	1
5	2260	429000	1
5	2277	432000	1
5	2289	435000	1
5	2306	438000	0
5	2307	441000	0
5	2329	444000	2
5	2349	447000	2
5	2374	450000	0
5	2375	453000	0
5	2384	456000	1
5	2398	459000	1
5	2410	462000	1
5	2435	465000	1
5	2452	468000	1
5	2461	471000	1
5	2486	474000	1
5	2500	477000	1
5	2504	480000	0
5	2521	483000	1
5	2546	486000	2
5	2563	489000	0
5	2564	492000	0
5	2578	495000	1
5	2590	498000	1
5	2599	501000	0
5	2600	504000	0
5	2617	507000	2
5	2634	510000	1
5	2659	513000	1
5	2668	516000	0
5	2677	519000	1
5	2686	522000	0
5	2695	525000	1
5	2696	528000	0
5	2718	531000	1
5	2730	534000	2
5	2768	537000	2
5	2812	540000	3
5	2826	543000	1
5	2854	546000	0
5	2871	549000	2
5	2885	552000	1
5	2902	555000	0
5	2914	558000	1
5	2923	561000	0
5	2932	564000	1
5	2946	567000	1
5	2974	570000	2
5	2991	573000	2
5	3021	576000	1
5	3041	579000	1
5	3058	582000	0
5	3067	585000	1
5	3089	588000	2
5	3125	591000	2
5	3147	594000	1
5	3159	597000	0
5	3168	600000	1
5	3177	603000	0
5	3186	606000	1
5	3200	609000	1
5	3220	612000	1
5	3237	615000	1
5	3254	618000	1
5	3263	621000	0
5	3285	624000	2
5	3302	627000	1
5	3322	630000	1
5	3339	633000	1
5	3353	636000	1
5	3373	639000	1
5	3374	642000	0
5	3407	645000	3
5	3464	648000	4
5	3513	651000	2
5	3530	654000	1
5	3563	657000	2
5	3580	660000	0
5	3602	663000	2
5	3627	666000	2
5	3652	669000	1
5	3693	672000	3
5	3721	675000	1
5	3746	678000	2
5	3771	681000	1
5	3804	684000	3
5	3845	687000	2
5	3870	690000	2
5	3892	693000	0
5	3896	696000	0
5	3897	699000	0
5	3898	702000	0
5	3899	705000	0
5	3916	708000	2
5	3930	711000	1
5	3955	714000	1
5	3967	717000	0
5	3976	720000	1
5	4014	723000	3
5	4023	726000	1
5	4075	729000	3
5	4089	732000	0
5	4109	735000	1
5	4123	738000	1
5	4135	741000	0
5	4144	744000	1
5	4153	747000	0
5	4159	750000	0
5	4171	753000	2
5	4188	756000	0
5	4189	759000	0
5	4211	762000	2
5	4247	765000	3
5	4280	768000	1
5	4302	771000	1
5	4322	774000	3
5	4371	777000	3
5	4417	780000	2
5	4442	783000	1
5	4459	786000	1
5	4487	789000	2
5	4504	792000	0
5	4513	795000	1
5	4530	798000	1
5	4544	801000	1
5	4556	804000	1
5	4573	807000	0
5	4574	810000	0
5	4583	813000	1
5	4584	816000	0
5	4593	819000	0
5	4602	822000	1
5	4627	825000	2
5	4649	828000	1
5	4661	831000	0
5	4662	834000	0
5	4671	837000	1
5	4680	840000	0
5	4689	843000	1
5	4695	846000	0
5	4720	849000	2
5	4753	852000	2
5	4786	855000	2
5	4814	858000	2
5	4831	861000	0
5	4837	864000	0
5	4841	867000	1
5	4866	870000	2
5	4883	873000	0
5	4900	876000	2
5	4909	879000	0
5	4934	882000	2
5	4956	885000	1
5	4992	888000	3
5	5017	891000	1
5	5066	894000	4
5	5096	897000	0
5	5100	900000	0
5	5114	903000	1
5	5147	906000	3
5	5167	909000	1
5	5184	912000	0
5	5185	915000	0
5	5202	918000	2
5	5232	921000	2
5	5249	924000	0
5	5261	927000	1
5	5270	930000	1
5	5295	933000	1
5	5320	936000	2
5	5337	939000	0
5	5338	942000	0
5	5355	945000	2
5	5377	948000	0
5	5381	951000	1
5	5390	954000	0
5	5391	957000	0
5	5408	960000	1
5	5425	963000	2
5	5442	966000	0
5	5443	969000	0
5	5460	972000	2
5	5485	975000	1
5	5486	978000	0
5	5503	981000	1
5	5509	984000	0
5	5513	987000	0
5	5522	990000	1
5	5539	993000	1
5	5548	996000	1
5	5565	999000	0
5	5566	1002000	0
6	919	141000	3
6	936	144000	1
6	953	147000	1
6	970	150000	1
6	995	153000	1
6	1012	156000	1
6	1029	159000	2
6	1030	162000	0
6	1055	165000	0
6	1077	168000	1
6	1097	171000	2
6	1114	174000	2
6	1123	177000	0
6	1156	180000	0
6	1189	183000	4
6	1206	186000	1
6	1207	189000	0
6	1232	192000	1
6	1246	195000	1
6	1255	198000	1
6	1259	201000	0
6	1268	204000	1
6	1269	207000	0
6	1278	210000	0
6	1295	213000	1
6	1296	216000	0
6	1305	219000	1
6	1306	222000	0
6	1307	225000	0
6	1316	228000	0
6	1317	231000	0
6	1342	234000	1
6	1367	237000	2
6	1384	240000	1
6	1401	243000	1
6	1410	246000	1
6	1427	249000	0
6	1452	252000	2
6	1477	255000	1
6	1502	258000	2
6	1503	261000	0
6	1512	264000	1
6	1521	267000	0
6	1522	270000	0
6	1539	273000	1
6	1564	276000	1
6	1573	279000	1
6	1590	282000	1
6	1591	285000	0
6	1608	288000	1
6	1609	291000	0
6	1634	294000	1
6	1659	297000	2
6	1676	300000	1
6	1693	303000	0
6	1715	306000	1
6	1743	309000	3
6	1760	312000	1
6	1769	315000	1
6	1770	318000	0
6	1784	321000	0
6	1804	324000	1
6	1829	327000	1
6	1854	330000	1
6	1876	333000	2
6	1888	336000	2
6	1889	339000	0
6	1890	342000	0
6	1915	345000	0
6	1932	348000	1
6	1949	351000	2
6	1974	354000	1
6	1983	357000	1
6	1992	360000	1
6	1993	363000	0
6	1994	366000	0
6	2011	369000	0
6	2028	372000	1
6	2045	375000	2
6	2054	378000	0
6	2063	381000	1
6	2088	384000	0
6	2102	387000	0
6	2130	390000	4
6	2131	393000	0
6	2148	396000	0
6	2170	399000	1
6	2182	402000	2
6	2183	405000	0
6	2184	408000	0
6	2201	411000	0
6	2218	414000	2
6	2227	417000	0
6	2233	420000	0
6	2237	423000	1
6	2246	426000	0
6	2260	429000	0
6	2277	432000	1
6	2289	435000	1
6	2306	438000	2
6	2307	441000	0
6	2329	444000	0
6	2349	447000	1
6	2374	450000	3
6	2375	453000	0
6	2384	456000	0
6	2398	459000	0
6	2410	462000	1
6	2435	465000	2
6	2452	468000	1
6	2461	471000	0
6	2486	474000	2
6	2500	477000	0
6	2504	480000	1
6	2521	483000	1
6	2546	486000	1
6	2563	489000	2
6	2564	492000	0
6	2578	495000	0
6	2590	498000	1
6	2599	501000	1
6	2600	504000	0
6	2617	507000	0
6	2634	510000	0
6	2659	513000	3
6	2668	516000	1
6	2677	519000	0
6	2686	522000	1
6	2695	525000	0
6	2696	528000	0
6	2718	531000	1
6	2730	534000	0
6	2768	537000	2
6	2812	540000	2
6	2826	543000	1
6	2854	546000	4
6	2871	549000	0
6	2885	552000	0
6	2902	555000	2
6	2914	558000	1
6	2923	561000	1
6	2932	564000	0
6	2946	567000	0
6	2974	570000	2
6	2991	573000	0
6	3021	576000	2
6	3041	579000	2
6	3058	582000	2
6	3067	585000	0
6	3089	588000	0
6	3125	591000	3
6	3147	594000	1
6	3159	597000	2
6	3168	600000	0
6	3177	603000	1
6	3186	606000	0
6	3200	609000	0
6	3220	612000	2
6	3237	615000	1
6	3254	618000	1
6	3263	621000	1
6	3285	624000	0
6	3302	627000	1
6	3322	630000	2
6	3339	633000	1
6	3353	636000	0
6	3373	639000	2
6	3374	642000	0
6	3407	645000	1
6	3464	648000	3
6	3513	651000	4
6	3530	654000	1
6	3563	657000	2
6	3580	660000	1
6	3602	663000	1
6	3627	666000	1
6	3652	669000	2
6	3693	672000	2
6	3721	675000	3
6	3746	678000	1
6	3771	681000	2
6	3804	684000	1
6	3845	687000	3
6	3870	690000	1
6	3892	693000	2
6	3896	696000	1
6	3897	699000	0
6	3898	702000	0
6	3899	705000	0
6	3916	708000	0
6	3930	711000	0
6	3955	714000	2
6	3967	717000	2
6	3976	720000	0
6	4014	723000	1
6	4023	726000	0
6	4075	729000	4
6	4089	732000	1
6	4109	735000	2
6	4123	738000	0
6	4135	741000	2
6	4144	744000	0
6	4153	747000	1
6	4159	750000	0
6	4171	753000	0
6	4188	756000	2
6	4189	759000	0
6	4211	762000	0
6	4247	765000	2
6	4280	768000	3
6	4302	771000	1
6	4322	774000	0
6	4371	777000	3
6	4417	780000	3
6	4442	783000	2
6	4459	786000	1
6	4487	789000	2
6	4504	792000	2
6	4513	795000	0
6	4530	798000	1
6	4544	801000	0
6	4556	804000	1
6	4573	807000	2
6	4574	810000	0
6	4583	813000	0
6	4584	816000	0
6	4593	819000	1
6	4602	822000	0
6	4627	825000	1
6	4649	828000	1
6	4661	831000	2
6	4662	834000	0
6	4671	837000	0
6	4680	840000	1
6	4689	843000	0
6	4695	846000	0
6	4720	849000	1
6	4753	852000	2
6	4786	855000	2
6	4814	858000	2
6	4831	861000	2
6	4837	864000	0
6	4841	867000	0
6	4866	870000	1
6	4883	873000	2
6	4900	876000	0
6	4909	879000	1
6	4934	882000	1
6	4956	885000	1
6	4992	888000	2
6	5017	891000	2
6	5066	894000	2
6	5096	897000	3
6	5100	900000	1
6	5114	903000	0
6	5147	906000	1
6	5167	909000	2
6	5184	912000	2
6	5185	915000	0
6	5202	918000	0
6	5232	921000	1
6	5249	924000	2
6	5261	927000	1
6	5270	930000	0
6	5295	933000	2
6	5320	936000	1
6	5337	939000	2
6	5338	942000	0
6	5355	945000	0
6	5377	948000	2
6	5381	951000	0
6	5390	954000	1
6	5391	957000	0
6	5408	960000	0
6	5425	963000	1
6	5442	966000	2
6	5443	969000	0
6	5460	972000	0
6	5485	975000	2
6	5486	978000	0
6	5503	981000	1
6	5509	984000	0
6	5513	987000	1
6	5522	990000	0
6	5539	993000	1
6	5548	996000	0
6	5565	999000	2
6	5566	1002000	0
7	926	142801.852716991986	2
7	928	142940.19394743818	1
7	943	144551.830505680462	2
7	945	146351.02321305271	1
7	960	147767.039861897645	2
7	962	147860.313869891961	1
7	977	150307.735724955619	2
7	985	151513.923630743785	3
7	987	151539.349843972759	2
7	996	153457.524797893503	1
7	1010	154367.729444461358	2
7	1013	156206.674572501959	1
7	1021	158340.615135218778	0
7	1040	163459.327343604385	1
7	1045	163757.744251805984	2
7	1053	164293.064737640351	3
7	1056	167225.289934017681	2
7	1069	167597.825542603296	1
7	1073	167900.433530972386	2
7	1078	168045.149452360332	1
7	1095	169594.722224913441	2
7	1098	171415.943196426525	1
7	1106	172447.665483624504	0
7	1128	177225.115986319372	1
7	1133	177510.511900317174	2
7	1141	177810.304203177241	3
7	1146	178148.370174643827	4
7	1154	179168.621824124559	5
7	1157	180555.09130125607	4
7	1165	180983.335748579094	3
7	1173	181411.236340709432	2
7	1181	182175.063843927859	1
7	1190	183158.988854305007	0
7	1204	185893.236441677454	1
7	1208	189583.195344764574	0
7	1225	191207.342220939511	1
7	1230	191539.470207142638	2
7	1233	194584.922219167726	1
7	1238	194627.793043187843	0
7	1257	198006.64998792999	1
7	1260	201446.191969798065	0
7	1276	208892.398874829839	1
7	1285	212052.709388087243	2
7	1287	212494.704717531692	1
7	1297	216042.100743723549	0
7	1314	227329.427830911011	1
7	1318	231253.292951920294	0
7	1332	233057.169092598789	1
7	1340	233492.496043661734	2
7	1349	235066.999152440707	3
7	1351	236416.258677435152	2
7	1356	236467.632047858574	1
7	1368	238159.472135474867	0
7	1382	238724.598300468944	1
7	1391	241517.324384889479	2
7	1393	242069.641030926275	1
7	1402	245193.179527761992	0
7	1417	246863.53774421124	1
7	1425	247318.771673935822	2
7	1428	250630.841101026436	1
7	1433	250789.055157337297	0
7	1445	251189.514982389581	1
7	1459	252498.995785592009	2
7	1467	253742.911513937759	3
7	1469	254691.003722492035	2
7	1478	256191.608371985528	1
7	1486	256986.515503407866	0
7	1500	257629.960581728975	1
7	1504	261342.142487917497	0
7	1519	266776.834888514862	1
7	1529	270410.847905112109	2
7	1531	270862.54036341706	1
7	1540	273539.473547946244	0
7	1554	275256.94314260084	1
7	1562	275830.932161411324	2
7	1565	278452.480659753833	1
7	1574	279574.800318063779	0
7	1588	281960.148104993382	1
7	1592	285329.633686147689	0
7	1606	287470.346752052842	1
7	1610	291206.600073235462	0
7	1624	292106.369575652288	1
7	1632	292671.670208438414	2
7	1641	294880.372674669838	3
7	1643	295443.714007597532	2
7	1648	295702.07244380422	1
7	1660	298053.274741917758	0
7	1674	298854.52029886468	1
7	1683	302251.536506284517	2
7	1691	302750.746963725779	3
7	1694	303143.615467753707	2
7	1708	303790.831177320557	3
7	1717	306170.65561720106	4
7	1719	306357.399006935966	3
7	1724	306358.876673274559	2
7	1735	307006.327152791577	1
7	1744	310186.341956631032	0
7	1758	310834.38504741789	1
7	1761	314309.069357232522	0
7	1777	318390.357692047345	1
7	1786	321285.189335841136	2
7	1788	321874.78241468871	1
7	1802	323663.965326266437	2
7	1805	324840.169632961952	1
7	1822	326591.668637869237	2
7	1827	326843.185428434152	3
7	1830	327108.169320785444	2
7	1847	328939.92752273825	3
7	1852	329246.937090616266	4
7	1855	330065.952743965705	3
7	1863	330700.090695736741	2
7	1871	332950.648117359781	1
7	1880	333325.168414283068	0
7	1897	342922.958185069606	1
7	1908	344428.559826002666	2
7	1913	344693.738204851663	3
7	1916	345976.754673984585	2
7	1924	347830.660081984058	1
7	1929	347869.326258193485	0
7	1947	349083.323497076825	1
7	1950	352553.523633580401	0
7	1964	353155.759372230433	1
7	1972	353783.395160376416	2
7	1975	356662.15388647401	1
7	1984	357539.666733398234	0
7	2001	368212.440864809202	1
7	2009	368973.146389646444	2
7	2018	369820.049188444414	3
7	2020	371518.549687925802	2
7	2029	372134.835568386441	1
7	2037	373606.017109116036	0
7	2052	377464.92531901357	1
7	2055	380548.752526017713	0
7	2070	382930.95731209512	1
7	2081	383635.106873183494	2
7	2086	383982.206962817259	3
7	2095	385004.590993123819	4
7	2097	386908.976172939339	3
7	2103	387088.287997404992	2
7	2114	387944.478565813299	1
7	2119	388126.210533860169	0
7	2138	394104.762488788428	1
7	2146	395208.092366020393	2
7	2155	396598.614480141492	3
7	2157	397613.027764012085	2
7	2165	398809.977565395494	1
7	2174	400231.424666971737	0
7	2191	408274.207089561243	1
7	2199	409401.681675665875	2
7	2202	412099.432984327362	1
7	2210	413382.64534485928	0
7	2225	416373.704963642547	1
7	2228	419964.373167167614	0
7	2244	425238.467068319188	1
7	2253	428301.322848327928	2
7	2255	428945.138112310817	1
7	2270	431636.092340240608	2
7	2272	431809.107650647038	1
7	2287	432433.217689905617	2
7	2290	435758.457737650009	1
7	2295	435804.546181854557	0
7	2314	442182.930663711142	1
7	2322	443740.75538930301	2
7	2331	444096.699812118623	3
7	2339	445933.101096508122	4
7	2341	446060.429109639164	3
7	2350	447675.344238190247	2
7	2355	447777.064702213829	1
7	2366	449395.71151530789	0
7	2382	455202.18265821735	1
7	2391	458547.204898665774	2
7	2393	458915.090608676381	1
7	2408	460333.878589405338	2
7	2411	462269.242636753655	1
7	2425	464094.8665871716	2
7	2427	464202.936812200778	1
7	2436	467274.25867079418	0
7	2450	467962.470545589796	1
7	2459	469089.247437673025	2
7	2462	471703.399510466126	1
7	2470	472777.452130905354	0
7	2484	473279.501528482483	1
7	2493	476785.959497792736	2
7	2495	476930.680177512702	1
7	2505	481213.003814790299	0
7	2519	481945.301032245698	1
7	2528	484061.537264319117	2
7	2535	485187.857656159201	1
7	2539	485244.058546435381	2
7	2547	487391.716920846344	1
7	2555	488032.008618753899	0
7	2571	492998.928619335125	1
7	2580	495022.797280132799	2
7	2582	495862.580529038763	1
7	2591	498932.936618110167	0
7	2607	506357.340069045032	1
7	2615	506749.960757242796	2
7	2624	507628.55453569043	3
7	2626	509862.89760595297	2
7	2631	509982.118912462916	1
7	2649	511202.53230577207	2
7	2651	511559.981045920846	1
7	2660	514527.178021565368	0
7	2675	517518.752203418689	1
7	2678	520974.415050048741	0
7	2693	524855.124130471519	1
7	2697	528794.705978470239	0
7	2714	530971.575115175258	1
7	2720	531261.78252538087	2
7	2728	533324.193956025253	3
7	2731	534595.775377072696	2
7	2736	534677.463946389007	1
7	2748	535124.297555457249	2
7	2761	536774.044709940238	3
7	2763	536983.536896391496	2
7	2772	538743.694013593765	1
7	2795	539409.380172890869	2
7	2799	539502.880509383901	1
7	2803	539709.765022176458	2
7	2808	539976.924570467817	3
7	2814	540230.784273824483	4
7	2821	542953.438150540266	3
7	2827	543162.890874725042	2
7	2835	543540.594252066442	1
7	2843	543674.539016475408	0
7	2864	548669.815418042786	1
7	2869	548973.627895189535	2
7	2878	551718.374604336669	3
7	2880	551968.776637331408	2
7	2889	552379.298101293611	1
7	2897	554846.203752422073	0
7	2912	555916.05732513803	1
7	2915	559110.029896369884	0
7	2930	563266.525882398302	1
7	2939	564645.632363907852	2
7	2941	566818.705826110979	1
7	2950	567698.095908079744	0
7	2967	569705.12082120243	1
7	2972	569945.245432231089	2
7	2984	571640.56236906624	3
7	2989	571945.291940416505	4
7	2992	573548.177375218612	3
7	2997	573619.819121931742	2
7	3014	575411.037453481194	3
7	3016	575978.544659522531	2
7	3022	576195.68795843826	1
7	3039	576901.670377867978	2
7	3042	579221.399763657451	1
7	3050	580257.131875972169	0
7	3065	583806.176121775649	1
7	3074	585382.075478062339	2
7	3082	586053.635292954074	3
7	3084	587835.515624573657	2
7	3093	589195.270185906362	1
7	3109	589660.394119565747	0
7	3113	589821.865455866902	1
7	3118	590125.113476228942	2
7	3132	592213.512369906659	3
7	3134	593217.079577985995	2
7	3142	593880.950099150528	1
7	3151	595177.219865858294	0
7	3166	598493.030516295443	1
7	3169	602289.39092620792	0
7	3184	605783.687620392374	1
7	3193	607371.911955936363	2
7	3195	608893.618693216535	1
7	3210	609814.743839883264	2
7	3212	611148.439242092938	1
7	3226	613177.887105068987	0
7	3230	613470.230921713543	1
7	3244	617071.786859938615	2
7	3246	617284.097373612505	1
7	3255	620646.57980747874	0
7	3270	622705.400888513995	1
7	3278	623148.829964486084	2
7	3287	624123.381442338811	3
7	3289	626354.61954403794	2
7	3304	627025.232772957106	3
7	3306	627215.834114301972	2
7	3311	627342.285851459541	1
7	3323	630484.308592001245	0
7	3337	632021.099521887901	1
7	3346	633621.233517212877	2
7	3348	635976.927106601342	1
7	3363	637512.636783185348	2
7	3365	637787.259880112198	1
7	3375	642016.893645956188	0
7	3389	642565.306316038739	1
7	3397	642846.24924348941	2
7	3405	643731.528946625598	3
7	3420	645904.438676065103	4
7	3424	645959.311338620862	3
7	3427	646142.688196526092	2
7	3434	646269.851326323688	3
7	3439	646554.70344349502	4
7	3444	646861.908403106423	5
7	3453	647168.195925506425	4
7	3470	649303.07364788932	3
7	3474	649562.169351994086	4
7	3481	649870.317225296369	3
7	3486	649895.308954391915	2
7	3497	650203.480685204063	1
7	3501	650430.743144965233	2
7	3520	652642.147623618908	3
7	3522	653640.476887533442	2
7	3531	654752.001263576761	1
7	3545	655359.068640205853	2
7	3552	656369.057270958346	1
7	3556	656534.901053747493	2
7	3564	659505.502979209814	1
7	3572	659732.255932821414	0
7	3582	660107.879749352539	1
7	3595	662588.431968722589	2
7	3604	663108.795311815764	3
7	3606	663552.692939590668	2
7	3620	665142.040362845456	3
7	3629	666081.392119516406	4
7	3631	666322.646335165629	3
7	3639	666680.839632892042	2
7	3647	668811.924835624209	1
7	3662	669644.311860302778	2
7	3664	669654.273726603186	1
7	3678	670793.506630841273	2
7	3686	671250.880588030835	3
7	3695	672168.192390023106	4
7	3697	672688.130289607478	3
7	3705	673898.688072075843	2
7	3713	674469.795573857977	1
7	3722	675772.166584135881	0
7	3736	676395.436570959257	1
7	3744	677096.441540204818	2
7	3753	679436.103047276297	3
7	3755	680014.443445846396	2
7	3763	680513.135528603776	1
7	3778	681499.235662983921	2
7	3789	682301.151867818315	3
7	3794	682618.01052027362	4
7	3796	682809.49220295986	3
7	3811	684873.480953676216	4
7	3813	685223.06142118433	3
7	3821	685913.760084995515	2
7	3829	686280.800605440106	1
7	3843	686892.714523502793	2
7	3851	688487.125860238004	1
7	3855	688544.773193435191	2
7	3868	689228.729204050583	3
7	3871	690525.281992357547	2
7	3879	692566.175275629513	1
7	3884	692638.852066675057	0
7	3906	707302.625160015665	1
7	3914	707556.198836308984	2
7	3923	709875.117943163307	3
7	3925	710942.639290578281	2
7	3931	711032.329892258711	1
7	3943	711518.099669493922	2
7	3950	713712.239560031395	1
7	3959	714714.561978968679	0
7	3974	717291.307309900267	1
7	3977	721002.436361437593	0
7	3991	721772.364595426359	1
7	4002	722477.01408671505	2
7	4010	722766.331196223272	3
7	4016	723057.364628864332	4
7	4018	725666.767972346802	3
7	4027	726073.496997718273	2
7	4032	726245.973078921212	1
7	4040	726556.081675061216	0
7	4057	727283.263563828312	1
7	4065	728386.85793604799	2
7	4073	728850.640732670542	3
7	4076	729815.313134468942	2
7	4084	731980.609524354855	1
7	4093	732900.515037608579	0
7	4107	734414.272187519417	1
7	4116	736978.95555911113	2
7	4118	737934.76968448024	1
7	4127	740208.244269100534	0
7	4142	742377.088671986334	1
7	4145	745630.648246404064	0
7	4161	750040.974532580697	1
7	4169	752271.957386424097	2
7	4172	753541.488136862284	1
7	4180	755657.764803551476	0
7	4199	760810.741868588857	1
7	4204	761059.504812787497	2
7	4213	762324.18489593526	3
7	4224	763391.03254774771	4
7	4229	763704.025447667284	5
7	4231	763912.150559527618	4
7	4236	764031.629880341067	3
7	4248	765249.172440464426	2
7	4262	766138.97822658231	3
7	4264	766898.821895356575	2
7	4269	767119.328453796098	1
7	4281	770091.104857951518	0
7	4298	770896.730316439642	1
7	4304	771160.677207152661	2
7	4312	771769.202856173395	3
7	4320	773812.436171290988	4
7	4323	774469.059945904275	3
7	4331	774978.09852396617	2
7	4350	775488.324697824671	1
7	4354	775599.508501276651	2
7	4359	775881.62203829188	3
7	4364	776149.455576051036	4
7	4378	777554.986873192577	5
7	4380	777743.375248553443	4
7	4393	779285.068931982404	3
7	4397	779415.938424553157	4
7	4401	779676.653332360007	3
7	4409	779884.663533185343	2
7	4421	781513.305854138882	1
7	4435	782690.013227281578	2
7	4437	782984.007318685385	1
7	4452	783540.078162206982	2
7	4461	786145.520852481093	3
7	4468	786217.540046658027	2
7	4472	786489.855946350823	3
7	4479	787467.532937513718	2
7	4488	789619.894727670397	1
7	4496	791520.954830797873	0
7	4511	792959.797782132344	1
7	4514	796165.922677618458	0
7	4528	797050.643613914229	1
7	4537	800898.126148927758	2
7	4539	800902.627283007171	1
7	4554	801908.581274222282	2
7	4557	804559.018914113956	1
7	4565	805452.921126296336	0
7	4581	812895.986376646554	1
7	4585	816481.707260307763	0
7	4600	819529.744626244326	1
7	4603	822775.343486902025	0
7	4617	823388.884232897251	1
7	4625	823956.295545733829	2
7	4634	826313.698509172686	3
7	4636	827472.31852559919	2
7	4641	827523.357234175092	1
7	4653	830368.562902526353	0
7	4669	834826.34665623138	1
7	4672	838383.671749145737	0
7	4687	842834.54211917153	1
7	4700	846186.008867603738	2
7	4705	846480.139291100001	3
7	4707	847035.221458156521	2
7	4722	849128.478849571786	3
7	4724	850032.521026715466	2
7	4729	850119.192762480271	1
7	4746	851140.333837941671	2
7	4755	852256.37725267676	3
7	4757	852379.329598780707	2
7	4771	853863.201385026211	3
7	4773	854512.268827466477	2
7	4788	855308.665894815063	3
7	4796	855866.489052102297	4
7	4798	856153.194502250516	3
7	4806	857483.008882314624	2
7	4815	859196.427830589095	1
7	4823	859749.936324117296	0
7	4839	864205.885838619437	1
7	4847	867563.445067470868	0
7	4851	867781.794430855185	1
7	4864	869120.312351940405	2
7	4867	871260.149309218403	1
7	4875	872496.408276152445	0
7	4890	874032.577892401069	1
7	4898	875315.542419172204	2
7	4901	877218.760726101984	1
7	4910	879010.264576572081	0
7	4924	880445.456742848042	1
7	4932	881027.185342608002	2
7	4941	882865.724403359191	3
7	4943	884233.345635482051	2
7	4951	884720.736196697814	1
7	4966	885784.728788785397	2
7	4968	885939.918782889861	1
7	4982	886561.685399080592	2
7	4990	887713.947122644626	3
7	4993	889496.938388936898	2
7	5007	890113.0111115061	3
7	5009	890603.45867171657	2
7	5023	891574.08487144026	1
7	5027	891594.994632718846	2
7	5043	892728.543893508785	3
7	5051	893033.518714568871	4
7	5056	893359.951795013185	5
7	5058	893500.332149935989	4
7	5067	894567.944735430931	3
7	5075	896105.460330825189	2
7	5080	896365.873344587721	1
7	5091	896782.497919725597	0
7	5107	901015.1025588725	1
7	5116	903039.958623055914	2
7	5123	904641.443422265486	1
7	5127	904720.665107482787	2
7	5140	905775.276150027887	3
7	5148	906126.080850992665	2
7	5152	906141.087078872794	3
7	5159	908459.579883001232	2
7	5168	909517.979418380524	1
7	5173	909669.938953789226	0
7	5192	916069.175700666598	1
7	5200	916895.726633949209	2
7	5212	919958.367131990281	3
7	5217	920273.019384572939	4
7	5219	920382.017481993349	3
7	5227	920961.043569445854	2
7	5236	923266.197531909826	1
7	5244	923891.345216007111	0
7	5259	926979.977502769562	1
7	5268	927843.083865201927	2
7	5276	930857.865009721271	1
7	5280	931087.596747456743	2
7	5284	931380.360243519038	1
7	5296	933989.808961184749	0
7	5313	934565.608527620685	1
7	5318	934869.389973142257	2
7	5321	937685.988080500371	1
7	5329	938634.75801681609	0
7	5345	943042.465411572975	1
7	5353	944115.604535595702	2
7	5356	946645.113634382874	1
7	5364	947368.36985148192	0
7	5379	948180.215025584146	1
7	5382	951825.480881773856	0
7	5398	958441.179298569023	1
7	5410	960082.754381282957	2
7	5415	960409.598782653275	3
7	5417	961828.832313587151	2
7	5426	963273.391711554494	1
7	5434	963852.322960069085	0
7	5450	970342.91553378849	1
7	5458	970874.214733892724	2
7	5467	973968.397626031002	3
7	5469	974228.214629460522	2
7	5474	974365.535671679139	1
7	5487	978288.465580493015	0
7	5501	980541.701996675048	1
7	5504	983722.681522427719	0
7	5520	987662.088239925148	1
7	5523	991578.236708444964	0
7	5537	992704.354368278835	1
7	5546	993315.145731247286	2
7	5549	996728.082977357286	1
7	5557	997050.862097466179	0
