version 2
run ResponseMeasurement-30-20170110-19:47:37-22911
attr configname ResponseMeasurement
attr datetime 20170110-19:47:37
attr experiment ResponseMeasurement
attr inifile responseStudy.ini
attr iterationvars ""
attr iterationvars2 $repetition=30
attr measurement ""
attr network controltower.SimNetwork
attr processid 22911
attr repetition 30
attr replication #30
attr resultdir results
attr runnumber 30
attr seedset 30
param SimNetwork.a.parkingLot.parkingDelay "truncnormal(60min, 6min)"
param SimNetwork.a.runway.landingTime "truncnormal(5min, 0.5min)"
param SimNetwork.a.runway.takeoffTime "truncnormal(5min, 0.5min)"
param SimNetwork.a.runway.throughputCheckInterval 50min
param SimNetwork.wg.interArrivalTime exponential(50min)

statistic SimNetwork.wg 	responseTime:stats
field count 267
field mean 7496.6403414218
field stddev 3105.6566754576
field sum 2001602.9711596
field sqrsum 17570895081.732
field min 3804.9610357436
field max 23386.108812322
attr source  responseTimeSignal
scalar SimNetwork.a.landingQueue 	queueLength:timeavg 	0.0080921261183595
attr source  queueLengthSignal
statistic SimNetwork.a.landingQueue 	queueLength:stats
field count 536
field mean 0.50746268656716
field stddev 0.50782686955913
field sum 272
field sqrsum 276
field min 0
field max 2
attr source  queueLengthSignal
statistic SimNetwork.a.landingQueue 	queueTime:stats
field count 268
field mean 25.97111826199
field stddev 76.258877491347
field sum 6960.2596942132
field sqrsum 1733481.9054487
field min 0
field max 599.66002082235
attr source  queueTimeSignal
scalar SimNetwork.a.takeoffQueue 	queueLength:timeavg 	0.01053059641242
attr source  queueLengthSignal
statistic SimNetwork.a.takeoffQueue 	queueLength:stats
field count 534
field mean 0.51123595505618
field stddev 0.51146807842978
field sum 273
field sqrsum 279
field min 0
field max 2
attr source  queueLengthSignal
statistic SimNetwork.a.takeoffQueue 	queueTime:stats
field count 267
field mean 33.767983348747
field stddev 86.300880525096
field sum 9016.0515541156
field sqrsum 2285579.8452731
field min 0
field max 498.9844397545
attr source  queueTimeSignal
scalar SimNetwork.a.parkingLot 	parkingOccupancy:timeavg 	1.1293987628854
attr source  parkingOccupancy
statistic SimNetwork.a.parkingLot 	parkingOccupancy:stats
field count 535
field mean 1.6224299065421
field stddev 1.2268308500704
field sum 868
field sqrsum 2212
field min 0
field max 7
attr source  parkingOccupancy
