version 2
run WarmupMeasurement-20-20170109-15:30:57-1883
attr configname WarmupMeasurement
attr datetime 20170109-15:30:57
attr experiment WarmupMeasurement
attr inifile responseStudy.ini
attr iterationvars ""
attr iterationvars2 $repetition=20
attr measurement ""
attr network controltower.SimNetwork
attr processid 1883
attr repetition 20
attr replication #20
attr resultdir results
attr runnumber 20
attr seedset 20
param SimNetwork.a.parkingLot.parkingDelay "truncnormal(60min, 6min)"
param SimNetwork.a.runway.landingTime "truncnormal(5min, 0.5min)"
param SimNetwork.a.runway.takeoffTime "truncnormal(5min, 0.5min)"
param SimNetwork.a.runway.throughputCheckInterval 50min
param SimNetwork.wg.interArrivalTime exponential(50min)

vector 2  SimNetwork.a.landingQueue  queueLength:vector  ETV
attr source  queueLengthSignal
vector 1  SimNetwork.a.landingQueue  queueTime:vector  ETV
attr source  queueTimeSignal
vector 5  SimNetwork.a.runway  landedThroughput:vector  ETV
attr source  landedThroughputSignal
vector 6  SimNetwork.a.runway  tookoffThroughput:vector  ETV
attr source  tookoffThroughputSignal
vector 7  SimNetwork.a.parkingLot  parkingOccupancy:vector  ETV
attr source  parkingOccupancy
vector 4  SimNetwork.a.takeoffQueue  queueLength:vector  ETV
attr source  queueLengthSignal
vector 3  SimNetwork.a.takeoffQueue  queueTime:vector  ETV
attr source  queueTimeSignal
vector 0  SimNetwork.wg  responseTime:vector  ETV
attr source  responseTimeSignal
0	17	7607.658253131397	7607.6582531314
0	43	13242.213048962445	10581.064716886
0	51	14024.708658128505	4811.5077704771
0	78	22804.027865221139	13481.17862488
0	87	26357.913483384703	8020.6452760997
0	132	32546.00233723649	10404.736511881
0	149	33680.508329259446	5504.9631288184
0	154	34000.84714234144	5005.0757974178
0	170	35230.615738596651	5297.2855700202
0	179	36432.767171397011	5908.5423782879
0	187	38164.44837775992	5861.1713356917
0	232	43725.429507409817	9355.0450926604
0	246	45083.122351716574	5308.9138918706
0	254	45649.270571192512	4759.6461060778
0	262	46634.939999306	5594.4589242556
0	279	48228.733430050668	5681.4492047803
0	288	51909.045665899458	8311.6630822936
0	318	61963.061297589158	14389.510555727
0	340	63854.262523469542	5966.1792704217
0	348	65881.800128207983	5906.7187896915
0	357	67083.184962832361	5284.4715966757
0	391	73369.953152205966	10138.073103758
0	408	75506.292200713843	5395.6606491257
0	416	76059.036642119484	4680.1823057586
0	441	78743.011503020478	6707.9039245708
0	450	81406.367064916921	6563.5612229258
0	458	82181.260816204089	5418.7277846571
0	491	86010.359305567812	8245.4961926425
0	500	88144.519435271134	5936.3747280923
0	508	88831.963518653143	4452.429053984
0	553	94115.264771493702	9153.192646847
0	566	95120.838014276393	4921.8802666213
0	575	97209.485891033325	6210.1625765163
0	602	98175.236587734886	5562.643403522
0	610	98469.38755869131	5498.5787398005
0	643	101295.035649543672	4041.3024632554
0	648	101566.843007846111	7718.3082225569
0	665	102640.284932610682	5357.6345205681
0	681	103902.128847431716	5510.8347503616
0	689	104866.938914073093	4712.658029025
0	698	106259.568083929088	5714.5146540291
0	706	107023.536329167434	5023.8837597357
0	727	120171.079135221453	17291.609020836
0	761	127910.529749150969	11383.23279372
0	773	129850.83884170313	5997.5001490072
0	789	131168.374552669169	6346.4185499594
0	803	134239.123057053189	7988.7707167133
0	820	135264.713576465573	5583.2555742198
0	829	139133.401534922205	8028.3226312056
0	847	146328.990456207791	11920.543681536
0	874	155682.975725733282	13315.193797935
0	891	158679.250978646657	6845.1357740351
0	900	160202.163133562805	5393.1622652762
0	926	167234.722009966495	10670.934107482
0	934	167569.161416440272	4189.4666233987
0	953	175883.846054755891	12000.300590476
0	971	182929.064328840775	11405.705301266
0	998	190064.569880292321	10882.076101131
0	1007	192233.889698362647	5724.7389660436
0	1024	197282.80466403964	9253.9133763506
0	1050	203191.85168281774	9599.002632156
0	1058	203701.722677724616	4777.3409630656
0	1092	208675.675436999222	9550.9119540491
0	1101	210233.86176459825	5885.8545241212
0	1112	211599.763372046559	5771.3841040661
0	1135	216019.343462130825	8321.9180283304
0	1143	217400.600732513525	5863.9508186452
0	1169	222914.703844541341	10035.107758572
0	1177	223249.257288986831	4583.4638490454
0	1203	228665.089737297388	8944.5606788458
0	1211	230353.528629543296	6015.1899338734
0	1237	235525.937589769006	9147.6244725959
0	1245	236541.966721871283	5299.0084232786
0	1264	244598.591746061549	12642.689357198
0	1299	253566.115169393608	14009.385764581
0	1307	254820.71500629632	4588.266514688
0	1319	255156.130817992675	6020.195805186
0	1352	259176.981322824918	8351.6541903442
0	1382	261639.487458411986	6548.7795699944
0	1390	262224.89958883172	5150.4262441362
0	1398	262904.109850524953	4329.1204114142
0	1406	263841.971387380054	4710.3806189041
0	1423	264420.906717273811	4988.0493106113
0	1432	268224.007217218362	8095.7874563146
0	1457	272919.567366141463	9069.1763391245
0	1467	276327.965775297958	7420.3362257275
0	1486	285733.665224975743	13578.912970934
0	1520	293605.229892205831	11946.875129878
0	1529	294686.778333535706	5271.8688491798
0	1553	296888.626539797343	6357.4718132846
0	1566	300558.15401728513	4560.9187176521
0	1571	300870.761752007667	9239.8374590387
0	1601	310650.882012232858	14530.781409435
0	1618	313405.991247978265	7655.7637198647
0	1640	315261.478373171288	5532.8739305325
0	1656	317959.737054126013	7327.2436851774
0	1673	318713.072805872032	5510.1501849699
0	1685	321863.747275052452	7769.0599304506
0	1693	322201.721950881201	4802.840508676
0	1715	326758.838741950624	8605.0816556196
0	1724	327713.608026788145	5706.8700883849
0	1758	335116.492160700248	11491.775475279
0	1770	338489.587432610409	4275.4356487533
0	1775	338810.64966376894	8328.7695107232
0	1804	344866.460089559425	4171.0675951199
0	1810	345149.709732246151	10741.980542137
0	1855	353011.485871232265	12029.460456311
0	1869	354004.276880744242	5012.8561344286
0	1877	354346.962740732254	4206.8600922717
0	1888	356905.405009182799	6294.5223864714
0	1894	357300.444306548552	4860.5923371301
0	1951	362501.735331333878	9714.4498462795
0	1968	365071.37719941293	7461.3530310096
0	1979	365903.839339788979	5207.7268434566
0	1988	366206.683908781669	5101.9562018587
0	1993	366446.481607467198	5477.2372434891
0	2001	366813.007299626808	5615.8922007263
0	2017	368206.554748421759	6349.486796753
0	2034	371424.570017165522	7760.1306494225
0	2054	372821.185137900772	5869.0998896344
0	2068	376217.168683259534	7892.308569606
0	2076	377317.862545650486	5107.9422806766
0	2094	381242.123652826425	8534.1069163538
0	2112	388889.940069059645	11337.923064153
0	2138	393787.4586437574	9096.2819580549
0	2163	397330.572042128119	7061.7265121097
0	2171	398258.902189154263	5372.8968489106
0	2180	399395.034103026088	5159.9602944461
0	2228	424253.345365071346	28917.252488493
0	2248	426865.903805156481	7494.3677811238
0	2261	427421.473058230681	5270.7192061249
0	2269	428340.552183526998	5976.8416685066
0	2278	429275.199413143185	5676.5684845021
0	2286	430795.316093021263	5649.73352476
1	4	2661.148332076032	0
1	23	9213.200887651412	0
1	31	9497.848360903164	174.99912056214
1	58	18337.268207285034	0
1	67	22141.265825355334	0
1	93	28175.545200441058	0
1	101	28995.771344923689	0
1	109	29933.330168576467	0
1	118	30524.224793109093	0
1	134	32546.00233723649	242.72529516832
1	159	34370.384414749407	0
1	193	39774.208459845927	0
1	201	40889.624465114708	0
1	209	41177.554582071642	137.07350702126
1	218	42547.284225270378	0
1	234	43725.429507409817	128.04692380399
1	267	47573.550741862399	0
1	295	57888.083253047809	0
1	303	59975.081338516487	0
1	320	61963.061297589158	164.34793143252
1	329	63231.880048448406	0
1	363	70110.631551588114	0
1	371	71378.854336360861	0
1	380	72035.107578449629	0
1	396	74842.805841991163	0
1	421	76762.533031547017	0
1	429	77764.863112925307	0
1	463	82208.144707178826	0
1	472	84379.534464669186	0
1	480	84962.072124646698	0
1	514	90198.957747655066	0
1	522	90999.323314517007	0
1	530	92612.59318421288	0
1	538	92970.808818890825	0
1	555	94115.264771493702	266.72998620449
1	580	97253.73318628823	0
1	591	97558.752230928454	276.10181888588
1	612	98469.38755869131	78.093461621207
1	621	100154.280885048084	0
1	629	100545.053429899991	0
1	653	101999.652569431751	0
1	670	102879.470114385512	0
1	714	116527.296955431012	0
1	733	123853.338692695926	0
1	741	124821.956002709804	0
1	750	126250.352340339888	0
1	775	129850.83884170313	169.38083945733
1	791	131168.374552669169	63.295648952526
1	808	134408.446774671531	0
1	835	142367.781927798727	0
1	854	151834.115204611591	0
1	863	154809.000868286588	0
1	880	156563.787902484571	0
1	906	163379.694793041587	0
1	914	163883.545464280307	0
1	941	171523.359027574391	0
1	959	179182.493779161771	0
1	978	186509.150732319069	0
1	986	188028.891287689048	0
1	1012	193592.849050661728	0
1	1030	198924.381714659006	0
1	1038	199220.485240193768	95.721757243666
1	1064	204348.007240477058	0
1	1072	205828.379267980413	0
1	1081	207697.425433800422	0
1	1114	211599.763372046559	63.113458178283
1	1122	212879.596085969797	0
1	1148	218665.793439941429	0
1	1157	219720.529058451598	0
1	1182	224338.338695669866	0
1	1191	226378.313117173085	0
1	1217	231242.958298592653	0
1	1225	231955.902388863654	0
1	1251	239556.729404812778	0
1	1271	249135.935012806688	0
1	1279	250232.448491608361	0
1	1287	250825.327132480734	0
1	1321	255156.130817992675	65.422929575041
1	1329	257074.473344695549	0
1	1338	258574.989439110743	0
1	1354	259176.981322824918	45.390554348996
1	1362	259449.362922741235	16.505516078759
1	1370	260128.219760903714	0
1	1411	263850.391027016919	0
1	1437	268907.629549570475	0
1	1446	272154.752254042059	0
1	1473	281658.354762328201	0
1	1492	289414.909484355941	0
1	1500	290531.154726512741	0
1	1509	291630.924292968964	0
1	1534	295997.235299633009	0
1	1542	296278.651524657926	158.55092186056
1	1577	305750.227528113531	0
1	1587	309728.604442638757	0
1	1603	310650.882012232858	18.388643284212
1	1620	313405.991247978265	203.06862707613
1	1628	314094.68734460182	0
1	1645	317398.881442205202	0
1	1662	318153.757086330983	0
1	1695	322201.721950881201	194.98401247796
1	1703	323624.716685421447	0
1	1730	330481.880153045697	0
1	1739	334214.151783857106	0
1	1747	334441.564593064688	33.835402955675
1	1781	340695.392494439493	0
1	1789	340992.718917019807	10.693502098878
1	1816	348991.420746315597	0
1	1824	350140.102648460551	0
1	1832	350610.882622711388	0
1	1841	352439.851969418483	0
1	1857	353011.485871232265	224.20038617791
1	1899	357610.024168403338	0
1	1908	360696.112496332372	0
1	1916	361025.467622729329	56.223258751214
1	1927	361327.916027227112	223.18832030409
1	1935	361641.036608878483	443.92150997799
1	1943	361895.931338755846	38.863387087101
1	1957	363664.439367742975	0
1	2006	366952.085248266417	0
1	2022	368324.860113653547	0
1	2040	372209.920264973917	0
1	2056	372821.185137900772	113.1684014281
1	2081	377552.017004907029	0
1	2100	384691.176685702529	0
1	2118	390268.845530018381	0
1	2126	392886.005340243699	0
1	2143	394235.073808579989	0
1	2151	395336.092876578771	0
1	2191	419371.536024032631	0
1	2200	422150.7538521058	0
1	2208	422469.632625106477	105.92211008606
1	2217	423598.630928641053	0
1	2233	425145.582568261213	0
1	2250	426865.903805156481	194.70917396683
1	2291	431577.151457082024	0
2	2	2661.148332076032	1
2	4	2661.148332076032	0
2	21	9213.200887651412	1
2	23	9213.200887651412	0
2	26	9322.849240341022	1
2	31	9497.848360903164	0
2	56	18337.268207285034	1
2	58	18337.268207285034	0
2	65	22141.265825355334	1
2	67	22141.265825355334	0
2	91	28175.545200441058	1
2	93	28175.545200441058	0
2	99	28995.771344923689	1
2	101	28995.771344923689	0
2	107	29933.330168576467	1
2	109	29933.330168576467	0
2	116	30524.224793109093	1
2	118	30524.224793109093	0
2	129	32303.277042068174	1
2	134	32546.00233723649	0
2	157	34370.384414749407	1
2	159	34370.384414749407	0
2	191	39774.208459845927	1
2	193	39774.208459845927	0
2	199	40889.624465114708	1
2	201	40889.624465114708	0
2	204	41040.481075050378	1
2	209	41177.554582071642	0
2	216	42547.284225270378	1
2	218	42547.284225270378	0
2	229	43597.382583605827	1
2	234	43725.429507409817	0
2	265	47573.550741862399	1
2	267	47573.550741862399	0
2	293	57888.083253047809	1
2	295	57888.083253047809	0
2	301	59975.081338516487	1
2	303	59975.081338516487	0
2	315	61798.71336615664	1
2	320	61963.061297589158	0
2	327	63231.880048448406	1
2	329	63231.880048448406	0
2	361	70110.631551588114	1
2	363	70110.631551588114	0
2	369	71378.854336360861	1
2	371	71378.854336360861	0
2	378	72035.107578449629	1
2	380	72035.107578449629	0
2	394	74842.805841991163	1
2	396	74842.805841991163	0
2	419	76762.533031547017	1
2	421	76762.533031547017	0
2	427	77764.863112925307	1
2	429	77764.863112925307	0
2	461	82208.144707178826	1
2	463	82208.144707178826	0
2	470	84379.534464669186	1
2	472	84379.534464669186	0
2	478	84962.072124646698	1
2	480	84962.072124646698	0
2	512	90198.957747655066	1
2	514	90198.957747655066	0
2	520	90999.323314517007	1
2	522	90999.323314517007	0
2	528	92612.59318421288	1
2	530	92612.59318421288	0
2	536	92970.808818890825	1
2	538	92970.808818890825	0
2	550	93848.534785289214	1
2	555	94115.264771493702	0
2	578	97253.73318628823	1
2	580	97253.73318628823	0
2	586	97282.65041204257	1
2	591	97558.752230928454	0
2	607	98391.294097070103	1
2	612	98469.38755869131	0
2	619	100154.280885048084	1
2	621	100154.280885048084	0
2	627	100545.053429899991	1
2	629	100545.053429899991	0
2	651	101999.652569431751	1
2	653	101999.652569431751	0
2	668	102879.470114385512	1
2	670	102879.470114385512	0
2	712	116527.296955431012	1
2	714	116527.296955431012	0
2	731	123853.338692695926	1
2	733	123853.338692695926	0
2	739	124821.956002709804	1
2	741	124821.956002709804	0
2	748	126250.352340339888	1
2	750	126250.352340339888	0
2	770	129681.458002245796	1
2	775	129850.83884170313	0
2	786	131105.078903716643	1
2	791	131168.374552669169	0
2	806	134408.446774671531	1
2	808	134408.446774671531	0
2	833	142367.781927798727	1
2	835	142367.781927798727	0
2	852	151834.115204611591	1
2	854	151834.115204611591	0
2	861	154809.000868286588	1
2	863	154809.000868286588	0
2	878	156563.787902484571	1
2	880	156563.787902484571	0
2	904	163379.694793041587	1
2	906	163379.694793041587	0
2	912	163883.545464280307	1
2	914	163883.545464280307	0
2	939	171523.359027574391	1
2	941	171523.359027574391	0
2	957	179182.493779161771	1
2	959	179182.493779161771	0
2	976	186509.150732319069	1
2	978	186509.150732319069	0
2	984	188028.891287689048	1
2	986	188028.891287689048	0
2	1010	193592.849050661728	1
2	1012	193592.849050661728	0
2	1028	198924.381714659006	1
2	1030	198924.381714659006	0
2	1033	199124.763482950102	1
2	1038	199220.485240193768	0
2	1062	204348.007240477058	1
2	1064	204348.007240477058	0
2	1070	205828.379267980413	1
2	1072	205828.379267980413	0
2	1079	207697.425433800422	1
2	1081	207697.425433800422	0
2	1109	211536.649913868276	1
2	1114	211599.763372046559	0
2	1120	212879.596085969797	1
2	1122	212879.596085969797	0
2	1146	218665.793439941429	1
2	1148	218665.793439941429	0
2	1155	219720.529058451598	1
2	1157	219720.529058451598	0
2	1180	224338.338695669866	1
2	1182	224338.338695669866	0
2	1189	226378.313117173085	1
2	1191	226378.313117173085	0
2	1215	231242.958298592653	1
2	1217	231242.958298592653	0
2	1223	231955.902388863654	1
2	1225	231955.902388863654	0
2	1249	239556.729404812778	1
2	1251	239556.729404812778	0
2	1269	249135.935012806688	1
2	1271	249135.935012806688	0
2	1277	250232.448491608361	1
2	1279	250232.448491608361	0
2	1285	250825.327132480734	1
2	1287	250825.327132480734	0
2	1316	255090.707888417634	1
2	1321	255156.130817992675	0
2	1327	257074.473344695549	1
2	1329	257074.473344695549	0
2	1336	258574.989439110743	1
2	1338	258574.989439110743	0
2	1349	259131.590768475922	1
2	1354	259176.981322824918	0
2	1357	259432.857406662476	1
2	1362	259449.362922741235	0
2	1368	260128.219760903714	1
2	1370	260128.219760903714	0
2	1409	263850.391027016919	1
2	1411	263850.391027016919	0
2	1435	268907.629549570475	1
2	1437	268907.629549570475	0
2	1444	272154.752254042059	1
2	1446	272154.752254042059	0
2	1471	281658.354762328201	1
2	1473	281658.354762328201	0
2	1490	289414.909484355941	1
2	1492	289414.909484355941	0
2	1498	290531.154726512741	1
2	1500	290531.154726512741	0
2	1507	291630.924292968964	1
2	1509	291630.924292968964	0
2	1532	295997.235299633009	1
2	1534	295997.235299633009	0
2	1537	296120.100602797369	1
2	1542	296278.651524657926	0
2	1575	305750.227528113531	1
2	1577	305750.227528113531	0
2	1585	309728.604442638757	1
2	1587	309728.604442638757	0
2	1598	310632.493368948646	1
2	1603	310650.882012232858	0
2	1615	313202.922620902135	1
2	1620	313405.991247978265	0
2	1626	314094.68734460182	1
2	1628	314094.68734460182	0
2	1643	317398.881442205202	1
2	1645	317398.881442205202	0
2	1660	318153.757086330983	1
2	1662	318153.757086330983	0
2	1690	322006.73793840324	1
2	1695	322201.721950881201	0
2	1701	323624.716685421447	1
2	1703	323624.716685421447	0
2	1728	330481.880153045697	1
2	1730	330481.880153045697	0
2	1737	334214.151783857106	1
2	1739	334214.151783857106	0
2	1742	334407.729190109013	1
2	1747	334441.564593064688	0
2	1779	340695.392494439493	1
2	1781	340695.392494439493	0
2	1784	340982.025414920929	1
2	1789	340992.718917019807	0
2	1814	348991.420746315597	1
2	1816	348991.420746315597	0
2	1822	350140.102648460551	1
2	1824	350140.102648460551	0
2	1830	350610.882622711388	1
2	1832	350610.882622711388	0
2	1839	352439.851969418483	1
2	1841	352439.851969418483	0
2	1852	352787.285485054356	1
2	1857	353011.485871232265	0
2	1897	357610.024168403338	1
2	1899	357610.024168403338	0
2	1906	360696.112496332372	1
2	1908	360696.112496332372	0
2	1911	360969.244363978115	1
2	1916	361025.467622729329	0
2	1919	361104.727706923019	1
2	1922	361197.11509890049	2
2	1927	361327.916027227112	1
2	1935	361641.036608878483	0
2	1938	361857.067951668745	1
2	1943	361895.931338755846	0
2	1955	363664.439367742975	1
2	1957	363664.439367742975	0
2	2004	366952.085248266417	1
2	2006	366952.085248266417	0
2	2020	368324.860113653547	1
2	2022	368324.860113653547	0
2	2038	372209.920264973917	1
2	2040	372209.920264973917	0
2	2051	372708.016736472667	1
2	2056	372821.185137900772	0
2	2079	377552.017004907029	1
2	2081	377552.017004907029	0
2	2098	384691.176685702529	1
2	2100	384691.176685702529	0
2	2116	390268.845530018381	1
2	2118	390268.845530018381	0
2	2124	392886.005340243699	1
2	2126	392886.005340243699	0
2	2141	394235.073808579989	1
2	2143	394235.073808579989	0
2	2149	395336.092876578771	1
2	2151	395336.092876578771	0
2	2189	419371.536024032631	1
2	2191	419371.536024032631	0
2	2198	422150.7538521058	1
2	2200	422150.7538521058	0
2	2203	422363.710515020421	1
2	2208	422469.632625106477	0
2	2215	423598.630928641053	1
2	2217	423598.630928641053	0
2	2231	425145.582568261213	1
2	2233	425145.582568261213	0
2	2245	426671.194631189652	1
2	2250	426865.903805156481	0
2	2289	431577.151457082024	1
2	2291	431577.151457082024	0
3	14	7347.531893910534	0
3	40	12934.21526906557	0
3	48	13719.856163592951	0
3	75	22489.083523248397	0
3	84	26102.434391281055	0
3	126	32254.06628147692	0
3	143	33386.930106232074	0
3	151	33680.508329259446	240.00163528909
3	167	34907.894861092083	0
3	176	36159.423372147069	0
3	184	37884.875463045078	0
3	226	43413.987763143041	0
3	242	44773.946727083952	0
3	251	45331.91598943512	0
3	259	46351.510159831232	0
3	275	47911.884952020752	299.25623527273
3	285	51576.48498704202	0
3	312	61673.154010949978	0
3	337	63521.696276459039	5.856854990897
3	345	65521.450604956525	0
3	354	66796.162260336356	0
3	388	73083.126546987285	0
3	405	75214.701438698124	0
3	413	75757.933365919728	0
3	438	78435.006526492816	0
3	447	81096.458961341759	0
3	455	81869.29164466577	0
3	488	85785.575885160721	0
3	497	87880.804612644205	0
3	505	88525.0978876996	0
3	547	93813.977000689694	0
3	563	94789.799624693007	0
3	572	96998.435119688721	0
3	596	97811.106284022225	543.75215063691
3	604	98175.236587734886	1.86860121246
3	637	100996.784929888391	0
3	645	101295.035649543672	239.70720625771
3	662	102343.036094022589	195.29417282384
3	678	103547.317497304493	0
3	686	104561.631249678043	0
3	695	105953.914005734896	0
3	703	106724.495070876041	0
3	723	119838.079836642378	0
3	758	127641.897028127284	0
3	767	129618.418698965351	0
3	783	130842.55110804461	0
3	800	133918.439739934903	0
3	816	134950.228248997375	0
3	826	138855.677955822859	0
3	844	146067.378613723183	0
3	871	155403.489598486942	0
3	888	158346.106664688406	0
3	897	159861.077521998362	0
3	923	166919.407593937242	0
3	931	167240.549271513941	0
3	950	175575.248289212196	0
3	968	182554.363496555388	0
3	995	189754.212093242714	0
3	1003	191948.833916795347	0
3	1021	197041.471234701488	0
3	1047	202848.822704754695	0
3	1055	203400.591243112893	0
3	1089	208417.107931850623	0
3	1097	209924.165908041253	0
3	1106	211278.940208353513	0
3	1131	215797.206865705491	0
3	1140	217195.683202690038	0
3	1166	222612.801643736064	0
3	1174	222930.63109788673	0
3	1200	228366.124342660415	0
3	1208	230049.936477833986	0
3	1234	235198.85113153114	0
3	1242	236232.854429294437	0
3	1261	244343.353378035238	0
3	1296	253236.048730063576	0
3	1304	254522.274660856895	0
3	1312	254876.603023175718	0
3	1346	258872.636799206412	220.98639327996
3	1379	261339.11905723598	0
3	1387	261913.585218745362	0
3	1395	262563.980080959097	0
3	1403	263548.765680489487	0
3	1420	264159.401476691159	78.784781049812
3	1429	267954.618420534628	0
3	1454	272619.215345776237	0
3	1463	275960.136966069053	0
3	1483	285433.047361978268	0
3	1517	293275.193558698189	0
3	1526	294382.245860484826	0
3	1550	296543.975280565532	93.982957637467
3	1560	300257.717321895935	0
3	1568	300558.15401728513	82.58904605022
3	1595	310364.866174741147	0
3	1612	313060.31079407752	0
3	1636	314979.607065569947	0
3	1653	317679.13552521312	151.20576522914
3	1670	318415.733843156697	144.46243099943
3	1679	321535.002438088	0
3	1687	321863.747275052452	112.69715921996
3	1712	326493.193189385812	0
3	1721	327423.220918224498	0
3	1755	334773.967120853165	223.75998576466
3	1764	338182.317611782886	0
3	1772	338489.587432610409	139.25698830516
3	1798	344546.203532511015	0
3	1806	344866.460089559425	105.04656214164
3	1849	352730.455596301072	71.564215601714
3	1865	353707.803700017923	0
3	1874	354069.814642141829	0
3	1882	356601.153680215815	0
3	1890	356905.405009182799	237.3788601537
3	1948	362233.33543290727	692.94687434867
3	1965	364751.522098113549	0
3	1973	365608.06384770034	0
3	1981	365903.839339788979	21.908187165519
3	1990	366206.683908781669	4.712307264016
3	1998	366521.532385603885	0
3	2014	367883.233614806575	0
3	2031	371088.045872367509	0
3	2048	372485.213776730531	115.33063567433
3	2065	375897.499521641997	0
3	2073	377011.172699011623	0
3	2090	380953.126053444919	0
3	2109	388526.607065888617	0
3	2135	393477.263245075518	0
3	2160	397058.609945305553	0
3	2168	397898.833710556948	0
3	2177	399188.844773719203	0
3	2225	423909.264765711455	134.04714653104
3	2242	426583.394133939785	0
3	2258	427107.330907365001	222.73782212929
3	2266	428044.041475865174	0
3	2274	428990.748436795077	0
3	2283	430544.961921582308	0
4	12	7347.531893910534	1
4	14	7347.531893910534	0
4	38	12934.21526906557	1
4	40	12934.21526906557	0
4	46	13719.856163592951	1
4	48	13719.856163592951	0
4	73	22489.083523248397	1
4	75	22489.083523248397	0
4	82	26102.434391281055	1
4	84	26102.434391281055	0
4	124	32254.06628147692	1
4	126	32254.06628147692	0
4	141	33386.930106232074	1
4	143	33386.930106232074	0
4	146	33440.506693970358	1
4	151	33680.508329259446	0
4	165	34907.894861092083	1
4	167	34907.894861092083	0
4	174	36159.423372147069	1
4	176	36159.423372147069	0
4	182	37884.875463045078	1
4	184	37884.875463045078	0
4	224	43413.987763143041	1
4	226	43413.987763143041	0
4	240	44773.946727083952	1
4	242	44773.946727083952	0
4	249	45331.91598943512	1
4	251	45331.91598943512	0
4	257	46351.510159831232	1
4	259	46351.510159831232	0
4	270	47612.628716748026	1
4	275	47911.884952020752	0
4	283	51576.48498704202	1
4	285	51576.48498704202	0
4	310	61673.154010949978	1
4	312	61673.154010949978	0
4	332	63515.839421468142	1
4	337	63521.696276459039	0
4	343	65521.450604956525	1
4	345	65521.450604956525	0
4	352	66796.162260336356	1
4	354	66796.162260336356	0
4	386	73083.126546987285	1
4	388	73083.126546987285	0
4	403	75214.701438698124	1
4	405	75214.701438698124	0
4	411	75757.933365919728	1
4	413	75757.933365919728	0
4	436	78435.006526492816	1
4	438	78435.006526492816	0
4	445	81096.458961341759	1
4	447	81096.458961341759	0
4	453	81869.29164466577	1
4	455	81869.29164466577	0
4	486	85785.575885160721	1
4	488	85785.575885160721	0
4	495	87880.804612644205	1
4	497	87880.804612644205	0
4	503	88525.0978876996	1
4	505	88525.0978876996	0
4	545	93813.977000689694	1
4	547	93813.977000689694	0
4	561	94789.799624693007	1
4	563	94789.799624693007	0
4	570	96998.435119688721	1
4	572	96998.435119688721	0
4	583	97267.354133385312	1
4	596	97811.106284022225	0
4	599	98173.367986522426	1
4	604	98175.236587734886	0
4	635	100996.784929888391	1
4	637	100996.784929888391	0
4	640	101055.328443285959	1
4	645	101295.035649543672	0
4	657	102147.741921198748	1
4	662	102343.036094022589	0
4	676	103547.317497304493	1
4	678	103547.317497304493	0
4	684	104561.631249678043	1
4	686	104561.631249678043	0
4	693	105953.914005734896	1
4	695	105953.914005734896	0
4	701	106724.495070876041	1
4	703	106724.495070876041	0
4	721	119838.079836642378	1
4	723	119838.079836642378	0
4	756	127641.897028127284	1
4	758	127641.897028127284	0
4	765	129618.418698965351	1
4	767	129618.418698965351	0
4	781	130842.55110804461	1
4	783	130842.55110804461	0
4	798	133918.439739934903	1
4	800	133918.439739934903	0
4	814	134950.228248997375	1
4	816	134950.228248997375	0
4	824	138855.677955822859	1
4	826	138855.677955822859	0
4	842	146067.378613723183	1
4	844	146067.378613723183	0
4	869	155403.489598486942	1
4	871	155403.489598486942	0
4	886	158346.106664688406	1
4	888	158346.106664688406	0
4	895	159861.077521998362	1
4	897	159861.077521998362	0
4	921	166919.407593937242	1
4	923	166919.407593937242	0
4	929	167240.549271513941	1
4	931	167240.549271513941	0
4	948	175575.248289212196	1
4	950	175575.248289212196	0
4	966	182554.363496555388	1
4	968	182554.363496555388	0
4	993	189754.212093242714	1
4	995	189754.212093242714	0
4	1001	191948.833916795347	1
4	1003	191948.833916795347	0
4	1019	197041.471234701488	1
4	1021	197041.471234701488	0
4	1045	202848.822704754695	1
4	1047	202848.822704754695	0
4	1053	203400.591243112893	1
4	1055	203400.591243112893	0
4	1087	208417.107931850623	1
4	1089	208417.107931850623	0
4	1095	209924.165908041253	1
4	1097	209924.165908041253	0
4	1104	211278.940208353513	1
4	1106	211278.940208353513	0
4	1129	215797.206865705491	1
4	1131	215797.206865705491	0
4	1138	217195.683202690038	1
4	1140	217195.683202690038	0
4	1164	222612.801643736064	1
4	1166	222612.801643736064	0
4	1172	222930.63109788673	1
4	1174	222930.63109788673	0
4	1198	228366.124342660415	1
4	1200	228366.124342660415	0
4	1206	230049.936477833986	1
4	1208	230049.936477833986	0
4	1232	235198.85113153114	1
4	1234	235198.85113153114	0
4	1240	236232.854429294437	1
4	1242	236232.854429294437	0
4	1259	244343.353378035238	1
4	1261	244343.353378035238	0
4	1294	253236.048730063576	1
4	1296	253236.048730063576	0
4	1302	254522.274660856895	1
4	1304	254522.274660856895	0
4	1310	254876.603023175718	1
4	1312	254876.603023175718	0
4	1341	258651.650405926451	1
4	1346	258872.636799206412	0
4	1377	261339.11905723598	1
4	1379	261339.11905723598	0
4	1385	261913.585218745362	1
4	1387	261913.585218745362	0
4	1393	262563.980080959097	1
4	1395	262563.980080959097	0
4	1401	263548.765680489487	1
4	1403	263548.765680489487	0
4	1415	264080.616695641347	1
4	1420	264159.401476691159	0
4	1427	267954.618420534628	1
4	1429	267954.618420534628	0
4	1452	272619.215345776237	1
4	1454	272619.215345776237	0
4	1461	275960.136966069053	1
4	1463	275960.136966069053	0
4	1481	285433.047361978268	1
4	1483	285433.047361978268	0
4	1515	293275.193558698189	1
4	1517	293275.193558698189	0
4	1524	294382.245860484826	1
4	1526	294382.245860484826	0
4	1545	296449.992322928065	1
4	1550	296543.975280565532	0
4	1558	300257.717321895935	1
4	1560	300257.717321895935	0
4	1563	300475.56497123491	1
4	1568	300558.15401728513	0
4	1593	310364.866174741147	1
4	1595	310364.866174741147	0
4	1610	313060.31079407752	1
4	1612	313060.31079407752	0
4	1634	314979.607065569947	1
4	1636	314979.607065569947	0
4	1648	317527.92975998398	1
4	1653	317679.13552521312	0
4	1665	318271.27141215727	1
4	1670	318415.733843156697	0
4	1677	321535.002438088	1
4	1679	321535.002438088	0
4	1682	321751.050115832493	1
4	1687	321863.747275052452	0
4	1710	326493.193189385812	1
4	1712	326493.193189385812	0
4	1719	327423.220918224498	1
4	1721	327423.220918224498	0
4	1750	334550.207135088507	1
4	1755	334773.967120853165	0
4	1762	338182.317611782886	1
4	1764	338182.317611782886	0
4	1767	338350.330444305247	1
4	1772	338489.587432610409	0
4	1796	344546.203532511015	1
4	1798	344546.203532511015	0
4	1801	344761.413527417781	1
4	1806	344866.460089559425	0
4	1844	352658.891380699358	1
4	1849	352730.455596301072	0
4	1863	353707.803700017923	1
4	1865	353707.803700017923	0
4	1872	354069.814642141829	1
4	1874	354069.814642141829	0
4	1880	356601.153680215815	1
4	1882	356601.153680215815	0
4	1885	356668.026149029104	1
4	1890	356905.405009182799	0
4	1930	361540.388558558597	1
4	1948	362233.33543290727	0
4	1963	364751.522098113549	1
4	1965	364751.522098113549	0
4	1971	365608.06384770034	1
4	1973	365608.06384770034	0
4	1976	365881.93115262346	1
4	1981	365903.839339788979	0
4	1985	366201.971601517653	1
4	1990	366206.683908781669	0
4	1996	366521.532385603885	1
4	1998	366521.532385603885	0
4	2012	367883.233614806575	1
4	2014	367883.233614806575	0
4	2029	371088.045872367509	1
4	2031	371088.045872367509	0
4	2043	372369.883141056205	1
4	2048	372485.213776730531	0
4	2063	375897.499521641997	1
4	2065	375897.499521641997	0
4	2071	377011.172699011623	1
4	2073	377011.172699011623	0
4	2088	380953.126053444919	1
4	2090	380953.126053444919	0
4	2107	388526.607065888617	1
4	2109	388526.607065888617	0
4	2133	393477.263245075518	1
4	2135	393477.263245075518	0
4	2158	397058.609945305553	1
4	2160	397058.609945305553	0
4	2166	397898.833710556948	1
4	2168	397898.833710556948	0
4	2175	399188.844773719203	1
4	2177	399188.844773719203	0
4	2220	423775.217619180416	1
4	2225	423909.264765711455	0
4	2240	426583.394133939785	1
4	2242	426583.394133939785	0
4	2253	426884.593085235713	1
4	2258	427107.330907365001	0
4	2264	428044.041475865174	1
4	2266	428044.041475865174	0
4	2272	428990.748436795077	1
4	2274	428990.748436795077	0
4	2281	430544.961921582308	1
4	2283	430544.961921582308	0
5	6	3000	0
5	10	6000	1
5	19	9000	0
5	36	12000	2
5	53	15000	0
5	54	18000	0
5	63	21000	1
5	80	24000	1
5	89	27000	0
5	111	30000	2
5	139	33000	3
5	172	36000	1
5	189	39000	0
5	214	42000	3
5	244	45000	2
5	277	48000	1
5	281	51000	0
5	290	54000	0
5	291	57000	0
5	305	60000	1
5	325	63000	2
5	350	66000	1
5	359	69000	0
5	376	72000	2
5	398	75000	1
5	431	78000	2
5	443	81000	1
5	468	84000	1
5	493	87000	2
5	510	90000	0
5	540	93000	3
5	568	96000	2
5	617	99000	3
5	655	102000	2
5	691	105000	2
5	708	108000	0
5	709	111000	0
5	710	114000	0
5	719	117000	1
5	725	120000	0
5	729	123000	0
5	746	126000	2
5	763	129000	1
5	796	132000	2
5	818	135000	1
5	822	138000	0
5	831	141000	0
5	840	144000	1
5	849	147000	0
5	850	150000	0
5	859	153000	1
5	876	156000	1
5	893	159000	1
5	902	162000	0
5	919	165000	2
5	936	168000	0
5	937	171000	0
5	946	174000	1
5	955	177000	0
5	964	180000	1
5	973	183000	0
5	974	186000	0
5	991	189000	2
5	1005	192000	0
5	1017	195000	1
5	1026	198000	0
5	1043	201000	2
5	1060	204000	0
5	1077	207000	2
5	1099	210000	1
5	1124	213000	1
5	1133	216000	1
5	1153	219000	1
5	1162	222000	1
5	1187	225000	1
5	1196	228000	1
5	1213	231000	0
5	1230	234000	2
5	1247	237000	0
5	1256	240000	1
5	1257	243000	0
5	1266	246000	0
5	1267	249000	0
5	1292	252000	3
5	1314	255000	0
5	1334	258000	2
5	1375	261000	4
5	1413	264000	0
5	1425	267000	1
5	1442	270000	1
5	1459	273000	1
5	1465	276000	0
5	1469	279000	0
5	1478	282000	1
5	1479	285000	0
5	1488	288000	0
5	1505	291000	2
5	1522	294000	1
5	1555	297000	2
5	1556	300000	0
5	1573	303000	0
5	1579	306000	0
5	1583	309000	1
5	1608	312000	2
5	1638	315000	2
5	1658	318000	1
5	1675	321000	1
5	1708	324000	2
5	1717	327000	0
5	1726	330000	0
5	1735	333000	1
5	1760	336000	2
5	1777	339000	0
5	1794	342000	2
5	1808	345000	0
5	1812	348000	0
5	1837	351000	3
5	1867	354000	2
5	1892	357000	0
5	1904	360000	1
5	1953	363000	5
5	1983	366000	1
5	2027	369000	2
5	2036	372000	0
5	2061	375000	2
5	2086	378000	1
5	2092	381000	0
5	2096	384000	0
5	2105	387000	1
5	2114	390000	0
5	2128	393000	1
5	2156	396000	3
5	2173	399000	0
5	2182	402000	0
5	2183	405000	0
5	2184	408000	0
5	2185	411000	0
5	2186	414000	0
5	2187	417000	0
5	2196	420000	1
5	2213	423000	2
5	2238	426000	2
5	2276	429000	1
5	2296	432000	1
6	6	3000	0
6	10	6000	0
6	19	9000	1
6	36	12000	0
6	53	15000	2
6	54	18000	0
6	63	21000	0
6	80	24000	1
6	89	27000	1
6	111	30000	0
6	139	33000	1
6	172	36000	3
6	189	39000	2
6	214	42000	0
6	244	45000	1
6	277	48000	3
6	281	51000	1
6	290	54000	1
6	291	57000	0
6	305	60000	0
6	325	63000	1
6	350	66000	2
6	359	69000	1
6	376	72000	0
6	398	75000	1
6	431	78000	2
6	443	81000	1
6	468	84000	2
6	493	87000	1
6	510	90000	2
6	540	93000	0
6	568	96000	2
6	617	99000	3
6	655	102000	2
6	691	105000	3
6	708	108000	2
6	709	111000	0
6	710	114000	0
6	719	117000	0
6	725	120000	0
6	729	123000	1
6	746	126000	0
6	763	129000	1
6	796	132000	2
6	818	135000	1
6	822	138000	1
6	831	141000	1
6	840	144000	0
6	849	147000	1
6	850	150000	0
6	859	153000	0
6	876	156000	1
6	893	159000	1
6	902	162000	1
6	919	165000	0
6	936	168000	2
6	937	171000	0
6	946	174000	0
6	955	177000	1
6	964	180000	0
6	973	183000	1
6	974	186000	0
6	991	189000	0
6	1005	192000	1
6	1017	195000	1
6	1026	198000	1
6	1043	201000	0
6	1060	204000	2
6	1077	207000	0
6	1099	210000	1
6	1124	213000	2
6	1133	216000	0
6	1153	219000	2
6	1162	222000	0
6	1187	225000	2
6	1196	228000	0
6	1213	231000	2
6	1230	234000	0
6	1247	237000	2
6	1256	240000	0
6	1257	243000	0
6	1266	246000	1
6	1267	249000	0
6	1292	252000	0
6	1314	255000	2
6	1334	258000	1
6	1375	261000	1
6	1413	264000	4
6	1425	267000	1
6	1442	270000	1
6	1459	273000	1
6	1465	276000	0
6	1469	279000	1
6	1478	282000	0
6	1479	285000	0
6	1488	288000	1
6	1505	291000	0
6	1522	294000	1
6	1555	297000	2
6	1556	300000	0
6	1573	303000	2
6	1579	306000	0
6	1583	309000	0
6	1608	312000	1
6	1638	315000	1
6	1658	318000	2
6	1675	321000	1
6	1708	324000	2
6	1717	327000	1
6	1726	330000	1
6	1735	333000	0
6	1760	336000	1
6	1777	339000	2
6	1794	342000	0
6	1808	345000	1
6	1812	348000	1
6	1837	351000	0
6	1867	354000	1
6	1892	357000	3
6	1904	360000	1
6	1953	363000	1
6	1983	366000	2
6	2027	369000	4
6	2036	372000	1
6	2061	375000	1
6	2086	378000	2
6	2092	381000	0
6	2096	384000	1
6	2105	387000	0
6	2114	390000	1
6	2128	393000	0
6	2156	396000	1
6	2173	399000	2
6	2182	402000	1
6	2183	405000	0
6	2184	408000	0
6	2185	411000	0
6	2186	414000	0
6	2187	417000	0
6	2196	420000	0
6	2213	423000	0
6	2238	426000	1
6	2276	429000	3
6	2296	432000	2
7	8	3022.600424374587	1
7	11	7347.531893910534	0
7	29	9497.848360903164	1
7	34	9832.912171013533	2
7	37	12934.21526906557	1
7	45	13719.856163592951	0
7	61	18647.338190760984	1
7	70	22420.52281044493	2
7	72	22489.083523248397	1
7	81	26102.434391281055	0
7	96	28474.517674183722	1
7	104	29368.909317824521	2
7	113	30235.764766809054	3
7	121	30823.432960406881	4
7	123	32254.06628147692	3
7	137	32834.707614244763	4
7	140	33386.930106232074	3
7	145	33440.506693970358	2
7	162	34669.455619118936	3
7	164	34907.894861092083	2
7	173	36159.423372147069	1
7	181	37884.875463045078	0
7	196	40038.530797069762	1
7	207	41177.554582071642	2
7	212	41431.006477375968	3
7	221	42828.032238360333	4
7	223	43413.987763143041	3
7	237	44001.131567721365	4
7	239	44773.946727083952	3
7	248	45331.91598943512	2
7	256	46351.510159831232	1
7	269	47612.628716748026	0
7	273	47911.884952020752	1
7	282	51576.48498704202	0
7	298	58254.649820249182	1
7	307	60234.824868263566	2
7	309	61673.154010949978	1
7	323	62251.994939415028	2
7	331	63515.839421468142	1
7	335	63521.696276459039	2
7	342	65521.450604956525	1
7	351	66796.162260336356	0
7	366	70406.607050803377	1
7	374	71695.035730603138	2
7	383	72371.434205619725	3
7	385	73083.126546987285	2
7	400	75153.920094828488	3
7	402	75214.701438698124	2
7	410	75757.933365919728	1
7	424	77133.394257543905	2
7	433	78101.731494477646	3
7	435	78435.006526492816	2
7	444	81096.458961341759	1
7	452	81869.29164466577	0
7	466	82534.694446235273	1
7	475	84629.043802776709	2
7	483	85237.081553695437	3
7	485	85785.575885160721	2
7	494	87880.804612644205	1
7	502	88525.0978876996	0
7	517	90483.688370525588	1
7	525	91251.333861979698	2
7	533	92894.74669401112	3
7	542	93303.454746996922	4
7	544	93813.977000689694	3
7	558	94424.284378994897	4
7	560	94789.799624693007	3
7	569	96998.435119688721	2
7	582	97267.354133385312	1
7	589	97558.752230928454	2
7	594	97811.106284022225	3
7	598	98173.367986522426	2
7	615	98707.075208629967	3
7	624	100409.70104511361	4
7	632	100880.156888151172	5
7	634	100996.784929888391	4
7	639	101055.328443285959	3
7	656	102147.741921198748	2
7	660	102343.036094022589	3
7	673	103184.280052049605	4
7	675	103547.317497304493	3
7	683	104561.631249678043	2
7	692	105953.914005734896	1
7	700	106724.495070876041	0
7	717	116844.907286632491	1
7	720	119838.079836642378	0
7	736	124127.282445880599	1
7	744	125073.443727333067	2
7	753	126539.451536229022	3
7	755	127641.897028127284	2
7	764	129618.418698965351	1
7	778	130172.14520262737	2
7	780	130842.55110804461	1
7	794	131443.981283863463	2
7	797	133918.439739934903	1
7	811	134649.188043591552	2
7	813	134950.228248997375	1
7	823	138855.677955822859	0
7	838	142647.698075670059	1
7	841	146067.378613723183	0
7	857	152144.855721792948	1
7	866	155147.477366946958	2
7	868	155403.489598486942	1
7	883	156883.336477655609	2
7	885	158346.106664688406	1
7	894	159861.077521998362	0
7	909	163675.862973290102	1
7	917	164215.687369708086	2
7	920	166919.407593937242	1
7	928	167240.549271513941	0
7	944	171874.281550211184	1
7	947	175575.248289212196	0
7	962	179450.121333847575	1
7	965	182554.363496555388	0
7	981	186775.691268083661	1
7	989	188288.447818694044	2
7	992	189754.212093242714	1
7	1000	191948.833916795347	0
7	1015	193888.13766122732	1
7	1018	197041.471234701488	0
7	1036	199220.485240193768	1
7	1041	199553.58098970304	2
7	1044	202848.822704754695	1
7	1052	203400.591243112893	0
7	1067	204631.426830052492	1
7	1075	206116.436022291812	2
7	1084	207982.237819110446	3
7	1086	208417.107931850623	2
7	1094	209924.165908041253	1
7	1103	211278.940208353513	0
7	1117	211887.434519352023	1
7	1126	213213.124612747065	2
7	1128	215797.206865705491	1
7	1137	217195.683202690038	0
7	1151	218965.213795628055	1
7	1160	220053.299215320301	2
7	1163	222612.801643736064	1
7	1171	222930.63109788673	0
7	1185	224659.221677247069	1
7	1194	226706.733455649068	2
7	1197	228366.124342660415	1
7	1205	230049.936477833986	0
7	1220	231574.641488541129	1
7	1228	232254.132342105746	2
7	1231	235198.85113153114	1
7	1239	236232.854429294437	0
7	1254	239871.173527592184	1
7	1258	244343.353378035238	0
7	1274	249441.480758530955	1
7	1282	250621.373809118766	2
7	1290	251165.153558346695	3
7	1293	253236.048730063576	2
7	1301	254522.274660856895	1
7	1309	254876.603023175718	0
7	1324	255435.613773860828	1
7	1332	257433.388850723819	2
7	1340	258651.650405926451	1
7	1344	258872.636799206412	2
7	1360	259449.362922741235	3
7	1365	259779.330557712581	4
7	1373	260417.69128509647	5
7	1376	261339.11905723598	4
7	1384	261913.585218745362	3
7	1392	262563.980080959097	2
7	1400	263548.765680489487	1
7	1414	264080.616695641347	0
7	1418	264159.401476691159	1
7	1426	267954.618420534628	0
7	1440	269226.909801227722	1
7	1449	272499.933982093752	2
7	1451	272619.215345776237	1
7	1460	275960.136966069053	0
7	1476	281922.289701997599	1
7	1480	285433.047361978268	0
7	1495	289754.809437892248	1
7	1503	290766.424274846132	2
7	1512	291956.478881505149	3
7	1514	293275.193558698189	2
7	1523	294382.245860484826	1
7	1540	296278.651524657926	2
7	1544	296449.992322928065	1
7	1548	296543.975280565532	2
7	1557	300257.717321895935	1
7	1562	300475.56497123491	0
7	1581	306047.115413139159	1
7	1590	310046.949798592105	2
7	1592	310364.866174741147	1
7	1606	310970.120314209927	2
7	1609	313060.31079407752	1
7	1623	313689.39112879119	2
7	1631	314393.077272306156	3
7	1633	314979.607065569947	2
7	1647	317527.92975998398	1
7	1651	317679.13552521312	2
7	1664	318271.27141215727	1
7	1668	318415.733843156697	2
7	1676	321535.002438088	1
7	1681	321751.050115832493	0
7	1698	322544.133744220867	1
7	1706	323971.008912389581	2
7	1709	326493.193189385812	1
7	1718	327423.220918224498	0
7	1733	330804.186591352976	1
7	1745	334441.564593064688	2
7	1749	334550.207135088507	1
7	1753	334773.967120853165	2
7	1761	338182.317611782886	1
7	1766	338350.330444305247	0
7	1787	340992.718917019807	1
7	1792	341314.072828741281	2
7	1795	344546.203532511015	1
7	1800	344761.413527417781	0
7	1819	349353.918026851759	1
7	1827	350465.465185302421	2
7	1835	350905.879247700138	3
7	1843	352658.891380699358	2
7	1847	352730.455596301072	3
7	1860	353333.439852596214	4
7	1862	353707.803700017923	3
7	1871	354069.814642141829	2
7	1879	356601.153680215815	1
7	1884	356668.026149029104	0
7	1902	357947.863228370651	1
7	1914	361025.467622729329	2
7	1925	361327.916027227112	3
7	1929	361540.388558558597	2
7	1933	361641.036608878483	3
7	1941	361895.931338755846	4
7	1946	362233.33543290727	5
7	1960	363971.577911907202	6
7	1962	364751.522098113549	5
7	1970	365608.06384770034	4
7	1975	365881.93115262346	3
7	1984	366201.971601517653	2
7	1995	366521.532385603885	1
7	2009	367263.013529097459	2
7	2011	367883.233614806575	1
7	2025	368631.082812545567	2
7	2028	371088.045872367509	1
7	2042	372369.883141056205	0
7	2046	372485.213776730531	1
7	2059	373106.437966385671	2
7	2062	375897.499521641997	1
7	2070	377011.172699011623	0
7	2084	377860.136265274792	1
7	2087	380953.126053444919	0
7	2103	384986.489642376277	1
7	2106	388526.607065888617	0
7	2121	390497.112492612391	1
7	2130	393233.878493561086	2
7	2132	393477.263245075518	1
7	2146	394548.949673126815	2
7	2154	395641.939305117354	3
7	2157	397058.609945305553	2
7	2165	397898.833710556948	1
7	2174	399188.844773719203	0
7	2194	419679.959855307129	1
7	2206	422469.632625106477	2
7	2211	422798.202313677287	3
7	2219	423775.217619180416	2
7	2223	423909.264765711455	3
7	2236	425388.771297656284	4
7	2239	426583.394133939785	3
7	2252	426884.593085235713	2
7	2256	427107.330907365001	3
7	2263	428044.041475865174	2
7	2271	428990.748436795077	1
7	2280	430544.961921582308	0
7	2294	431929.775818579719	1
