file 41021 1483972256                                           
version 2
run WarmupMeasurement-17-20170109-15:30:56-1880
attr configname WarmupMeasurement
attr datetime 20170109-15:30:56
attr experiment WarmupMeasurement
attr inifile responseStudy.ini
attr iterationvars ""
attr iterationvars2 $repetition=17
attr measurement ""
attr network controltower.SimNetwork
attr processid 1880
attr repetition 17
attr replication #17
attr resultdir results
attr runnumber 17
attr seedset 17
param SimNetwork.a.parkingLot.parkingDelay "truncnormal(60min, 6min)"
param SimNetwork.a.runway.landingTime "truncnormal(5min, 0.5min)"
param SimNetwork.a.runway.takeoffTime "truncnormal(5min, 0.5min)"
param SimNetwork.a.runway.throughputCheckInterval 50min
param SimNetwork.wg.interArrivalTime exponential(50min)

vector 2  SimNetwork.a.landingQueue  queueLength:vector  ETV
attr source  queueLengthSignal
vector 1  SimNetwork.a.landingQueue  queueTime:vector  ETV
attr source  queueTimeSignal
vector 7  SimNetwork.a.parkingLot  parkingOccupancy:vector  ETV
attr source  parkingOccupancy
vector 5  SimNetwork.a.runway  landedThroughput:vector  ETV
attr source  landedThroughputSignal
vector 6  SimNetwork.a.runway  tookoffThroughput:vector  ETV
attr source  tookoffThroughputSignal
vector 4  SimNetwork.a.takeoffQueue  queueLength:vector  ETV
attr source  queueLengthSignal
vector 3  SimNetwork.a.takeoffQueue  queueTime:vector  ETV
attr source  queueTimeSignal
vector 0  SimNetwork.wg  responseTime:vector  ETV
attr source  responseTimeSignal
0	1465 5399 56 2205 5424.955817276282 427290.740214433613 129 3682.900216416 30002.178459185 980990.87386721 9447312823.3043
1	6864 4015 4 2184 1047.247255700762 422931.95692844333 129 0 492.10775004437 4690.2862919097 1069950.6247116
2	10879 7235 2 2184 1047.247255700762 422931.95692844333 258 0 2 133 137
3	18114 4031 53 2202 5147.642119742118 426983.543316755741 129 0 720.07593481282 6313.6484617721 2152039.515864
4	22145 7232 51 2202 5147.642119742118 426983.543316755741 258 0 2 135 141
5	29377 2209 25 2208 3000 432000 144 0 4 129 251
6	31586 2209 25 2208 3000 432000 144 0 4 129 257
7	33795 7226 7 2196 1367.838549328139 426867.97361920781 258 0 6 441 1173
