version 2
run WarmupMeasurement-17-20170109-15:30:56-1880
attr configname WarmupMeasurement
attr datetime 20170109-15:30:56
attr experiment WarmupMeasurement
attr inifile responseStudy.ini
attr iterationvars ""
attr iterationvars2 $repetition=17
attr measurement ""
attr network controltower.SimNetwork
attr processid 1880
attr repetition 17
attr replication #17
attr resultdir results
attr runnumber 17
attr seedset 17
param SimNetwork.a.parkingLot.parkingDelay "truncnormal(60min, 6min)"
param SimNetwork.a.runway.landingTime "truncnormal(5min, 0.5min)"
param SimNetwork.a.runway.takeoffTime "truncnormal(5min, 0.5min)"
param SimNetwork.a.runway.throughputCheckInterval 50min
param SimNetwork.wg.interArrivalTime exponential(50min)

vector 2  SimNetwork.a.landingQueue  queueLength:vector  ETV
attr source  queueLengthSignal
vector 1  SimNetwork.a.landingQueue  queueTime:vector  ETV
attr source  queueTimeSignal
vector 7  SimNetwork.a.parkingLot  parkingOccupancy:vector  ETV
attr source  parkingOccupancy
vector 5  SimNetwork.a.runway  landedThroughput:vector  ETV
attr source  landedThroughputSignal
vector 6  SimNetwork.a.runway  tookoffThroughput:vector  ETV
attr source  tookoffThroughputSignal
vector 4  SimNetwork.a.takeoffQueue  queueLength:vector  ETV
attr source  queueLengthSignal
vector 3  SimNetwork.a.takeoffQueue  queueTime:vector  ETV
attr source  queueTimeSignal
vector 0  SimNetwork.wg  responseTime:vector  ETV
attr source  responseTimeSignal
0	56	5424.955817276282	5424.9558172763
0	64	5834.247847138231	4185.1366714765
0	73	6256.237742875675	5208.9904871749
0	87	7994.638636344467	4550.5471684429
0	92	8294.218368703943	4730.5878856649
0	97	8562.550977094316	6702.4931341923
0	127	16410.929596450431	12720.853729684
0	149	19127.060753284149	6698.2206686457
0	181	20735.909597632679	6075.8233770198
0	190	22115.288014956003	5828.8494328464
0	201	23157.230200232393	4683.7211678277
0	209	23480.545983729997	4342.2007439305
0	214	23829.944600052222	4495.1377455581
0	234	34078.957241640886	14224.806692417
0	252	40593.029192186479	10801.50870595
0	278	45836.53301016368	9484.2969416252
0	319	49688.991547124639	7642.5776561006
0	330	50520.161790611413	6748.9779121823
0	360	52961.927445032769	4208.9030768923
0	371	53460.303143279811	7488.446285298
0	376	53760.934764666074	5191.6856054538
0	385	54524.6742012744	5510.6416808724
0	393	55104.722865834798	4769.9369872723
0	401	56293.293541499072	5149.4482452128
0	435	61618.35065480119	9528.0983183287
0	452	63508.237318678238	5551.0952834276
0	460	63835.583652591213	5013.9171368048
0	469	66058.963030301237	6900.581320553
0	529	71627.597647940306	9949.398405827
0	534	71979.124369000656	4933.958354682
0	546	72725.991557468585	3682.900216416
0	562	73365.17645410217	5920.5965760474
0	567	73638.939875689108	4170.0046843584
0	575	74601.106644821299	4750.762443734
0	584	77164.619748846778	6818.6892022308
0	613	92351.059400608377	19898.701178757
0	646	95410.48587233586	8208.7547766861
0	655	96588.468277030389	5897.9399686562
0	674	98777.28613696653	4359.1938975304
0	680	99091.547982764966	6666.5460041238
0	705	102168.011864776448	7623.153368869
0	714	105165.887617087092	7058.2847616078
0	722	106175.507814632481	5278.2292021314
0	753	128780.201049735008	27328.002805841
0	765	129399.116713957612	4787.784215637
0	795	134029.746033124177	8624.6787335822
0	810	135887.791168261213	6782.4400800343
0	828	137320.988952121412	6067.0928503031
0	845	139896.169763956963	6954.7117943823
0	853	140498.163097079374	4803.9433486029
0	870	141568.762149679961	5855.9799951765
0	879	144710.717133157399	6682.0814994815
0	897	150377.132695434127	9779.8195344838
0	931	156367.498690963566	10199.128109419
0	939	158395.864738240535	6238.3133140075
0	948	159242.169686669417	4438.9958303506
0	974	167044.931278977695	12102.482466657
0	999	169921.935447361457	7643.4816331932
0	1016	172621.267644002238	7098.424783346
0	1032	173458.367118844767	5607.5992175887
0	1041	175678.560713872711	6386.8916164267
0	1050	177301.523988177598	5565.5295114791
0	1068	183321.344725417154	10613.133024331
0	1105	190073.763632931612	10409.730116077
0	1119	192338.19784406474	7140.0819591387
0	1135	193799.58911925184	5739.7831243873
0	1146	194645.491348264667	5188.0568347601
0	1160	197286.867533577382	7336.7160640918
0	1177	199330.148265536373	6509.3863014209
0	1186	202756.202835524346	8413.2355863476
0	1230	228741.463347807004	30002.178459185
0	1235	229015.129561341312	4963.7056736271
0	1243	229562.522908081559	4721.31878128
0	1277	235106.925049747114	10024.951235234
0	1286	237317.652894457321	4098.2479549134
0	1294	237985.824162439707	7588.916348191
0	1321	246412.662290970072	12884.829861917
0	1338	249930.270511876751	7816.0929971802
0	1355	253324.530388794508	7486.3015983177
0	1380	256577.192161570686	7345.1541216525
0	1392	259352.286919567748	4813.473855021
0	1405	259922.886577942839	7347.1911886864
0	1422	263560.01761918123	8793.6589996097
0	1439	265731.649371044048	6579.9148295264
0	1456	268530.444059097459	6972.783334917
0	1465	271132.661627307819	6311.8111864067
0	1484	281963.114536097647	14819.024980181
0	1523	292809.065929773984	14472.218551028
0	1545	294818.575480368516	6144.5976228304
0	1557	297101.067732167325	4918.2192913255
0	1562	297394.615424772427	7386.5611248892
0	1570	298172.511252953368	5397.2143095035
0	1601	310109.369337282362	15855.553046184
0	1606	310411.605697617891	4403.2943176438
0	1639	314682.939585555303	8616.8279212527
0	1648	316096.440295650833	5247.4139170764
0	1656	316961.861576643916	4819.9543748471
0	1698	321199.19056194583	8039.8727902345
0	1712	323114.091202498621	4363.6547228789
0	1717	323464.568146672432	6465.7974660322
0	1722	323803.203746289431	4793.7737765559
0	1749	330124.644549169577	10496.995187914
0	1757	331233.061013455053	5025.5935326416
0	1801	342919.746743533865	15716.618966803
0	1812	344639.257435315484	4328.8198767632
0	1820	344927.923079578401	5885.3877492418
0	1834	346871.318390894892	6420.241196461
0	1843	349691.852957830937	7509.8251725731
0	1868	353863.924354312217	9093.9571793354
0	1878	357879.93229165661	8076.6527566444
0	1899	365420.190350472492	12245.444691634
0	1925	369668.381189309574	4398.7530486082
0	1930	369975.296310316347	8500.2831679217
0	1956	375054.4400264567	9485.3260189882
0	1964	376386.378787427707	5427.3636760049
0	1982	381464.819786382599	9451.7443898021
0	2026	386813.866327511935	9686.9308972604
0	2032	387174.047885102193	5111.06313631
0	2041	390160.486016040945	7892.6886929479
0	2049	390584.585458697495	4689.5857970217
0	2084	399222.14508570981	13125.367172715
0	2092	400846.28418803431	5684.591763318
0	2101	402508.975967713016	6464.5969504903
0	2118	407368.331516082575	8907.920625182
0	2136	411696.385781443614	8460.6154207732
0	2165	418023.387595786605	4282.3879400599
0	2170	418290.121226668543	10830.589945569
0	2200	426983.543316755741	4337.25777552
0	2205	427290.740214433613	12582.705230245
1	4	1047.247255700762	0
1	12	1649.111175661775	0
1	20	1961.639718745621	101.58187584356
1	29	3444.091467901593	0
1	40	3706.809812082018	143.17932904294
1	45	4032.423545593245	342.3476788271
1	104	12428.840084638429	0
1	112	14660.086220612862	0
1	129	16410.929596450431	124.49101434081
1	138	18473.509032404708	0
1	154	19138.345239799513	0
1	162	19415.042536118462	80.235681624363
1	170	19854.150549223403	0
1	221	29791.520486236625	0
1	240	36352.236068538443	0
1	258	42046.413891024051	0
1	266	43771.183878429109	0
1	283	45971.856857981829	0
1	292	48569.249159212301	0
1	303	48872.284885407728	119.26051726723
1	311	49190.192810222619	176.16028982064
1	332	50520.161790611413	185.37591204895
1	341	51143.845296286273	0
1	349	52090.252336472535	0
1	407	57957.142035250655	0
1	415	58821.666515786373	0
1	423	59158.381709748248	0
1	440	61678.199242113331	0
1	474	67045.166014318685	0
1	482	67444.579878054723	0
1	491	69043.091341052615	0
1	499	69468.935191330747	0
1	507	69850.344201087332	0
1	515	70345.930546615974	0
1	548	72725.991557468585	273.63333561763
1	593	87201.731095649728	0
1	602	90690.528308374212	0
1	618	92425.001978641181	0
1	627	94418.092239436099	0
1	635	94695.555994364766	150.69749845727
1	660	98107.60285547934	0
1	685	100897.278612501084	0
1	693	101452.198243893605	0
1	733	124611.332498320653	0
1	741	125405.067299541967	0
1	767	129399.116713957612	293.7656257307
1	775	131253.896101818357	0
1	784	132941.457969574701	0
1	812	135887.791168261213	193.57141978475
1	817	136204.889904547872	492.10775004437
1	834	138028.635633675901	0
1	858	140597.31316095037	0
1	884	146168.37058154444	0
1	902	152157.551424233002	0
1	911	154803.173856318824	0
1	919	155117.462511940793	175.01369962003
1	954	162278.453814168237	0
1	963	165522.842860656231	0
1	979	167850.767901256035	0
1	988	169291.669097446039	0
1	1005	171735.994476698481	0
1	1021	172708.211701086134	0
1	1055	179664.033516854286	0
1	1073	185198.115884926084	0
1	1082	188059.80599486449	0
1	1091	189457.434513504531	0
1	1107	190073.763632931612	123.61216344604
1	1124	192820.761964115505	0
1	1148	194645.491348264667	302.52409908791
1	1166	198739.284888621616	0
1	1198	224051.42388771424	0
1	1206	224841.204126801589	0
1	1215	225107.560434828263	25.586620314738
1	1248	230396.907814248705	0
1	1257	233219.404939543964	0
1	1265	233527.832429052901	0
1	1300	242114.177514696521	0
1	1309	245838.228790476799	0
1	1327	249232.038039918195	0
1	1344	252575.695389256463	0
1	1360	254538.81306454671	0
1	1368	254836.338624662561	69.980005091063
1	1394	259352.286919567748	200.55237805014
1	1411	261557.660724180433	0
1	1428	264820.850440901106	0
1	1445	267144.089555916653	0
1	1472	278336.847378745945	0
1	1492	288673.977857538111	0
1	1500	290008.054299883218	0
1	1509	292182.848440841815	0
1	1525	292809.065929773984	33.768986324086
1	1534	294253.816291098623	0
1	1578	306008.311379974107	0
1	1586	306312.587159382016	246.4754950794
1	1611	310849.026378574482	0
1	1620	312141.907201796829	0
1	1628	313159.317771711321	0
1	1661	316998.770680640199	0
1	1670	318750.436479619758	0
1	1678	319024.745611104665	15.3156413711
1	1686	319627.649361256063	0
1	1728	326207.467480813429	0
1	1737	327203.127776730551	0
1	1765	339042.535330336567	0
1	1773	340310.437558552267	0
1	1781	340606.171402049715	155.09420761584
1	1790	342182.027785257793	0
1	1822	344927.923079578401	157.9559046016
1	1848	349803.279535012175	0
1	1857	353174.745658838795	0
1	1884	361475.013142394671	0
1	1901	365420.190350472492	150.5622097711
1	1909	365727.523261399794	158.40925393133
1	1935	370959.015111422857	0
1	1944	372013.075396580485	0
1	1969	377126.935430251525	0
1	1987	382062.984748792225	0
1	1995	382360.762720136471	92.965397043387
1	2004	385894.999661675777	0
1	2015	386165.431558404729	68.65364540955
1	2055	395161.692424716285	0
1	2064	396044.379017222762	0
1	2072	398460.410890900558	0
1	2106	403235.77036067043	0
1	2123	407459.53128109947	0
1	2141	413740.99965572675	0
1	2150	414708.034984188628	0
1	2176	422646.285541235748	0
1	2184	422931.95692844333	37.408656702097
2	2	1047.247255700762	1
2	4	1047.247255700762	0
2	10	1649.111175661775	1
2	12	1649.111175661775	0
2	15	1860.057842902064	1
2	20	1961.639718745621	0
2	27	3444.091467901593	1
2	29	3444.091467901593	0
2	32	3563.630483039077	1
2	35	3690.075866766147	2
2	40	3706.809812082018	1
2	45	4032.423545593245	0
2	102	12428.840084638429	1
2	104	12428.840084638429	0
2	110	14660.086220612862	1
2	112	14660.086220612862	0
2	124	16286.438582109622	1
2	129	16410.929596450431	0
2	136	18473.509032404708	1
2	138	18473.509032404708	0
2	152	19138.345239799513	1
2	154	19138.345239799513	0
2	157	19334.806854494099	1
2	162	19415.042536118462	0
2	168	19854.150549223403	1
2	170	19854.150549223403	0
2	219	29791.520486236625	1
2	221	29791.520486236625	0
2	238	36352.236068538443	1
2	240	36352.236068538443	0
2	256	42046.413891024051	1
2	258	42046.413891024051	0
2	264	43771.183878429109	1
2	266	43771.183878429109	0
2	281	45971.856857981829	1
2	283	45971.856857981829	0
2	290	48569.249159212301	1
2	292	48569.249159212301	0
2	298	48753.024368140495	1
2	303	48872.284885407728	0
2	306	49014.032520401976	1
2	311	49190.192810222619	0
2	327	50334.785878562462	1
2	332	50520.161790611413	0
2	339	51143.845296286273	1
2	341	51143.845296286273	0
2	347	52090.252336472535	1
2	349	52090.252336472535	0
2	405	57957.142035250655	1
2	407	57957.142035250655	0
2	413	58821.666515786373	1
2	415	58821.666515786373	0
2	421	59158.381709748248	1
2	423	59158.381709748248	0
2	438	61678.199242113331	1
2	440	61678.199242113331	0
2	472	67045.166014318685	1
2	474	67045.166014318685	0
2	480	67444.579878054723	1
2	482	67444.579878054723	0
2	489	69043.091341052615	1
2	491	69043.091341052615	0
2	497	69468.935191330747	1
2	499	69468.935191330747	0
2	505	69850.344201087332	1
2	507	69850.344201087332	0
2	513	70345.930546615974	1
2	515	70345.930546615974	0
2	543	72452.358221850952	1
2	548	72725.991557468585	0
2	591	87201.731095649728	1
2	593	87201.731095649728	0
2	600	90690.528308374212	1
2	602	90690.528308374212	0
2	616	92425.001978641181	1
2	618	92425.001978641181	0
2	625	94418.092239436099	1
2	627	94418.092239436099	0
2	630	94544.858495907495	1
2	635	94695.555994364766	0
2	658	98107.60285547934	1
2	660	98107.60285547934	0
2	683	100897.278612501084	1
2	685	100897.278612501084	0
2	691	101452.198243893605	1
2	693	101452.198243893605	0
2	731	124611.332498320653	1
2	733	124611.332498320653	0
2	739	125405.067299541967	1
2	741	125405.067299541967	0
2	762	129105.351088226908	1
2	767	129399.116713957612	0
2	773	131253.896101818357	1
2	775	131253.896101818357	0
2	782	132941.457969574701	1
2	784	132941.457969574701	0
2	804	135694.219748476463	1
2	807	135712.782154503506	2
2	812	135887.791168261213	1
2	817	136204.889904547872	0
2	832	138028.635633675901	1
2	834	138028.635633675901	0
2	856	140597.31316095037	1
2	858	140597.31316095037	0
2	882	146168.37058154444	1
2	884	146168.37058154444	0
2	900	152157.551424233002	1
2	902	152157.551424233002	0
2	909	154803.173856318824	1
2	911	154803.173856318824	0
2	914	154942.448812320763	1
2	919	155117.462511940793	0
2	952	162278.453814168237	1
2	954	162278.453814168237	0
2	961	165522.842860656231	1
2	963	165522.842860656231	0
2	977	167850.767901256035	1
2	979	167850.767901256035	0
2	986	169291.669097446039	1
2	988	169291.669097446039	0
2	1003	171735.994476698481	1
2	1005	171735.994476698481	0
2	1019	172708.211701086134	1
2	1021	172708.211701086134	0
2	1053	179664.033516854286	1
2	1055	179664.033516854286	0
2	1071	185198.115884926084	1
2	1073	185198.115884926084	0
2	1080	188059.80599486449	1
2	1082	188059.80599486449	0
2	1089	189457.434513504531	1
2	1091	189457.434513504531	0
2	1102	189950.151469485574	1
2	1107	190073.763632931612	0
2	1122	192820.761964115505	1
2	1124	192820.761964115505	0
2	1143	194342.967249176757	1
2	1148	194645.491348264667	0
2	1164	198739.284888621616	1
2	1166	198739.284888621616	0
2	1196	224051.42388771424	1
2	1198	224051.42388771424	0
2	1204	224841.204126801589	1
2	1206	224841.204126801589	0
2	1210	225081.973814513525	1
2	1215	225107.560434828263	0
2	1246	230396.907814248705	1
2	1248	230396.907814248705	0
2	1255	233219.404939543964	1
2	1257	233219.404939543964	0
2	1263	233527.832429052901	1
2	1265	233527.832429052901	0
2	1298	242114.177514696521	1
2	1300	242114.177514696521	0
2	1307	245838.228790476799	1
2	1309	245838.228790476799	0
2	1325	249232.038039918195	1
2	1327	249232.038039918195	0
2	1342	252575.695389256463	1
2	1344	252575.695389256463	0
2	1358	254538.81306454671	1
2	1360	254538.81306454671	0
2	1363	254766.358619571498	1
2	1368	254836.338624662561	0
2	1389	259151.734541517607	1
2	1394	259352.286919567748	0
2	1409	261557.660724180433	1
2	1411	261557.660724180433	0
2	1426	264820.850440901106	1
2	1428	264820.850440901106	0
2	1443	267144.089555916653	1
2	1445	267144.089555916653	0
2	1470	278336.847378745945	1
2	1472	278336.847378745945	0
2	1490	288673.977857538111	1
2	1492	288673.977857538111	0
2	1498	290008.054299883218	1
2	1500	290008.054299883218	0
2	1507	292182.848440841815	1
2	1509	292182.848440841815	0
2	1520	292775.296943449898	1
2	1525	292809.065929773984	0
2	1532	294253.816291098623	1
2	1534	294253.816291098623	0
2	1576	306008.311379974107	1
2	1578	306008.311379974107	0
2	1581	306066.111664302614	1
2	1586	306312.587159382016	0
2	1609	310849.026378574482	1
2	1611	310849.026378574482	0
2	1618	312141.907201796829	1
2	1620	312141.907201796829	0
2	1626	313159.317771711321	1
2	1628	313159.317771711321	0
2	1659	316998.770680640199	1
2	1661	316998.770680640199	0
2	1668	318750.436479619758	1
2	1670	318750.436479619758	0
2	1673	319009.429969733565	1
2	1678	319024.745611104665	0
2	1684	319627.649361256063	1
2	1686	319627.649361256063	0
2	1726	326207.467480813429	1
2	1728	326207.467480813429	0
2	1735	327203.127776730551	1
2	1737	327203.127776730551	0
2	1763	339042.535330336567	1
2	1765	339042.535330336567	0
2	1771	340310.437558552267	1
2	1773	340310.437558552267	0
2	1776	340451.077194433874	1
2	1781	340606.171402049715	0
2	1788	342182.027785257793	1
2	1790	342182.027785257793	0
2	1817	344769.967174976805	1
2	1822	344927.923079578401	0
2	1846	349803.279535012175	1
2	1848	349803.279535012175	0
2	1855	353174.745658838795	1
2	1857	353174.745658838795	0
2	1882	361475.013142394671	1
2	1884	361475.013142394671	0
2	1896	365269.628140701395	1
2	1901	365420.190350472492	0
2	1904	365569.114007468463	1
2	1909	365727.523261399794	0
2	1933	370959.015111422857	1
2	1935	370959.015111422857	0
2	1942	372013.075396580485	1
2	1944	372013.075396580485	0
2	1967	377126.935430251525	1
2	1969	377126.935430251525	0
2	1985	382062.984748792225	1
2	1987	382062.984748792225	0
2	1990	382267.797323093084	1
2	1995	382360.762720136471	0
2	2002	385894.999661675777	1
2	2004	385894.999661675777	0
2	2010	386096.777912995179	1
2	2015	386165.431558404729	0
2	2053	395161.692424716285	1
2	2055	395161.692424716285	0
2	2062	396044.379017222762	1
2	2064	396044.379017222762	0
2	2070	398460.410890900558	1
2	2072	398460.410890900558	0
2	2104	403235.77036067043	1
2	2106	403235.77036067043	0
2	2121	407459.53128109947	1
2	2123	407459.53128109947	0
2	2139	413740.99965572675	1
2	2141	413740.99965572675	0
2	2148	414708.034984188628	1
2	2150	414708.034984188628	0
2	2174	422646.285541235748	1
2	2176	422646.285541235748	0
2	2179	422894.548271741233	1
2	2184	422931.95692844333	0
3	53	5147.642119742118	0
3	61	5546.605934938403	0
3	69	5981.421712131135	0
3	78	7700.653352369603	0
3	89	7994.638636344467	281.92855230181
3	94	8294.218368703943	436.04693317729
3	121	16069.199776836211	0
3	146	18791.102900129445	35.963570483571
3	178	20446.810676995579	0
3	187	21808.968305737213	0
3	195	22815.370798309226	0
3	203	23157.230200232393	42.960222072717
3	211	23480.545983729997	2.550552684177
3	231	33743.315817014502	0
3	249	40300.142428338829	0
3	275	45544.213470046346	0
3	316	49441.270582106056	720.07593481282
3	324	50234.285695945512	0
3	357	52678.192463134812	0
3	365	53146.185229519819	0
3	373	53460.303143279811	35.444970911118
3	382	54231.858200175549	0
3	390	54788.47415415255	0
3	398	56074.018405975478	0
3	432	61377.352338328761	0
3	449	63185.132737665451	0
3	457	63543.993511155985	0
3	465	65764.056114079131	0
3	523	71290.020000235125	0
3	531	71627.597647940306	73.991711145836
3	540	72449.363574493909	0
3	556	73009.083665533935	263.45892794412
3	564	73365.17645410217	61.11713082791
3	572	74338.348426817366	0
3	581	76903.485064951073	0
3	610	92014.796815353116	0
3	643	95150.302246045454	0
3	652	96262.888820779688	0
3	671	98437.197880922102	120.51882358972
3	676	98777.28613696653	399.8299185061
3	701	101856.31603741313	0
3	710	104861.435032335806	0
3	719	105871.431211094207	0
3	750	128482.059347003911	0
3	759	129070.733156474174	0
3	792	133698.82964850663	0
3	801	135562.127101059869	0
3	825	137049.554498113896	0
3	842	139611.667507698514	0
3	850	140174.892205210889	0
3	867	141294.163716956495	0
3	876	144395.619784820261	0
3	894	150077.263940180122	0
3	928	156066.416482257844	0
3	936	158074.818906506452	0
3	944	158957.859387724425	0
3	971	166729.530808593346	0
3	996	169606.321924490622	138.44924825612
3	1013	172319.589197981496	0
3	1029	173119.266437313537	0
3	1038	175430.624119288004	0
3	1046	176994.398349971001	0
3	1065	183031.758418128339	0
3	1099	189751.916403739124	164.82859501219
3	1116	192062.73955214652	0
3	1132	193505.856083227338	0
3	1140	194342.121194068214	0
3	1157	196963.810428603359	0
3	1174	199048.608427329785	101.67414740304
3	1183	202463.2049276241	0
3	1224	228495.769472516823	0
3	1232	228741.463347807004	88.63712352469
3	1240	229246.679900719381	0
3	1274	234824.524947096944	0
3	1283	237053.757134241596	0
3	1291	237729.676930284566	0
3	1318	246096.574263285563	22.28338536051
3	1335	249663.291989605215	0
3	1352	253052.813377458295	0
3	1377	256216.166490385111	0
3	1386	259040.551431007372	0
3	1402	259623.733794223569	252.90419811719
3	1419	263241.675502651334	0
3	1436	265423.193476421411	0
3	1453	268217.999098129303	0
3	1462	270812.930099454143	0
3	1481	281675.806242253265	0
3	1517	292489.244588199729	249.01059430189
3	1542	294526.908522448888	109.62941510179
3	1550	296780.231067834058	0
3	1559	297101.067732167325	226.49804285317
3	1567	297927.664221838651	0
3	1595	309808.96245784413	0
3	1603	310109.369337282362	192.21962015668
3	1636	314402.904963880092	0
3	1645	315819.181359247931	0
3	1653	316654.625785689261	0
3	1694	320949.846351480172	0
3	1703	322774.444103925303	0
3	1714	323114.091202498621	146.26074712668
3	1719	323464.568146672432	437.78203614661
3	1745	329818.392609158199	0
3	1754	330929.956699352326	0
3	1798	342621.943434148322	0
3	1806	344306.885082069	0
3	1814	344639.257435315484	327.3798190807
3	1831	346587.428289294848	0
3	1840	349451.702275053255	0
3	1865	353552.373403754231	0
3	1875	357611.573155210452	0
3	1893	365095.28358136483	0
3	1919	369402.838829537289	0
3	1927	369668.381189309574	185.93371529981
3	1952	374723.965084432954	0
3	1961	376102.311379901408	0
3	1979	381153.228753061703	0
3	2020	386474.062891219781	555.7503079631
3	2028	386813.866327511935	277.31176538619
3	2037	389889.158063675283	0
3	2046	390296.098155729151	0
3	2080	398916.932260519621	0
3	2089	400496.358895716812	0
3	2098	402261.126544154455	0
3	2115	407074.443852852772	0
3	2133	411370.988387893042	0
3	2159	417719.064408390991	0
3	2167	418023.387595786605	247.63875467659
3	2194	426725.539714838995	0
3	2202	426983.543316755741	115.56969754793
4	51	5147.642119742118	1
4	53	5147.642119742118	0
4	59	5546.605934938403	1
4	61	5546.605934938403	0
4	67	5981.421712131135	1
4	69	5981.421712131135	0
4	76	7700.653352369603	1
4	78	7700.653352369603	0
4	81	7712.710084042654	1
4	84	7858.17143552665	2
4	89	7994.638636344467	1
4	94	8294.218368703943	0
4	119	16069.199776836211	1
4	121	16069.199776836211	0
4	141	18755.139329645874	1
4	146	18791.102900129445	0
4	176	20446.810676995579	1
4	178	20446.810676995579	0
4	185	21808.968305737213	1
4	187	21808.968305737213	0
4	193	22815.370798309226	1
4	195	22815.370798309226	0
4	198	23114.269978159676	1
4	203	23157.230200232393	0
4	206	23477.99543104582	1
4	211	23480.545983729997	0
4	229	33743.315817014502	1
4	231	33743.315817014502	0
4	247	40300.142428338829	1
4	249	40300.142428338829	0
4	273	45544.213470046346	1
4	275	45544.213470046346	0
4	295	48721.194647293234	1
4	316	49441.270582106056	0
4	322	50234.285695945512	1
4	324	50234.285695945512	0
4	355	52678.192463134812	1
4	357	52678.192463134812	0
4	363	53146.185229519819	1
4	365	53146.185229519819	0
4	368	53424.858172368693	1
4	373	53460.303143279811	0
4	380	54231.858200175549	1
4	382	54231.858200175549	0
4	388	54788.47415415255	1
4	390	54788.47415415255	0
4	396	56074.018405975478	1
4	398	56074.018405975478	0
4	430	61377.352338328761	1
4	432	61377.352338328761	0
4	447	63185.132737665451	1
4	449	63185.132737665451	0
4	455	63543.993511155985	1
4	457	63543.993511155985	0
4	463	65764.056114079131	1
4	465	65764.056114079131	0
4	521	71290.020000235125	1
4	523	71290.020000235125	0
4	526	71553.60593679447	1
4	531	71627.597647940306	0
4	538	72449.363574493909	1
4	540	72449.363574493909	0
4	551	72745.624737589813	1
4	556	73009.083665533935	0
4	559	73304.05932327426	1
4	564	73365.17645410217	0
4	570	74338.348426817366	1
4	572	74338.348426817366	0
4	579	76903.485064951073	1
4	581	76903.485064951073	0
4	608	92014.796815353116	1
4	610	92014.796815353116	0
4	641	95150.302246045454	1
4	643	95150.302246045454	0
4	650	96262.888820779688	1
4	652	96262.888820779688	0
4	663	98316.679057332386	1
4	666	98377.456218460434	2
4	671	98437.197880922102	1
4	676	98777.28613696653	0
4	699	101856.31603741313	1
4	701	101856.31603741313	0
4	708	104861.435032335806	1
4	710	104861.435032335806	0
4	717	105871.431211094207	1
4	719	105871.431211094207	0
4	748	128482.059347003911	1
4	750	128482.059347003911	0
4	757	129070.733156474174	1
4	759	129070.733156474174	0
4	790	133698.82964850663	1
4	792	133698.82964850663	0
4	799	135562.127101059869	1
4	801	135562.127101059869	0
4	823	137049.554498113896	1
4	825	137049.554498113896	0
4	840	139611.667507698514	1
4	842	139611.667507698514	0
4	848	140174.892205210889	1
4	850	140174.892205210889	0
4	865	141294.163716956495	1
4	867	141294.163716956495	0
4	874	144395.619784820261	1
4	876	144395.619784820261	0
4	892	150077.263940180122	1
4	894	150077.263940180122	0
4	926	156066.416482257844	1
4	928	156066.416482257844	0
4	934	158074.818906506452	1
4	936	158074.818906506452	0
4	942	158957.859387724425	1
4	944	158957.859387724425	0
4	969	166729.530808593346	1
4	971	166729.530808593346	0
4	991	169467.872676234504	1
4	996	169606.321924490622	0
4	1011	172319.589197981496	1
4	1013	172319.589197981496	0
4	1027	173119.266437313537	1
4	1029	173119.266437313537	0
4	1036	175430.624119288004	1
4	1038	175430.624119288004	0
4	1044	176994.398349971001	1
4	1046	176994.398349971001	0
4	1063	183031.758418128339	1
4	1065	183031.758418128339	0
4	1094	189587.087808726937	1
4	1099	189751.916403739124	0
4	1114	192062.73955214652	1
4	1116	192062.73955214652	0
4	1130	193505.856083227338	1
4	1132	193505.856083227338	0
4	1138	194342.121194068214	1
4	1140	194342.121194068214	0
4	1155	196963.810428603359	1
4	1157	196963.810428603359	0
4	1169	198946.934279926749	1
4	1174	199048.608427329785	0
4	1181	202463.2049276241	1
4	1183	202463.2049276241	0
4	1222	228495.769472516823	1
4	1224	228495.769472516823	0
4	1227	228652.826224282314	1
4	1232	228741.463347807004	0
4	1238	229246.679900719381	1
4	1240	229246.679900719381	0
4	1272	234824.524947096944	1
4	1274	234824.524947096944	0
4	1281	237053.757134241596	1
4	1283	237053.757134241596	0
4	1289	237729.676930284566	1
4	1291	237729.676930284566	0
4	1313	246074.290877925053	1
4	1318	246096.574263285563	0
4	1333	249663.291989605215	1
4	1335	249663.291989605215	0
4	1350	253052.813377458295	1
4	1352	253052.813377458295	0
4	1375	256216.166490385111	1
4	1377	256216.166490385111	0
4	1384	259040.551431007372	1
4	1386	259040.551431007372	0
4	1397	259370.829596106379	1
4	1402	259623.733794223569	0
4	1417	263241.675502651334	1
4	1419	263241.675502651334	0
4	1434	265423.193476421411	1
4	1436	265423.193476421411	0
4	1451	268217.999098129303	1
4	1453	268217.999098129303	0
4	1460	270812.930099454143	1
4	1462	270812.930099454143	0
4	1479	281675.806242253265	1
4	1481	281675.806242253265	0
4	1512	292240.233993897835	1
4	1517	292489.244588199729	0
4	1537	294417.279107347096	1
4	1542	294526.908522448888	0
4	1548	296780.231067834058	1
4	1550	296780.231067834058	0
4	1553	296874.569689314158	1
4	1559	297101.067732167325	0
4	1565	297927.664221838651	1
4	1567	297927.664221838651	0
4	1593	309808.96245784413	1
4	1595	309808.96245784413	0
4	1598	309917.149717125684	1
4	1603	310109.369337282362	0
4	1634	314402.904963880092	1
4	1636	314402.904963880092	0
4	1643	315819.181359247931	1
4	1645	315819.181359247931	0
4	1651	316654.625785689261	1
4	1653	316654.625785689261	0
4	1692	320949.846351480172	1
4	1694	320949.846351480172	0
4	1701	322774.444103925303	1
4	1703	322774.444103925303	0
4	1706	322967.830455371937	1
4	1709	323026.786110525819	2
4	1714	323114.091202498621	1
4	1719	323464.568146672432	0
4	1743	329818.392609158199	1
4	1745	329818.392609158199	0
4	1752	330929.956699352326	1
4	1754	330929.956699352326	0
4	1796	342621.943434148322	1
4	1798	342621.943434148322	0
4	1804	344306.885082069	1
4	1806	344306.885082069	0
4	1809	344311.877616234785	1
4	1814	344639.257435315484	0
4	1829	346587.428289294848	1
4	1831	346587.428289294848	0
4	1838	349451.702275053255	1
4	1840	349451.702275053255	0
4	1863	353552.373403754231	1
4	1865	353552.373403754231	0
4	1873	357611.573155210452	1
4	1875	357611.573155210452	0
4	1891	365095.28358136483	1
4	1893	365095.28358136483	0
4	1917	369402.838829537289	1
4	1919	369402.838829537289	0
4	1922	369482.447474009765	1
4	1927	369668.381189309574	0
4	1950	374723.965084432954	1
4	1952	374723.965084432954	0
4	1959	376102.311379901408	1
4	1961	376102.311379901408	0
4	1977	381153.228753061703	1
4	1979	381153.228753061703	0
4	2007	385918.312583256682	1
4	2020	386474.062891219781	0
4	2023	386536.55456212575	1
4	2028	386813.866327511935	0
4	2035	389889.158063675283	1
4	2037	389889.158063675283	0
4	2044	390296.098155729151	1
4	2046	390296.098155729151	0
4	2078	398916.932260519621	1
4	2080	398916.932260519621	0
4	2087	400496.358895716812	1
4	2089	400496.358895716812	0
4	2096	402261.126544154455	1
4	2098	402261.126544154455	0
4	2113	407074.443852852772	1
4	2115	407074.443852852772	0
4	2131	411370.988387893042	1
4	2133	411370.988387893042	0
4	2157	417719.064408390991	1
4	2159	417719.064408390991	0
4	2162	417775.748841110014	1
4	2167	418023.387595786605	0
4	2192	426725.539714838995	1
4	2194	426725.539714838995	0
4	2197	426867.97361920781	1
4	2202	426983.543316755741	0
5	25	3000	3
5	71	6000	3
5	99	9000	0
5	100	12000	0
5	117	15000	2
5	134	18000	1
5	183	21000	4
5	216	24000	0
5	217	27000	0
5	223	30000	0
5	227	33000	1
5	236	36000	0
5	245	39000	1
5	254	42000	0
5	271	45000	2
5	288	48000	1
5	337	51000	4
5	378	54000	2
5	403	57000	0
5	428	60000	3
5	445	63000	1
5	467	66000	0
5	487	69000	2
5	536	72000	4
5	577	75000	1
5	586	78000	0
5	587	81000	0
5	588	84000	0
5	589	87000	0
5	598	90000	1
5	623	93000	2
5	648	96000	2
5	678	99000	1
5	703	102000	2
5	712	105000	0
5	724	108000	0
5	725	111000	0
5	726	114000	0
5	727	117000	0
5	728	120000	0
5	729	123000	0
5	746	126000	2
5	755	129000	0
5	780	132000	2
5	797	135000	1
5	830	138000	2
5	863	141000	2
5	872	144000	0
5	889	147000	1
5	890	150000	0
5	907	153000	1
5	924	156000	2
5	946	159000	0
5	950	162000	0
5	959	165000	1
5	981	168000	1
5	1001	171000	2
5	1034	174000	2
5	1048	177000	0
5	1060	180000	1
5	1061	183000	0
5	1078	186000	1
5	1087	189000	1
5	1112	192000	2
5	1153	195000	2
5	1162	198000	0
5	1179	201000	1
5	1188	204000	0
5	1189	207000	0
5	1190	210000	0
5	1191	213000	0
5	1192	216000	0
5	1193	219000	0
5	1194	222000	0
5	1208	225000	1
5	1220	228000	2
5	1253	231000	1
5	1270	234000	2
5	1279	237000	0
5	1296	240000	0
5	1305	243000	1
5	1311	246000	0
5	1323	249000	1
5	1340	252000	1
5	1370	255000	2
5	1382	258000	1
5	1407	261000	1
5	1424	264000	1
5	1441	267000	1
5	1458	270000	1
5	1467	273000	0
5	1468	276000	0
5	1477	279000	1
5	1486	282000	0
5	1487	285000	0
5	1488	288000	0
5	1505	291000	2
5	1530	294000	2
5	1555	297000	1
5	1572	300000	0
5	1573	303000	0
5	1574	306000	0
5	1591	309000	2
5	1616	312000	1
5	1641	315000	2
5	1666	318000	1
5	1696	321000	3
5	1724	324000	0
5	1733	327000	1
5	1747	330000	1
5	1759	333000	0
5	1760	336000	0
5	1761	339000	0
5	1786	342000	3
5	1824	345000	1
5	1836	348000	1
5	1853	351000	1
5	1870	354000	1
5	1871	357000	0
5	1880	360000	0
5	1889	363000	1
5	1914	366000	2
5	1915	369000	0
5	1940	372000	1
5	1954	375000	1
5	1974	378000	1
5	1975	381000	0
5	2000	384000	2
5	2030	387000	2
5	2039	390000	0
5	2051	393000	0
5	2060	396000	1
5	2082	399000	2
5	2094	402000	0
5	2111	405000	1
5	2128	408000	1
5	2129	411000	0
5	2143	414000	0
5	2155	417000	2
5	2172	420000	0
5	2186	423000	1
5	2190	426000	1
5	2207	429000	0
5	2208	432000	0
6	25	3000	0
6	71	6000	2
6	99	9000	4
6	100	12000	0
6	117	15000	0
6	134	18000	1
6	183	21000	2
6	216	24000	4
6	217	27000	0
6	223	30000	0
6	227	33000	0
6	236	36000	1
6	245	39000	0
6	254	42000	1
6	271	45000	0
6	288	48000	1
6	337	51000	2
6	378	54000	3
6	403	57000	3
6	428	60000	0
6	445	63000	1
6	467	66000	2
6	487	69000	1
6	536	72000	2
6	577	75000	4
6	586	78000	1
6	587	81000	0
6	588	84000	0
6	589	87000	0
6	598	90000	0
6	623	93000	1
6	648	96000	1
6	678	99000	2
6	703	102000	1
6	712	105000	1
6	724	108000	2
6	725	111000	0
6	726	114000	0
6	727	117000	0
6	728	120000	0
6	729	123000	0
6	746	126000	0
6	755	129000	1
6	780	132000	1
6	797	135000	1
6	830	138000	2
6	863	141000	2
6	872	144000	1
6	889	147000	1
6	890	150000	0
6	907	153000	1
6	924	156000	0
6	946	159000	2
6	950	162000	1
6	959	165000	0
6	981	168000	1
6	1001	171000	1
6	1034	174000	2
6	1048	177000	1
6	1060	180000	1
6	1061	183000	0
6	1078	186000	1
6	1087	189000	0
6	1112	192000	1
6	1153	195000	3
6	1162	198000	1
6	1179	201000	1
6	1188	204000	1
6	1189	207000	0
6	1190	210000	0
6	1191	213000	0
6	1192	216000	0
6	1193	219000	0
6	1194	222000	0
6	1208	225000	0
6	1220	228000	0
6	1253	231000	3
6	1270	234000	0
6	1279	237000	1
6	1296	240000	2
6	1305	243000	0
6	1311	246000	0
6	1323	249000	1
6	1340	252000	1
6	1370	255000	1
6	1382	258000	1
6	1407	261000	2
6	1424	264000	1
6	1441	267000	1
6	1458	270000	1
6	1467	273000	1
6	1468	276000	0
6	1477	279000	0
6	1486	282000	1
6	1487	285000	0
6	1488	288000	0
6	1505	291000	0
6	1530	294000	1
6	1555	297000	1
6	1572	300000	3
6	1573	303000	0
6	1574	306000	0
6	1591	309000	0
6	1616	312000	2
6	1641	315000	1
6	1666	318000	2
6	1696	321000	0
6	1724	324000	4
6	1733	327000	0
6	1747	330000	0
6	1759	333000	2
6	1760	336000	0
6	1761	339000	0
6	1786	342000	0
6	1824	345000	3
6	1836	348000	1
6	1853	351000	1
6	1870	354000	1
6	1871	357000	0
6	1880	360000	1
6	1889	363000	0
6	1914	366000	1
6	1915	369000	0
6	1940	372000	2
6	1954	375000	0
6	1974	378000	2
6	1975	381000	0
6	2000	384000	1
6	2030	387000	1
6	2039	390000	1
6	2051	393000	2
6	2060	396000	0
6	2082	399000	0
6	2094	402000	2
6	2111	405000	1
6	2128	408000	1
6	2129	411000	0
6	2143	414000	1
6	2155	417000	0
6	2172	420000	2
6	2186	423000	0
6	2190	426000	0
6	2207	429000	2
6	2208	432000	0
7	7	1367.838549328139	1
7	18	1961.639718745621	2
7	23	2269.779789476922	3
7	38	3706.809812082018	4
7	43	4032.423545593245	5
7	48	4352.253808598596	6
7	50	5147.642119742118	5
7	58	5546.605934938403	4
7	66	5981.421712131135	3
7	75	7700.653352369603	2
7	80	7712.710084042654	1
7	83	7858.17143552665	0
7	107	12757.6931802049	1
7	115	14978.976704720292	2
7	118	16069.199776836211	1
7	132	16713.447668741994	2
7	140	18755.139329645874	1
7	144	18791.102900129445	2
7	160	19415.042536118462	3
7	165	19754.93476267057	4
7	173	20179.618316393352	5
7	175	20446.810676995579	4
7	184	21808.968305737213	3
7	192	22815.370798309226	2
7	197	23114.269978159676	1
7	205	23477.99543104582	0
7	225	30105.358544738196	1
7	228	33743.315817014502	0
7	243	36658.825738294604	1
7	246	40300.142428338829	0
7	261	42273.035763545718	1
7	269	44085.210831048856	2
7	272	45544.213470046346	1
7	286	46226.136667789945	2
7	294	48721.194647293234	1
7	301	48872.284885407728	2
7	309	49190.192810222619	3
7	314	49441.270582106056	4
7	321	50234.285695945512	3
7	335	50802.265992358255	4
7	344	51434.112069666776	5
7	352	52378.050922606077	6
7	354	52678.192463134812	5
7	362	53146.185229519819	4
7	367	53424.858172368693	3
7	379	54231.858200175549	2
7	387	54788.47415415255	1
7	395	56074.018405975478	0
7	410	58276.031252427667	1
7	418	59106.438934953014	2
7	426	59479.216078532634	3
7	429	61377.352338328761	2
7	443	61936.34367295344	3
7	446	63185.132737665451	2
7	454	63543.993511155985	1
7	462	65764.056114079131	0
7	477	67301.39440914141	1
7	485	67711.182106126779	2
7	494	69397.634297205064	3
7	502	69731.14650174036	4
7	510	70097.485226215714	5
7	518	70629.431806681828	6
7	520	71290.020000235125	5
7	525	71553.60593679447	4
7	537	72449.363574493909	3
7	550	72745.624737589813	2
7	554	73009.083665533935	3
7	558	73304.05932327426	2
7	569	74338.348426817366	1
7	578	76903.485064951073	0
7	596	87557.973844685255	1
7	605	91008.510641697131	2
7	607	92014.796815353116	1
7	621	92736.626917874107	2
7	633	94695.555994364766	3
7	638	95026.919943820468	4
7	640	95150.302246045454	3
7	649	96262.888820779688	2
7	662	98316.679057332386	1
7	665	98377.456218460434	0
7	669	98437.197880922102	1
7	688	101175.302088498104	2
7	696	101730.170762443099	3
7	698	101856.31603741313	2
7	707	104861.435032335806	1
7	716	105871.431211094207	0
7	736	124894.936073603128	1
7	744	125690.7196652134	2
7	747	128482.059347003911	1
7	756	129070.733156474174	0
7	770	129740.918200270266	1
7	778	131557.323200718151	2
7	787	133251.789970066607	3
7	789	133698.82964850663	2
7	798	135562.127101059869	1
7	815	136204.889904547872	2
7	820	136537.751117806629	3
7	822	137049.554498113896	2
7	837	138301.897281761719	3
7	839	139611.667507698514	2
7	847	140174.892205210889	1
7	861	140922.765036630909	2
7	864	141294.163716956495	1
7	873	144395.619784820261	0
7	887	146464.264674790718	1
7	891	150077.263940180122	0
7	905	152440.715516180294	1
7	917	155117.462511940793	2
7	922	155430.309336526635	3
7	925	156066.416482257844	2
7	933	158074.818906506452	1
7	941	158957.859387724425	0
7	957	162568.854559565808	1
7	966	165742.302447429384	2
7	968	166729.530808593346	1
7	983	168149.474951228892	2
7	990	169467.872676234504	1
7	994	169606.321924490622	2
7	1008	172086.593962481466	3
7	1010	172319.589197981496	2
7	1024	173006.352510896825	3
7	1026	173119.266437313537	2
7	1035	175430.624119288004	1
7	1043	176994.398349971001	0
7	1058	179983.878098084664	1
7	1062	183031.758418128339	0
7	1076	185512.435757119696	1
7	1085	188362.156458540467	2
7	1093	189587.087808726937	1
7	1097	189751.916403739124	2
7	1110	190390.594383553003	3
7	1113	192062.73955214652	2
7	1127	193215.377768801079	3
7	1129	193505.856083227338	2
7	1137	194342.121194068214	1
7	1151	194927.959328043251	2
7	1154	196963.810428603359	1
7	1168	198946.934279926749	0
7	1172	199048.608427329785	1
7	1180	202463.2049276241	0
7	1201	224379.851727467069	1
7	1213	225107.560434828263	2
7	1218	225434.735138166553	3
7	1221	228495.769472516823	2
7	1226	228652.826224282314	1
7	1237	229246.679900719381	0
7	1251	230683.965769229927	1
7	1260	233515.354463871581	2
7	1268	233782.816678905824	3
7	1271	234824.524947096944	2
7	1280	237053.757134241596	1
7	1288	237729.676930284566	0
7	1303	242430.75490038406	1
7	1312	246074.290877925053	0
7	1316	246096.574263285563	1
7	1330	249554.425670483098	2
7	1332	249663.291989605215	1
7	1347	252897.784346069199	2
7	1349	253052.813377458295	1
7	1366	254836.338624662561	2
7	1372	255116.342065440715	3
7	1374	256216.166490385111	2
7	1383	259040.551431007372	1
7	1396	259370.829596106379	0
7	1400	259623.733794223569	1
7	1414	261865.074038369146	2
7	1416	263241.675502651334	1
7	1431	265156.161324558279	2
7	1433	265423.193476421411	1
7	1448	267434.168498001846	2
7	1450	268217.999098129303	1
7	1459	270812.930099454143	0
7	1475	278600.956257416392	1
7	1478	281675.806242253265	0
7	1495	289000.363305574444	1
7	1503	290318.924622568976	2
7	1511	292240.233993897835	1
7	1515	292489.244588199729	2
7	1528	293112.607279751671	3
7	1536	294417.279107347096	2
7	1540	294526.908522448888	3
7	1547	296780.231067834058	2
7	1552	296874.569689314158	1
7	1564	297927.664221838651	0
7	1584	306312.587159382016	1
7	1589	306593.552156453746	2
7	1592	309808.96245784413	1
7	1597	309917.149717125684	0
7	1614	311163.048373669537	1
7	1623	312430.789758263784	2
7	1631	313425.460491846633	3
7	1633	314402.904963880092	2
7	1642	315819.181359247931	1
7	1650	316654.625785689261	0
7	1664	317283.779961068158	1
7	1676	319024.745611104665	2
7	1681	319349.719440320215	3
7	1689	319903.521947220482	4
7	1691	320949.846351480172	3
7	1700	322774.444103925303	2
7	1705	322967.830455371937	1
7	1708	323026.786110525819	0
7	1731	326486.589198644292	1
7	1740	327491.474553711861	2
7	1742	329818.392609158199	1
7	1751	330929.956699352326	0
7	1768	339304.126723482602	1
7	1779	340606.171402049715	2
7	1784	340899.970615609732	3
7	1793	342508.388027515113	4
7	1795	342621.943434148322	3
7	1803	344306.885082069	2
7	1808	344311.877616234785	1
7	1826	345171.723369206907	2
7	1828	346587.428289294848	1
7	1837	349451.702275053255	0
7	1851	350117.657103971018	1
7	1860	353444.234479245627	2
7	1862	353552.373403754231	1
7	1872	357611.573155210452	0
7	1887	361824.03050607169	1
7	1890	365095.28358136483	0
7	1907	365727.523261399794	1
7	1912	365996.30332263572	2
7	1916	369402.838829537289	1
7	1921	369482.447474009765	0
7	1938	371331.708718742709	1
7	1947	372308.544731391057	2
7	1949	374723.965084432954	1
7	1958	376102.311379901408	0
7	1972	377417.602343291556	1
7	1976	381153.228753061703	0
7	1993	382360.762720136471	1
7	1998	382663.01463944941	2
7	2006	385918.312583256682	1
7	2013	386165.431558404729	2
7	2018	386474.062891219781	3
7	2022	386536.55456212575	2
7	2034	389889.158063675283	1
7	2043	390296.098155729151	0
7	2058	395410.948905656778	1
7	2067	396244.18857479213	2
7	2075	398777.282075151513	3
7	2077	398916.932260519621	2
7	2086	400496.358895716812	1
7	2095	402261.126544154455	0
7	2109	403546.189749017628	1
7	2112	407074.443852852772	0
7	2126	407724.34227241888	1
7	2130	411370.988387893042	0
7	2145	414005.415866520525	1
7	2153	414993.444993696439	2
7	2156	417719.064408390991	1
7	2161	417775.748841110014	0
7	2182	422931.95692844333	1
7	2188	423257.100667818171	2
7	2191	426725.539714838995	1
7	2196	426867.97361920781	0
