version 2
run QueueMeasurement-107-20170109-14:19:52-6540
attr configname QueueMeasurement
attr datetime 20170109-14:19:52
attr experiment QueueMeasurement
attr inifile queueStudy.ini
attr iterationvars ""
attr iterationvars2 $repetition=107
attr measurement ""
attr network controltower.SimNetwork
attr processid 6540
attr repetition 107
attr replication #107
attr resultdir results
attr runnumber 107
attr seedset 107
param SimNetwork.a.parkingLot.parkingDelay exponential(45min)
param SimNetwork.a.runway.landingTime exponential(5min)
param SimNetwork.a.runway.takeoffTime exponential(5min)
param SimNetwork.a.runway.throughputCheckInterval 16.667min
param SimNetwork.wg.interArrivalTime exponential(16.667min)

vector 5  SimNetwork.a.runway  landedThroughput:vector  ETV
attr source  landedThroughputSignal
vector 6  SimNetwork.a.runway  tookoffThroughput:vector  ETV
attr source  tookoffThroughputSignal
vector 2  SimNetwork.a.landingQueue  queueLength:vector  ETV
attr source  queueLengthSignal
vector 7  SimNetwork.a.parkingLot  parkingOccupancy:vector  ETV
attr source  parkingOccupancy
vector 4  SimNetwork.a.takeoffQueue  queueLength:vector  ETV
attr source  queueLengthSignal
vector 1  SimNetwork.a.landingQueue  queueTime:vector  ETV
attr source  queueTimeSignal
vector 3  SimNetwork.a.takeoffQueue  queueTime:vector  ETV
attr source  queueTimeSignal
vector 0  SimNetwork.wg  responseTime:vector  ETV
attr source  responseTimeSignal
0	1342	75259.629179401806	22255.870628507
0	1364	76038.276500849159	9142.7614829571
0	1372	76188.961257969792	10061.683319362
0	1377	76339.851233252485	6457.0909197714
0	1395	77058.791856641529	5178.9729870795
0	1412	78311.367694163212	4786.6691033868
0	1422	78495.220905381458	5180.458494741
0	1427	78936.665059383426	6865.1764076835
0	1433	79380.309608707011	4180.6230810715
0	1438	79598.017548694046	4064.272915015
0	1456	81089.074334014877	4252.2522734764
0	1469	83337.971289782053	5970.847187898
0	1474	83620.351491678894	12390.635020429
0	1543	90245.154814557579	2443.839968881
0	1551	90450.844025677722	3965.673140245
0	1556	90457.609473916242	2248.5250712969
0	1561	90458.96855074687	3626.2564023847
0	1579	92168.305902898278	3818.6508469389
0	1591	93776.863707917382	14177.192906583
0	1596	93863.006407515453	5513.2683181095
0	1617	95393.092023352233	4868.1841207062
0	1664	97496.458803072799	3203.7534562026
0	1679	98329.274124806033	1792.5875453848
0	1687	98949.882297591406	3738.6643280013
0	1698	99324.690204454871	3449.0180486035
0	1715	100232.199672012204	3724.4982986684
0	1733	102154.217153136796	3393.7803294536
0	1753	103216.516966642623	6453.0677402297
0	1775	104395.209435129278	4796.6889143281
0	1784	105749.637629866246	2606.7588355114
0	1793	106648.666730436986	5766.4684695484
0	1810	107895.681968203224	5294.5727678295
0	1820	109098.809448863205	5556.3303250693
0	1886	115186.878188208606	7704.8293510876
0	1904	115812.154562767968	3686.2370910844
0	1913	116025.685053908377	3121.6482723948
0	1924	116388.749602120439	4733.1337830613
0	1951	117777.603551605008	5375.8479195484
0	1957	118010.93081088995	4221.0002375949
0	1978	119630.516151515086	3434.3761315554
0	2038	123419.892054297494	8490.7967204298
0	2043	123455.002514181366	7254.0270420088
0	2048	123742.772134011361	4917.710671916
0	2060	124273.744699418507	4686.3836953602
0	2065	124323.408177823719	9256.4320080875
0	2070	124525.812906638232	4741.1218089935
0	2075	124533.76565102971	5718.7467311183
0	2084	125121.79455199493	5173.2651611894
0	2096	126054.046809627962	9617.9985701747
0	2109	126791.499937408282	5629.7930631496
0	2179	129522.61089658731	3752.5781722911
0	2187	129637.883401385319	2397.2743812469
0	2200	129856.653682987211	1642.4986743493
0	2230	132584.797621667693	3397.1821409974
0	2235	132607.804868181964	5574.0962223309
0	2255	133862.378026328825	5587.817969194
0	2261	134078.595103666599	6535.299044783
0	2273	135034.169440123402	6336.5751825085
0	2279	136147.956960589684	6040.1377091691
0	2320	137823.538606230635	5016.2114979789
0	2329	138285.765898391989	917.65411693615
0	2342	140670.193881691835	10557.805517236
0	2347	140774.782119477889	11178.579377012
0	2376	142749.889869728795	6275.7572655107
0	2381	142924.465531540161	5935.6435175512
0	2390	143231.37453810639	5792.2006783817
0	2402	144669.657766448112	3757.0536066988
0	2425	146684.947501351244	5284.5224986479
0	2445	147656.591724729336	2645.8268282652
0	2487	149333.469222762458	4689.6065612607
0	2495	149440.369782274327	1040.2147557175
0	2512	150407.818775448312	3616.7038344127
0	2523	150831.635674907851	2424.6781066109
0	2603	154167.802403944318	5757.5380793396
0	2633	155146.771928387817	4577.4624623937
0	2638	155182.167881990547	3498.9241037302
0	2643	155521.265140926189	7879.481229026
0	2654	155879.323670018923	3854.0929670123
0	2668	156073.019547813928	4030.2443303321
0	2673	156632.90085296395	4829.0679006133
0	2678	156654.237411784771	7276.8315358815
0	2683	156736.976668159209	2566.0285400187
0	2692	157443.077684851791	3250.3004078922
0	2700	157848.101367581415	4190.8367738401
0	2732	159881.906423858886	8869.4998597869
0	2737	159904.379075339244	4041.6178536465
0	2746	160024.761326421514	1274.621793167
0	2761	162780.905746172598	3892.2949349384
0	2805	166526.033093546221	6510.753032562
0	2825	167598.710277880813	2288.9141508351
0	2830	167873.465963825474	4007.7329290986
0	2870	169445.316956809649	6661.9269806092
0	2875	169614.439429291333	17274.194789271
0	2880	169831.742336683092	1764.7914860979
0	2892	170708.984389938702	3956.3634502029
0	2906	171719.646323506022	3001.7694330353
0	2932	173677.186934017856	7832.2625534391
0	2941	174166.355278318279	5761.8681498751
0	2958	175450.193574768733	4789.1304549668
0	2987	177032.804816092759	3805.3217552424
0	2995	177721.596126561377	2937.626411672
0	3014	179186.163479961161	6731.3763172069
0	3034	179934.786697881642	4109.0789077611
0	3079	181936.761097401983	3073.0427677934
0	3084	181959.698522771082	1959.6673943096
0	3099	182572.346936261667	6516.8169880729
0	3104	182751.270792401686	4089.5162774252
0	3116	183257.035290535481	4808.0251725959
0	3126	183481.359922582881	3125.7851017066
0	3152	185811.203114059215	5099.6176904316
0	3187	188367.413678920308	2765.2113209729
0	3203	188772.445315503605	1544.2630187446
0	3211	189000.315184225579	5993.4973267965
0	3220	189116.149355160739	1584.4880557777
0	3228	189862.061909233182	4758.1433844268
0	3262	191659.363153623125	3901.7307774693
0	3270	191955.755773442423	11130.141546409
0	3281	194561.203997554424	6136.3358733601
0	3298	195455.923299338587	5332.4586182524
0	3320	198101.336411421786	6882.1533861524
0	3359	200809.524238936963	1506.405825948
0	3368	201162.647195070796	3522.2809887296
0	3383	202327.171037037408	11516.766564693
0	3388	202401.136139663894	6007.3855479849
0	3393	202440.270715519381	2996.2466691317
0	3410	203492.560091931625	8518.6557364924
0	3427	204685.840932071404	1831.7769342797
0	3455	205697.01698548525	6141.2357145028
0	3461	206929.571013441702	3203.453062377
0	3503	208998.843500538556	3942.5389013739
0	3524	210533.785976339544	3243.130474794
0	3532	210928.885294342693	5875.1731228799
0	3544	211675.157309961128	3277.2699648935
0	3572	212679.514499665476	5677.2667421194
0	3582	212835.232022565984	1671.8744940271
0	3594	213241.483550135415	4871.2534781923
0	3607	213992.358436411418	4379.457684981
0	3641	215231.854757197073	1707.6683964047
0	3646	215595.537725572732	3304.0677561237
0	3680	217130.64729965291	2347.1737752852
0	3694	217587.742136504844	6285.8105867361
0	3704	217806.218173440867	3138.9783566256
0	3747	219725.915337756289	3685.2820615479
0	3758	220111.380504551068	2254.9241321514
0	3763	220675.099157109333	7784.5352760738
0	3772	221488.080267066288	3530.0551122429
0	3790	223285.176537885627	4136.1929222513
0	3831	226048.513291311158	10440.735218677
0	3836	226090.044639358019	8713.89454128
0	3841	226334.962397524212	10591.775852458
0	3858	227283.451838588068	5002.142891178
0	3869	227637.635793117896	2790.0085784552
0	3946	231081.500954627925	3085.0914330914
0	3994	232784.523289365338	9313.7739829611
0	4000	233206.994201686268	9709.2241993264
0	4005	233321.067679406555	5843.4424286396
0	4010	233674.547283228439	4291.2777170455
0	4018	233915.650695737103	7541.7270544058
0	4029	234575.913235064656	3557.9380362309
0	4037	234754.23051302841	4385.2644357439
0	4051	235037.715343371869	5260.0020682782
0	4056	235325.820732712	6669.7959009346
0	4065	236278.692160114046	7141.0264474526
0	4070	236311.954464405873	18453.262060612
0	4075	236448.618559276932	5007.8194789262
0	4083	236762.292509337004	2920.749240518
0	4130	240727.124143257043	917.15561663172
0	4139	241445.521484884186	3364.8404385553
0	4144	241793.63704293796	10694.031677722
0	4191	245123.59965534553	2005.0855026322
0	4199	245245.509804988628	1711.5225800968
0	4208	246126.421563465357	11542.723469073
0	4222	246946.13118546544	6768.5192408039
0	4242	248287.308456451238	7827.086670894
0	4247	248563.51698790497	5026.3144288642
0	4256	249436.628534646145	3265.0277817238
0	4292	253546.177593703143	1210.2007414742
0	4309	256041.679101676371	9479.6980121856
0	4319	256531.741098116247	4892.2832005207
0	4329	258541.395235325046	15208.695008032
0	4337	258553.595133231645	5433.7759863473
0	4363	260909.97915838503	2163.6605306262
0	4381	262700.874408795842	2970.8772505395
0	4390	263847.661748654706	8453.0154200098
0	4408	265503.903741459132	3977.3751138033
0	4459	268994.402862852267	3026.4592279353
0	4488	270210.437315760703	1955.8264902475
0	4496	270725.362043789101	3890.1544738497
0	4501	270726.594986717025	6662.1058366664
0	4524	271850.566037779058	1810.2033266571
0	4535	272282.795864824078	3053.8829484056
0	4543	272790.985690325613	5313.5252424754
0	4553	274747.985908842649	8621.8708310553
0	4590	276136.67363011915	5392.9128660254
0	4601	276605.177191000601	1251.0009383063
0	4641	279849.463155856272	8275.5344570388
0	4662	281451.382999685519	5199.2067537947
0	4667	281479.851666982003	5297.920437079
0	4672	281804.118399151469	6015.5425284693
0	4684	282890.622785151817	4896.7200767888
0	4693	283623.536676905702	6722.3004749044
0	4750	286623.419909249715	11409.486099285
0	4759	287236.733799405728	7630.3363868687
0	4769	287709.358881190193	2861.4036134571
0	4778	288136.89854220453	5189.4266475558
0	4783	288225.215832458873	2799.059246783
0	4813	291345.135575817711	4712.6081712213
0	4846	292376.381338923004	8688.4174239488
0	4854	292496.396172403021	6829.2265867282
0	4859	292507.795408735819	1904.0313962793
0	4879	296797.838790384136	7302.6646114051
0	4896	297974.893677149847	6446.7657788987
0	4922	301144.106539477531	12879.34754167
0	4927	301188.673866949243	4808.6852165444
0	4932	301417.182545861517	4498.8651058581
0	5022	306417.432284953137	7950.4861226314
0	5044	307641.171027492924	4547.2298240589
0	5049	307965.064455791615	5168.2111930656
0	5064	308676.248258697401	5257.3552516345
0	5120	311159.608204588431	7006.1924242265
0	5128	311286.791594218423	8402.9965605095
0	5141	311678.424970461996	8402.3962216583
0	5153	312102.362468088971	20124.937762115
0	5169	312188.229712482725	6666.1166485665
0	5174	312256.303929089401	5681.7942914599
0	5179	312321.921708667066	3853.7892069163
0	5184	312339.65113252813	3473.7044468266
0	5192	312604.863415912201	2319.8451630386
0	5203	313153.02852058466	4365.6905348923
0	5211	313355.062833812284	4727.4886444679
0	5230	313779.142568001511	2528.9028265524
0	5244	314425.44352864064	2375.8007866561
0	5249	314440.397268991954	4407.6896276177
0	5274	315955.529051474874	2226.274705508
0	5283	316109.665414281805	11901.457217369
0	5300	317549.714955163965	2486.1300574328
0	5310	319519.297993617107	6189.257344898
0	5318	319720.151288212478	4357.0138476772
0	5348	322033.949611226285	1102.707656281
0	5353	322107.618222741564	9679.7547634678
0	5391	325994.213559779935	3064.986487707
0	5460	329126.266255914497	3772.5714137418
0	5473	329704.065774336043	6729.7561440243
0	5482	330122.489227434787	12827.564635488
0	5506	330685.32781171296	4713.9552493959
0	5512	331306.965699652617	4137.0592412948
0	5517	331465.882198408327	4662.1192599107
0	5522	331496.718964752043	4591.2634589824
0	5545	332444.732732302534	5247.5789751991
0	5560	333221.490519746194	3277.8649999341
0	5574	334343.797217875791	5351.7030508476
0	5611	336468.608649673955	9992.5160640996
0	5616	336491.23375927008	6309.0586830083
0	5627	336882.288352637414	3893.6474998529
0	5646	337681.694374318185	16316.605400936
0	5657	338145.424884173414	6327.2339320021
0	5665	338324.304012382094	4576.3715894558
0	5675	340440.992372883083	3892.4055691811
0	5739	345720.530389758933	2635.3890997786
0	5744	345921.867508882978	2210.4281714608
0	5753	346088.870679845449	9454.5255304942
0	5761	346168.827779143404	11376.135381535
0	5772	346703.655745689312	3577.9085572281
0	5786	347685.764444257858	3177.6082363442
0	5803	348686.608877265183	11018.645514633
0	5812	349201.011013102418	4249.4631361226
0	5823	349675.337126646941	13948.286248891
0	5832	350035.758223495748	4834.8296030237
0	5845	350744.921042504683	4294.6818935945
0	5862	351476.136112976474	1749.8606383852
0	5875	353339.793920775549	5463.7108065497
0	5892	354077.446701733562	3085.8134260799
0	5931	355223.280159714087	1204.004587795
0	5946	355801.245517847119	3616.6886422172
0	5982	356537.872466014383	1393.4352871885
0	5987	356636.233890821856	1729.3830945558
0	6034	360317.655528088909	5681.8253145453
0	6053	360890.543465152078	3896.5600638337
0	6059	361009.553507093983	4915.0016452713
0	6064	361055.170932034491	5246.5018362049
0	6100	362245.567378905767	1101.9848900889
0	6105	362586.09031050292	7778.9014396122
0	6125	363927.917347369266	6864.2637654085
0	6131	364020.507627751144	2851.6845191691
0	6139	364552.340281095749	4369.7321017367
0	6151	365348.172989492758	9236.2240376876
0	6167	365917.565148818602	8284.6353544497
0	6180	367014.214134545267	4111.0447780096
0	6193	367320.089199878636	8415.4863493988
0	6198	367441.924810603232	2137.7575373331
0	6216	369295.465045477039	7873.0908500254
0	6234	371122.015381247234	4290.4064252981
0	6242	371811.320701413598	3118.4294647783
0	6274	379649.750616181311	5718.5907824762
0	6291	380581.484716288296	3599.287331717
0	6310	383456.114573656476	13895.707514643
0	6321	386169.820307665028	6187.8719420516
0	6338	387959.802395926635	5911.4995230716
0	6373	390954.404084905998	2647.3504658739
0	6383	392050.445587632615	5178.3908415686
0	6403	393568.860942721175	4747.2452095703
0	6417	394106.128231220342	4053.0788314437
0	6446	396996.978947016085	3653.2924086235
0	6468	397834.544203517252	2771.5383921328
0	6486	399076.010025301363	3862.771763455
0	6502	399495.327905984009	2582.8754626509
0	6511	400054.126607369164	7143.2577642441
0	6519	400338.60174682035	1547.9688209318
0	6547	404300.095164705424	6898.3324770681
0	6597	406616.532405731726	7535.9707843196
0	6620	407334.314030542623	3897.395601975
0	6625	407507.852887035377	2728.3660425351
0	6634	408777.883398053048	2733.4753429215
0	6643	409416.167196108966	6408.9634398244
0	6684	410983.253789192902	1580.435924908
0	6693	411301.79198810461	5678.7088222514
0	6749	413296.427693310377	7973.0654691278
0	6754	413386.279860816693	3808.5074926548
0	6766	414289.14737702305	4049.7962666541
0	6776	414472.481706622628	7709.5865248939
0	6784	414649.510355487796	2385.5656998787
0	6799	415127.891510270529	4503.4479599989
0	6804	415221.698330069634	10279.655156773
0	6809	415416.825261666933	3988.9738001934
0	6814	415422.703548603412	4061.8844739179
0	6841	418724.858373674477	428.34749201147
0	6854	420631.336290623247	8119.3594333981
0	6879	421775.703819082892	3466.814176453
0	6887	421945.942182616398	10707.340826589
0	6899	422551.514671529872	2044.5344676778
0	6909	422893.976292889347	8838.1443830982
0	6918	423700.08464474428	2973.79715627
0	6953	426172.672311196177	1223.5354175427
0	6969	426574.851756002582	4167.8029758633
0	7004	429160.205032500054	1741.4371829981
0	7018	429711.213264294517	4555.8372677662
0	7039	430008.420307896026	3784.0900765032
0	7053	430316.188874008311	2524.1039277162
0	7065	431018.858410029073	1295.8441337076
0	7070	431097.206829383956	2749.4259869647
0	7078	431387.304922204039	1815.952585936
0	7103	434398.117725900033	9861.7214956766
0	7113	434568.541085727359	4655.068029572
0	7139	436434.92149493552	2885.1555611789
0	7147	436949.59530535048	2016.9194722526
0	7169	439713.294479513521	7916.9212184505
0	7174	439844.900498804394	4433.5382094711
0	7191	440857.146846438452	1770.5218210137
0	7226	443819.932906431572	3863.4171363507
0	7280	446712.803919350896	4132.0100138428
0	7293	446935.983391408299	2796.1445385779
0	7322	450107.200813119195	4195.9282042572
0	7327	450311.150790870026	4794.7614054478
0	7332	450320.132423132587	9043.4247145006
0	7337	450511.316629748747	4678.0049817199
0	7349	451358.893973614082	10484.268683328
0	7357	451777.720192419387	5110.1331223324
0	7371	452427.367627544087	3653.6726372572
0	7411	454397.504603976127	10010.377012374
0	7447	456394.578096709265	1790.9351836136
0	7455	456616.22259090258	2218.739835917
0	7463	456836.609821723003	3086.1723174127
0	7471	456879.394734774545	2527.2628411609
0	7497	458074.486928281054	6638.6767933886
0	7508	458380.540451942642	1225.2092752749
0	7563	462082.432385699332	8089.0131841217
0	7568	462138.757346851817	9520.3702705984
0	7573	462326.941353912988	5133.7331505498
0	7591	463330.660694410878	4714.3180087829
0	7609	463954.511391830364	4695.9386202079
0	7618	464295.785917216709	9296.2082594874
0	7623	464814.312355986839	6496.642223833
0	7632	465861.635360440079	3090.5138254552
0	7666	467595.673455158842	7389.1754088891
0	7683	468722.004521386347	2165.6930516048
0	7692	469273.492605620858	2736.9977317061
0	7708	469555.308200613943	3158.3251729635
0	7721	471009.76816563659	10749.967382983
0	7742	473109.753821824415	3712.9688422925
0	7763	473891.800953421166	10629.213148528
0	7772	474425.449189647675	2050.1051373574
0	7814	476462.372691048391	2075.8602176073
0	7819	476549.665967925747	5769.209396214
0	7844	477690.079874701517	2118.9134469216
0	7862	478200.634463591324	5436.8121781325
0	7875	478687.37139866479	3293.5909082694
0	7880	478797.184067407637	3180.0717311639
0	7885	478820.681232528423	10812.487947994
0	7915	481895.265389293645	3829.7906464954
0	7937	482963.610246980871	5871.6648597432
0	7949	483573.911714746934	2848.7343909297
0	7954	483828.421993856286	6859.6061795417
0	7998	487402.582872849225	1757.4204788525
0	8024	489799.248553433873	4587.4472861998
0	8033	490314.954759569635	1684.2141283657
0	8041	490855.904108224006	9381.302446823
0	8065	492143.660875712664	7921.738008462
0	8070	492168.939361914147	12562.633470272
0	8081	492925.966470121543	7043.780293741
0	8093	494099.062051382429	5316.2261262321
0	8119	496128.359846493135	4708.745915918
0	8147	497868.021982176686	1267.6596939059
0	8156	498172.18157382409	3595.7332986362
0	8171	499243.982020098691	6463.0744604011
0	8209	500119.385955543932	3440.4223666095
0	8214	500139.113016972072	1764.1932319482
0	8219	500216.803673937465	4244.1337275378
0	8237	502154.207426112934	3181.0973545126
0	8249	503078.785725546015	4156.4207619631
0	8257	503440.558792100427	20854.969625432
0	8270	503839.376882102454	4137.3267978425
0	8300	506288.830615982376	4826.825341314
0	8330	507763.917507707334	2005.5373459869
0	8338	507927.778270452629	4782.3430220461
0	8347	508231.291655942458	4169.1394437634
0	8372	509489.937053858905	972.98676167028
0	8412	511153.248232335519	5294.7759344394
0	8420	511257.382068699082	2417.7744713706
0	8433	511700.167456767581	1776.5544803933
0	8438	511897.610944723348	4565.6428878784
0	8447	512606.61248343708	2735.5857069812
0	8457	514127.098593086661	3920.7085216523
0	8492	517542.231042623724	10644.012032839
0	8517	518605.645513900461	1023.8097439089
0	8537	519780.021003954234	1652.2425736072
0	8542	519955.653783380689	8781.3358508156
0	8590	521638.088164337595	7034.997930462
0	8596	522209.226873982204	1488.0178275076
0	8605	523138.657819035006	7907.9554653188
0	8619	523313.191065984385	2247.7691007544
0	8632	523899.358957500034	5244.3897351536
0	8637	523921.418584883927	7619.4925886106
0	8642	523959.12107802124	2951.1935910314
0	8664	526449.149001213065	3283.2798008798
0	8703	528969.75645118833	2987.5199379441
0	8718	529588.630905618807	4359.3875339512
0	8737	530653.041034219052	3797.5294729004
0	8746	531704.469646571412	2597.531040337
0	8782	534107.734688420201	4357.0253874983
0	8787	534189.727937745719	7605.0877303083
0	8792	534291.831556234919	2325.9263275029
0	8797	534412.784140678548	6132.3885099381
0	8815	536122.239363484393	3477.8729481201
0	8860	538515.610771796785	2017.4062898734
0	8872	539261.385200169701	3699.8651690447
0	8885	539545.506884518932	3307.3351987736
0	8893	539632.853630758924	1979.4278094808
0	8908	541980.854999240066	20708.357012439
0	8917	542544.848841121157	5390.5246466612
0	8935	544381.570361132241	5481.3567488029
0	8952	545790.485715312288	3148.9302840819
0	8962	547301.498429528769	7689.0679731693
0	8987	548953.693938762762	782.82867142325
0	9013	550053.399195642077	4924.4426009456
0	9074	552309.47007670986	3862.9251500003
0	9079	552438.831543089464	2972.0345777179
0	9090	552779.183361491165	3029.4894795914
0	9095	552873.92044765396	1276.1168575428
0	9112	553383.330738481018	1850.9855334514
0	9121	554501.414467988437	4107.2159186816
0	9139	556192.855223281527	5771.8062248035
0	9148	557390.647819077819	5710.4123573815
0	9167	560712.650724715692	10620.657702305
0	9184	562000.289181692821	6794.1799936353
0	9210	563547.922157114674	1433.6391503658
0	9243	564844.741227647661	11928.692496956
0	9252	565099.297869610895	4048.5727173516
0	9260	565127.780073066771	1190.780876853
0	9268	565214.041716722592	6979.27701046
0	9285	566237.567982936154	4120.274506048
0	9296	566965.890523482787	3219.2516503917
0	9328	569603.227999326617	2690.8863213034
0	9357	571253.636827776193	3857.9552027396
0	9363	572228.317723137861	2126.8612406091
0	9372	573084.606055306305	3890.3629804384
0	9391	576117.047435372751	12150.534244104
0	9431	578231.473244880577	12790.038058254
0	9436	578709.117224487027	2330.8904659186
0	9442	579042.347194861547	5571.0973061213
0	9473	580476.328920543242	3754.7869678266
0	9488	582778.912017507236	5690.8412307934
0	9499	582992.29736749027	3310.3594365239
0	9542	584816.683048889732	1861.2253113529
0	9593	588036.952197025954	7616.7706270507
0	9601	588280.898586722987	9021.9487392871
0	9610	589444.371997306228	19025.797732687
0	9615	589506.749963496738	4555.3512165129
0	9623	589674.31030969603	6780.3137313607
0	9628	589799.137834984169	6728.0813482202
0	9649	590688.520688549052	6079.0093856894
0	9660	591195.740128712275	7339.5695506748
0	9675	592070.076847214338	8224.549595996
0	9775	596123.129227127597	11660.859863892
0	9783	596317.265768807356	4704.5596046668
0	9791	596659.29939422871	5980.0443284092
0	9803	597359.390599600031	3532.9974233496
0	9814	598006.729124760961	5872.0960432396
0	9823	598391.96757040478	6662.8420240118
0	9833	600152.885596063644	7819.4229930305
0	9838	600209.515478872947	7029.0456929143
0	9843	600518.952079294456	6356.1999355382
0	9849	601735.591388914994	7898.7997358148
0	9854	601807.222143652523	15326.000041316
0	9859	601874.153050452047	10535.629474921
0	9874	602927.368336232109	8925.9529838455
0	9936	606895.187880199383	4900.2926618611
0	9951	607370.986652973456	4452.1283091413
0	9978	608223.117472959426	5526.5005397664
0	9998	608854.531844304122	3775.2651370028
0	10030	609660.48389374995	2069.2511678524
0	10035	609774.614317293655	2412.6766424268
0	10065	610573.226293122789	2209.3244268354
0	10148	613595.47486186114	7718.7721571804
0	10153	613662.736412364338	5216.9876105771
0	10162	614112.081616951007	8036.4027324147
0	10201	616028.979141285134	7653.9755763072
0	10254	619108.64209587518	11468.631636595
0	10262	619318.211478564906	25082.092219728
0	10267	619423.326811161779	8916.6134304717
0	10272	619429.114486506528	9402.2585897616
0	10280	619769.116789653012	8685.1057360452
0	10288	619913.271820183045	8061.2895742977
0	10294	620132.239416524977	14211.663548602
0	10302	620930.730518391006	10204.579147305
0	10323	622433.542159611409	9447.7619083034
0	10340	623180.627182016915	14161.513971206
0	10345	623390.548478925261	12819.427105881
0	10354	624734.641062366572	14951.620824781
0	10359	624832.179784539814	9971.6621070875
0	10364	624864.241051511221	10929.036773794
0	10369	624874.507231249019	9236.3522591046
0	10377	624965.281736925436	14802.98406953
0	10391	626003.34268819882	11685.135179168
0	10397	626489.914006047372	10939.393527884
0	10402	626602.42306124201	9878.8718284233
0	10407	626698.815727119221	8598.2803122552
0	10419	627264.189971170762	6997.2313989199
0	10434	627843.800706175209	5833.4699104863
0	10462	628666.786484345637	1851.1801022988
0	10467	628992.799755280904	2022.9900489296
0	10493	630735.801159255362	2846.2532545855
0	10501	630931.005494846758	1020.0308558902
0	10518	631477.264351404592	912.32459060638
0	10531	633670.833823416016	8773.509456379
0	10573	635153.226366770508	1746.2543463707
0	10586	635803.16353872841	7935.128191177
0	10595	636925.245748362277	2508.9057044991
0	10612	637966.783770911217	3743.2595399481
0	10625	639219.678067650369	4094.0151536178
0	10638	639577.06797467058	5280.7698745744
0	10647	640438.564821014662	3037.9419437433
0	10655	640748.328994778238	9568.9280723853
0	10727	645203.259623389418	6213.8779212681
0	10732	645652.356539699511	2925.4814208602
0	10756	647041.531135155107	3553.4506592203
0	10786	648367.862522881638	4989.5641937171
0	10791	648435.520965636896	2472.523858118
0	10802	648978.288386676505	2470.2270522157
0	10816	649198.721273147011	2507.2410805985
0	10832	649995.40220561488	8797.2802934694
0	10868	652104.383709040127	5053.4069081187
0	10884	652576.958763200891	3165.8719784776
0	10901	653187.653013984142	2832.1312330889
0	10912	653401.394536093789	10603.10109559
0	10926	654013.114822216343	3277.2175682714
0	10934	654412.608235854764	5810.5571010245
0	10944	654721.285041017888	2727.5594916145
0	10952	654831.70430689513	10490.560952113
0	10973	656252.94200938133	2158.8458135968
0	11000	657055.292019918295	3829.6607028827
0	11039	658760.656607370117	3013.1584184408
0	11048	659015.361505978138	4265.5963663266
0	11053	659089.856126523378	16255.794402303
0	11058	659307.749472266057	1423.5165863061
0	11070	660154.651335667854	3770.8050982491
0	11091	660707.536860897081	8197.1186186053
0	11141	663676.296947638029	7946.9694196557
0	11159	663878.617326988495	4152.3354135346
0	11174	664141.532962189682	5942.1476634943
0	11190	665587.618410357511	8012.0035392625
0	11208	666230.493771467548	5134.6703609083
0	11229	666810.473258372404	3654.7624035918
0	11234	666823.542728490787	5643.1514833295
0	11239	666885.349329210231	6532.3974512465
0	11248	667143.938490449094	3818.3711368968
0	11271	669823.593370291615	7443.812555311
0	11276	669935.237445580866	2871.9140098734
0	11285	670631.889181015392	4170.3826216336
0	11319	672956.769257926105	5142.4756735243
0	11328	673070.320135590558	515.42620222611
0	11336	673936.955532472666	9844.1917697755
0	11380	677746.600230794207	13647.553405121
0	11397	678230.325801418757	1809.7122320745
0	11405	678660.710885244723	6087.3883672374
0	11413	679002.143732116581	1760.4369062868
0	11422	679143.616592590239	3475.3701236464
0	11433	679546.865978322419	3267.2472357488
0	11480	682405.69852291608	10859.230232479
0	11548	685426.074487320157	5545.6512272129
0	11589	686967.537131935946	7520.0891794714
0	11603	687934.281942364932	21850.321803681
0	11609	688237.594356571605	5684.690631093
0	11614	688287.520968516908	8292.2079250852
0	11622	688430.145394505334	5573.9662324351
0	11627	688438.665517459693	5778.8177607706
0	11632	688498.059182493997	3494.2720115806
0	11637	688634.477256044143	6371.2487011639
0	11646	689200.596336524341	11325.686429166
0	11651	689315.785938978069	4233.4485563257
0	11656	689401.740969874728	4107.2506297516
0	11671	690972.048820527981	7592.8481425327
0	11682	691081.11560352126	5341.6895451747
0	11715	692849.87613441788	11363.940396992
0	11732	693896.803508173819	3531.1336569354
0	11750	695533.748736530824	8972.4452194259
0	11798	697589.397168296417	4805.1811692002
0	11803	697792.984129380347	5282.9935944869
0	11808	698008.952295569447	1930.802763085
0	11817	698459.896848275998	5129.0645648174
0	11826	699098.324051857396	4424.9977750443
0	11834	699456.947675384213	7567.6084429082
0	11870	703419.364418444674	7126.4675199291
0	11878	703549.20432457488	1462.2724213561
0	11887	704212.959547768681	2622.070451966
0	11916	706709.427170215299	2451.2664385875
0	11921	706777.78083867933	3588.2542481958
0	11938	707419.166541705823	11103.450856094
0	11947	708351.965151918889	3312.3376507262
0	11964	709152.220267892898	2280.780595299
0	11972	709650.91746536411	13684.238093148
0	11998	711889.55884022985	2802.0435350254
0	12015	712940.896893470404	2618.3328163324
0	12050	715249.214830303329	3300.2281252792
0	12067	716092.762069244347	2002.437454604
0	12084	717941.857458999985	2044.1009646921
0	12096	718237.8423806768	6939.8125413565
0	12124	719231.223565177832	5738.1686293572
0	12134	719354.901731756081	5743.2755807739
0	12142	719829.39281015337	1589.6393376544
0	12153	719954.732380892456	1752.6535733401
0	12174	721710.532032396726	2561.9909793912
0	12205	723354.794768855395	7173.9579109011
0	12210	723483.331127230164	3539.5815994474
0	12218	723775.166331095273	2470.9427776992
0	12237	726894.666518978332	4694.1945839596
0	12281	730606.819098715263	9002.0741384527
0	12290	731659.924784622103	2805.2615586684
0	12307	732434.485894621813	7386.630127704
0	12333	734368.450363674431	5430.0064646228
0	12342	735647.013358593456	3824.0081602574
0	12359	736606.975557154356	9115.8995965186
0	12376	737666.384352209975	4672.9089201384
0	12411	740127.141536646205	3048.7432413861
0	12422	740668.965125591275	1834.9669916836
0	12436	741776.353657285558	5482.5874141178
0	12448	742255.857668082346	4346.3491870002
0	12468	743370.78074274509	13437.895678835
0	12478	743543.479458408943	2917.4108376344
0	12498	744651.996767815233	2430.5359509303
0	12522	747056.142814053728	2580.2530173864
0	12534	748261.249692236887	4627.2856858491
0	12556	749226.009351181466	16196.909466039
0	12584	750865.579693297223	7895.286577576
0	12598	751094.908280255198	2460.1822408943
0	12606	751761.242909511808	2259.4081120618
0	12651	754163.453842739756	14965.323899792
0	12678	755105.93050257614	4741.629055807
0	12683	755252.352962615108	9950.9308840084
0	12688	755328.020104620745	3204.7790522533
0	12693	755361.797110072741	1947.5183280606
0	12698	755469.787392149524	7483.3786377878
0	12726	756900.247131119404	6188.2625884673
0	12751	757671.272829028887	1520.1064140541
0	12766	758233.139307540461	4814.0362742729
0	12776	758586.028612040835	6252.3682231448
0	12784	758797.276323951075	2405.733384043
0	12807	760937.963149773631	3214.6024248638
0	12816	761906.088382958316	7876.4658137184
0	12849	764627.18498038113	7434.1911452453
0	12860	765358.483836502137	2231.5832808737
0	12893	766328.097288696166	9660.7866887619
0	12901	766707.650171215744	1264.7500221128
0	12913	767761.68380432491	3723.7615517991
0	12921	767919.855585225923	3356.3418311582
0	12933	768397.562516890929	9171.6627563034
0	12985	770631.820339983884	1997.3185245329
0	12994	771049.827838250103	5175.0447553863
0	13005	771474.317223728336	12867.779231463
0	13010	771537.526513771717	6099.5149077341
0	13018	771662.600006339529	1511.3233551944
0	13030	772407.300207461967	4427.2768975298
0	13035	772440.895366593157	4276.4603281154
0	13047	773277.592035523809	4314.863175937
0	13069	774791.141290676777	1732.9386937466
0	13095	776793.702917813997	1628.8872435509
0	13133	779043.74874798776	3660.0922647836
0	13158	780022.575533379629	9678.2673684709
0	13188	781427.842874187152	1282.7685695328
0	13197	782235.81969429636	3038.9629192517
0	13216	782712.551847138697	5272.4073247007
0	13233	783038.049703781058	2684.9216886548
0	13267	784533.384858712204	10236.905379682
0	13309	786192.686892562201	3515.1945796068
0	13314	786675.978868678484	8760.2825277306
0	13319	786708.713800938423	6860.8909820615
0	13334	787109.062611214803	4300.8332342971
0	13342	787783.126687941501	8952.2967904626
0	13370	788469.914860846472	10983.042097136
0	13375	788758.7334146668	4601.9990190479
0	13385	790025.13573173475	7758.4069750238
0	13390	790200.932663979763	6851.4077932307
0	13395	790383.607988211053	5015.5221308686
0	13400	790471.594704087496	6103.0499418262
0	13414	790817.864131912284	3308.9472598302
0	13449	792008.505408330222	3927.5953825712
0	13454	792014.217743813762	1454.6213347856
0	13483	793383.967666327544	2898.9612073408
0	13491	793626.031586284679	8125.7703716116
0	13500	794902.280213410875	2488.379326496
0	13506	795557.907036673914	4982.8195455819
0	13535	797997.143873110072	2163.8334039426
0	13549	798462.94691445531	1600.7730786336
0	13565	798947.283392047541	7387.0915295814
0	13577	799865.340695531994	6769.2839830056
0	13582	799915.020662681916	2870.8763708763
0	13612	802818.178189939532	1850.7038548817
0	13651	804659.508969955477	2084.046829029
0	13671	805540.521901097961	3950.9152147548
0	13694	807279.82756918967	2773.4461744846
0	13702	807617.919347126711	3405.8561900195
0	13736	808821.376760257423	3395.514441092
0	13753	809527.080777023134	1796.3180585735
0	13764	810124.582926148288	5175.4617192809
0	13769	810150.598673588873	6702.7879584131
0	13777	810811.039131883357	2910.3793779384
0	13786	811141.495210622852	2571.6261479682
0	13794	811775.522771580511	13290.226424076
0	13815	813504.109283493811	4081.1188329884
0	13840	814825.895272621671	8343.8439233033
0	13871	816052.650529062513	3367.0407625685
0	13887	818203.498227829548	2613.3310500593
0	13892	818382.129342664668	3727.8562742281
0	13897	818753.872888562855	5255.9114763135
0	13937	823592.506930162264	7845.5807028975
0	13999	826378.354996353899	2790.021452828
0	14004	826536.809044524601	12894.00786388
0	14009	826769.632812276327	1971.7959488454
0	14026	827800.692932085935	1967.8032695781
0	14034	827951.684964543642	6401.5026394579
0	14054	828739.223986167864	3883.5970407472
0	14100	830221.209651711856	2998.3736025348
0	14125	831328.049337785626	6686.0463238021
0	14136	831666.592794939234	8022.4181296232
0	14147	832395.82190171671	10368.430270803
0	14152	832429.121033544164	9747.1174876217
0	14157	832457.630258939709	4197.3458670237
0	14162	832786.741768530106	4167.3974481491
0	14167	832815.955712028283	2609.4147530891
0	14176	833593.418506679168	2905.7159017109
0	14186	835182.58190652343	5813.3135955794
0	14197	835709.372539314661	6678.1941370346
0	14230	839539.258537719507	2412.7564301968
0	14238	839855.64339599126	4407.9099646922
0	14256	841640.967612170482	10166.681222614
0	14281	842998.832784566657	5721.4146840183
0	14299	844804.097672406392	2420.1181100009
0	14325	846773.785614451164	6260.7116394272
0	14342	847057.44187517651	862.7088587513
0	14359	848549.563057205559	2699.7001662873
0	14374	849266.401192122008	6775.6316892541
0	14392	849893.199038607771	3074.7197516095
0	14400	849996.081756903285	918.70283835504
0	14419	852272.650756840305	3017.6772491766
0	14436	853942.694506782264	9274.254110844
0	14445	854049.548344090496	2245.3791968507
0	14495	856317.085168143019	8556.9090134591
0	14520	859209.432913817516	5138.7280898703
0	14533	859857.395772125164	5207.4351710307
0	14542	860232.201266553218	4550.6964059336
0	14547	860382.831395220369	3613.6257011761
0	14555	860758.697816313643	6559.7986790241
0	14579	865624.687655851837	13237.55886512
0	14593	866267.798468356432	7515.6447703782
0	14615	869054.389394569693	13997.089014162
0	14620	869197.753889973005	3661.0316173715
0	14654	871508.996557064013	3912.7296540897
0	14674	872709.152777553938	3101.1566302335
0	14682	872784.124133820428	3175.7104095696
0	14715	873831.475913067116	4357.9882342041
0	14732	874534.173056980401	1784.8813743658
0	14737	874724.062400379257	11849.769784267
0	14746	875382.65441606471	3415.7131043575
0	14771	876749.285466585264	3296.7864094112
0	14791	877826.993656690282	4710.8633952443
0	14808	878918.472980462962	3069.2615724804
0	14825	880011.885227965446	3064.3772957589
0	14843	881373.365706273807	7561.1280211525
0	14857	881592.727840181202	3881.5116678831
0	14867	881697.339950160699	6134.8207204719
0	14873	882030.035536741533	3159.676755319
0	14892	885131.620959600577	3546.2855776035
0	14928	886476.085135059331	1218.859357635
0	14933	886753.192187123235	3404.7535391488
0	14950	887470.301108168939	1965.5458895098
0	14971	889480.359082211695	9858.6209563898
0	14976	889659.63449359726	4082.8607520729
0	14996	891015.576037125319	4145.6392183209
0	15028	893448.007775743237	2658.7346456321
0	15065	895273.631323623906	4246.3012352547
0	15076	895759.463495103097	1930.7583109534
0	15090	896510.177255855242	2561.3047329568
0	15095	896595.754911696904	6888.5145828366
0	15104	897316.203758521506	2657.4738082005
0	15129	898139.271890368832	9622.785409886
0	15159	901720.763306525127	6244.1117616498
0	15164	901755.530543068738	1260.8427206048
0	15172	901816.246494421373	8681.9287276521
0	15181	902188.289659364491	4693.3133321764
0	15217	904012.516710093973	6647.2387755698
0	15226	904387.907682808866	3554.2694371332
0	15257	906041.745062413391	3021.2060728654
0	15281	906850.053660326048	3343.9360595391
0	15290	907071.250144760949	4009.2191190347
0	15298	907891.260445785497	3338.770839331
0	15342	911153.369799655909	5936.9374805112
0	15350	911218.968809942075	654.66364066312
0	15358	911654.135748641953	2593.4039668413
0	15379	913160.021419849541	8836.034295662
0	15384	913396.381707637031	2547.2793849741
0	15394	915196.118394223658	4541.3461839002
0	15409	919130.727307276123	12555.010542162
0	15422	919611.112982618399	13468.018644102
0	15440	921089.049706933424	8987.9861186861
0	15448	921389.421986759937	2598.3545868211
0	15498	923348.930027044492	1648.9682582077
0	15513	924320.015834648847	1926.462698823
0	15523	924494.431126604658	4387.7727510321
0	15540	925956.032661564529	1887.6814247314
0	15552	927010.170569585569	4690.2711361727
0	15558	927214.958326077179	5001.2077402591
0	15584	929775.061782835055	7362.7840265987
0	15601	930892.545445571068	5852.68935472
0	15617	932489.880145795972	3233.6730154444
0	15627	932868.773025694396	3499.2653654459
0	15654	935447.02323677818	3018.253627635
0	15668	938414.032088014571	4345.3505666691
0	15729	940623.506932928291	2207.3668774104
0	15751	941589.561271529159	10883.016156668
0	15756	941871.478558801802	1899.8456653668
0	15768	942375.230046086673	2344.5829761069
0	15781	942875.312577364386	4723.4003978576
0	15789	942950.025437975456	2330.5211572237
0	15806	943211.878079755209	884.09151121817
0	15814	943660.0009201267	5145.1379977164
0	15840	945316.846804879765	10598.772019871
0	15868	946949.392484920044	3166.9561064178
0	15909	947790.696648960646	6938.2664688069
0	15914	947896.972507754263	2127.9012574983
0	15923	948356.329508158823	9843.6822511612
0	15934	948611.928653395612	4148.9777884592
1	1316	73817.269808404084	1745.7811567042
1	1322	74382.489468008669	1067.7270573682
1	1327	74401.028137249335	876.32954647295
1	1344	75259.629179401806	59.942651766337
1	1352	75607.012497748165	73.267864069144
1	1397	77058.791856641529	221.96979610301
1	1414	78311.367694163212	944.24359227914
1	1443	79599.670801334159	0
1	1482	86485.170885432689	0
1	1491	87620.255163937672	787.54301557548
1	1499	87801.314845676579	0
1	1508	88304.03618973002	94.951787110679
1	1516	88349.655055959424	0
1	1524	88375.164429116984	25.426339711031
1	1566	90524.907902646038	0
1	1602	94292.705346870177	0
1	1619	95393.092023352233	181.87405376216
1	1627	95875.672155851325	0
1	1639	96687.245535885913	179.54416254209
1	1648	97036.871675778637	500.18509635741
1	1653	97318.005245694375	554.55601928148
1	1689	98949.882297591406	189.44547390821
1	1703	99598.520520801128	0
1	1720	100882.198260888575	0
1	1738	102601.109200373739	0
1	1755	103216.516966642623	73.638172287802
1	1764	104052.373971387865	509.89484759397
1	1799	107482.048837120969	0
1	1827	111655.61581905917	0
1	1843	113155.513933313649	1029.5964616301
1	1848	113273.362713581315	871.60708152469
1	1853	113565.694309012407	661.65752749882
1	1861	113789.930573295062	0
1	1888	115186.878188208606	257.78285434089
1	1896	115487.190171769837	420.2140020336
1	1926	116388.749602120439	192.60958216077
1	1934	116965.903326931172	764.92785475861
1	1939	116990.110895362154	554.06265590894
1	1980	119630.516151515086	815.49723160373
1	1988	119945.09568336611	1120.0342212707
1	2004	121491.554678356287	1904.193674298
1	2010	122161.739713661195	2377.0486160164
1	2015	122339.538401206743	2391.0090104012
1	2020	122433.145148104047	1271.4382738454
1	2098	126054.046809627962	284.01408533175
1	2115	127033.708645851035	0
1	2126	127694.971719947964	454.36269980955
1	2131	127992.750405577536	449.45434669394
1	2143	128409.996508737569	195.84150009966
1	2151	128929.378278661736	654.81822152695
1	2159	128967.369616796343	269.77535918143
1	2171	129306.880282870618	119.26480220034
1	2189	129637.883401385319	41.680658919741
1	2206	130107.819251420614	0
1	2218	131930.162294779347	1817.7739303238
1	2240	132807.32710825171	0
1	2284	136474.132604218101	0
1	2293	137210.82446006048	222.00244607151
1	2304	137463.562848048614	95.45106659278
1	2309	137471.324909443802	32.15104971913
1	2352	140912.604159749278	0
1	2367	141975.415492954208	574.99049025089
1	2404	144669.657766448112	25.795104946335
1	2413	145010.764896464119	0
1	2430	146791.114941035651	0
1	2447	147656.591724729336	14.807812829182
1	2456	148400.15502655687	0
1	2470	148679.77142224092	272.81385394402
1	2475	148763.526590440033	353.26226583531
1	2497	149440.369782274327	62.963906371022
1	2525	150831.635674907851	262.32620891377
1	2550	152448.38289100465	1435.9763269327
1	2555	152761.229406258507	1077.9856279982
1	2560	152829.307852114586	1025.4748997639
1	2565	152943.12827694275	917.89757393611
1	2571	153146.219748092757	1103.4445306109
1	2576	153217.575667607899	877.33102758759
1	2605	154167.802403944318	510.53781020302
1	2616	154701.672895257083	530.72476711657
1	2621	154919.057208766082	726.27993180654
1	2656	155879.323670018923	16.562448326208
1	2706	158750.139533254504	0
1	2718	159206.523528645852	317.91271741164
1	2748	160024.761326421514	9.481265437282
1	2766	162783.389976200413	0
1	2775	163865.73303472683	0
1	2785	165309.796127045752	0
1	2793	165844.924380578724	0
1	2810	166752.620939735849	0
1	2836	168066.950850585228	0
1	2850	168698.584643728675	294.09751528549
1	2858	168813.873173201617	95.996282730895
1	2894	170708.984389938702	47.921270136796
1	2912	172454.787162754234	0
1	2921	173369.718391267478	142.23533041712
1	2946	174783.969714889403	0
1	2963	175825.70779012054	0
1	2972	176055.529948188808	0
1	3016	179186.163479961161	737.15336202156
1	3021	179559.088878032981	897.33436305651
1	3026	179587.852130972147	724.13380136351
1	3039	180000.031128461441	0
1	3048	180355.574820876282	0
1	3056	180711.585423627577	0
1	3068	181398.665990300939	573.0517632679
1	3118	183257.035290535481	250.21743310642
1	3133	185103.918524806362	0
1	3144	185641.524326006127	39.321968058727
1	3159	187228.182296758969	0
1	3167	187531.661299383076	0
1	3179	188225.207331451503	467.57495529768
1	3192	188424.868124194345	0
1	3234	190123.464681086197	0
1	3242	190810.40447234485	0
1	3251	191219.183025269341	0
1	3286	194973.904355439232	0
1	3304	196393.750591679035	0
1	3322	198101.336411421786	460.97020508056
1	3331	199303.118412988977	0
1	3339	199444.024046387638	0
1	3348	200127.21334914742	571.43207816492
1	3398	202854.063997791684	0
1	3415	203726.117951064703	0
1	3433	205053.712171462809	0
1	3441	205069.541582413154	13.236983248531
1	3466	207002.247757546125	0
1	3475	207437.643433030026	146.98793148453
1	3484	208370.23007194309	0
1	3495	208535.474156298878	137.58681123129
1	3509	209612.900751430383	0
1	3546	211675.157309961128	511.79978142229
1	3552	212092.550113701384	790.61856393266
1	3574	212679.514499665476	388.04453021648
1	3596	213241.483550135415	350.91966909991
1	3609	213992.358436411418	468.172075619
1	3618	214667.239816815247	0
1	3626	214815.249614271429	31.776089903719
1	3651	215607.778072634068	0
1	3659	215960.691889059225	217.50534399293
1	3671	216113.262610680743	72.629334472315
1	3696	217587.742136504844	211.59203842687
1	3709	217856.456372399623	0
1	3721	218135.730246021411	277.03784222795
1	3729	218432.590709849595	474.56555502622
1	3749	219725.915337756289	576.93172212194
1	3778	222281.308947410078	0
1	3795	223470.749306404194	0
1	3804	224372.023286448188	874.25328408828
1	3822	225660.329481469895	812.70226680723
1	3846	226373.923641331333	0
1	3871	227637.635793117896	160.01054235097
1	3879	227996.409521536485	0
1	3888	228656.02483177744	0
1	3897	229137.665712661473	0
1	3924	230437.562693353433	1054.2931271705
1	3929	230738.790504707362	961.07722961371
1	3934	230804.413346500218	435.44726921572
1	3948	231081.500954627925	63.525755794128
1	3959	231450.250449127857	350.64508391169
1	3964	231650.650148656084	209.85106830532
1	4020	233915.650695737103	74.107426918141
1	4039	234754.23051302841	170.53241863584
1	4090	238080.681046328933	0
1	4099	239809.968526625323	0
1	4108	240177.611944661571	0
1	4116	240460.221785557221	0
1	4151	243118.514152713308	0
1	4159	243332.700227293169	0
1	4167	243533.987224891865	0
1	4176	244434.562932987691	897.36037394687
1	4224	246946.13118546544	774.53043254313
1	4230	247268.161592162397	706.18050267159
1	4263	251639.457897595532	0
1	4272	252335.976852228941	0
1	4281	253119.819146884383	0
1	4311	256041.679101676371	647.03277303144
1	4342	258746.318627758792	0
1	4351	259729.997158256365	0
1	4369	261526.528627655816	0
1	4396	264064.489150050592	0
1	4413	265967.943634916967	0
1	4422	266126.115077787309	0
1	4430	266835.207569939414	0
1	4439	267477.46044785018	0
1	4448	268254.610825513166	0
1	4465	269228.91291641851	0
1	4474	270040.362711121982	0
1	4506	270743.760764093768	0
1	4526	271850.566037779058	276.63733896164
1	4559	275213.933809965182	0
1	4570	275762.889425502182	408.71317280788
1	4578	275829.837281436828	41.261410754704
1	4603	276605.177191000601	423.24596109762
1	4611	276878.352632181461	626.17638629068
1	4624	278864.106915003027	1962.8707130017
1	4630	279133.451692022101	1139.5489836591
1	4643	279849.463155856272	243.06574331928
1	4695	283623.536676905702	676.06478225702
1	4704	284573.96249246448	885.99857749027
1	4719	285487.770447173871	639.81517944075
1	4724	285552.231279331343	126.07469365544
1	4732	285869.117384062654	201.94779838786
1	4761	287236.733799405728	604.20639480934
1	4788	288264.758997807146	0
1	4797	289495.174178979067	0
1	4815	291345.135575817711	741.37156336121
1	4823	291606.373611199427	78.245712948315
1	4835	292130.442798762878	153.018092789
1	4868	296379.988650404852	0
1	4884	296918.317440003459	0
1	4902	298466.946162321751	0
1	4938	302796.853262725989	0
1	4950	303108.774921287545	224.97988757864
1	4964	303911.861006232283	817.91980279825
1	4970	304107.776925611186	831.74817680754
1	4975	304110.992466944457	692.09945988153
1	4986	304226.075726910132	72.65994654821
1	4994	304459.137060129084	250.9288632163
1	5024	306417.432284953137	895.3192210369
1	5032	306862.953286077588	288.44364844808
1	5066	308676.248258697401	208.11575694668
1	5077	308990.70850964376	363.13432029941
1	5083	309477.663491470565	690.32550577816
1	5091	309653.493802924588	787.54711722308
1	5106	310444.620777926	411.91313655176
1	5111	310473.689879881816	188.67162700819
1	5130	311286.791594218423	36.551852769338
1	5155	312102.362468088971	52.719726104468
1	5194	312604.863415912201	176.99995663848
1	5213	313355.062833812284	25.022185093185
1	5232	313779.142568001511	49.888222034666
1	5255	315063.584897731142	0
1	5263	315363.137440535243	0
1	5289	317294.924591946684	0
1	5324	320931.241954945254	0
1	5333	321365.088973382078	0
1	5358	322929.227072072939	0
1	5367	323486.906900672337	512.59727036055
1	5377	325353.694842172683	0
1	5393	325994.213559779935	22.840997462875
1	5402	326476.092585574343	0
1	5416	326998.934269465213	195.17133096755
1	5428	327656.338899901936	750.88339413231
1	5434	328189.862404822768	1019.9559464649
1	5445	328784.627862769675	1587.4741056662
1	5462	329126.266255914497	134.17208888634
1	5484	330122.489227434787	178.86370762265
1	5495	330223.823340079738	41.648263817971
1	5527	331818.190952171335	0
1	5562	333221.490519746194	232.84966696164
1	5576	334343.797217875791	595.86479494951
1	5584	334838.775500017326	46.083102408893
1	5603	336344.011559173462	616.96068141715
1	5629	336882.288352637414	333.70154893548
1	5635	337314.704396370665	680.35924701942
1	5648	337681.694374318185	13.731011685545
1	5683	343085.141289980324	0
1	5691	343582.613569569671	456.86638110843
1	5699	343830.926973030569	119.48763560842
1	5708	344508.156207913698	0
1	5717	345034.569901768979	83.022024789175
1	5731	345448.507160795648	247.57854032363
1	5774	346703.655745689312	253.41659677917
1	5791	347876.083114225879	0
1	5834	350035.758223495748	309.4827489045
1	5850	350991.633275653655	0
1	5877	353339.793920775549	1155.2370451456
1	5894	354077.446701733562	58.171129814431
1	5902	354635.830213543615	0
1	5910	354807.18887089069	0
1	5933	355223.280159714087	316.42936344801
1	5938	355402.842652441701	258.40547361579
1	5951	355808.669095829588	0
1	5960	356094.551861822717	0
1	5968	356327.841591278281	215.89263947312
1	5992	356993.983401318341	0
1	6001	357063.653581960742	0
1	6009	357632.929794368939	0
1	6018	358904.602850479793	0
1	6036	360317.655528088909	135.04734872984
1	6069	361143.582488816819	0
1	6080	361607.419998928839	438.59689034676
1	6085	361704.394769810548	282.02057435886
1	6110	362903.169356535645	0
1	6153	365348.172989492758	44.005716222669
1	6182	367014.214134545267	182.60517859614
1	6204	368692.891236635308	0
1	6221	369560.407059013276	0
1	6249	373931.1598337051	0
1	6260	376982.197384571318	0
1	6279	379981.948365613461	0
1	6298	382048.302872855043	0
1	6326	386872.054746064007	0
1	6344	388307.053619032119	0
1	6352	388821.615733150833	0
1	6362	390053.049399776636	0
1	6388	392910.868843125109	0
1	6405	393568.860942721175	225.17440432863
1	6423	395063.005811384452	0
1	6431	395213.23826184635	0
1	6448	396996.978947016085	84.526503682997
1	6457	397401.762687637315	0
1	6474	398790.632925888589	0
1	6491	399080.561621412092	0
1	6526	403007.20375628452	0
1	6535	403436.91842856766	0
1	6552	404779.486844500304	0
1	6564	405414.827406951701	472.78423365464
1	6572	405642.421832827731	319.05960864519
1	6577	405755.336390684826	132.2532248316
1	6589	406403.719485441106	359.31143030952
1	6602	406762.895181728694	0
1	6645	409416.167196108966	13.349331824015
1	6653	409577.772368161864	0
1	6662	410239.351110368994	0
1	6676	410653.464674453193	29.021124181585
1	6695	411301.79198810461	63.190632077408
1	6709	411428.279731595552	67.460656910019
1	6715	412062.06872159767	634.2172601241
1	6733	413142.699281243345	878.75462563429
1	6738	413172.226253254752	660.24939602962
1	6768	414289.14737702305	233.31546723189
1	6822	418296.510881663002	0
1	6830	418308.889642629882	0
1	6856	420631.336290623247	124.35608677117
1	6864	420851.832584609688	125.54509613544
1	6901	422551.514671529872	144.4658913906
1	6924	424536.396230223451	0
1	6932	424949.136893653516	0
1	6941	425347.999352391104	192.62335586278
1	6958	426224.330231392805	0
1	6975	427418.767849501926	0
1	6983	427792.084946292116	0
1	6992	428347.780842419266	0
1	7020	429711.213264294517	139.86092802652
1	7028	429795.42709991761	72.412823596115
1	7041	430008.420307896026	94.94725174062
1	7083	431796.373261063042	0
1	7105	434398.117725900033	848.35179214343
1	7118	434932.675833097845	0
1	7127	435411.362289333302	0
1	7155	439086.62502542474	0
1	7179	439956.515770080865	0
1	7196	440874.62529028577	0
1	7205	441276.707708632008	0
1	7214	442580.793905508119	0
1	7232	444139.838852830435	0
1	7240	444566.336308317806	179.20871671579
1	7249	445516.389385422265	0
1	7260	445982.856207124829	149.544559096
1	7266	446149.248614698141	237.97600583616
1	7282	446712.803919350896	45.21684926393
1	7300	448773.694990286894	0
1	7359	451777.720192419387	341.91005752693
1	7376	452618.387076253396	0
1	7385	453750.437504310314	0
1	7393	453993.419201577656	0
1	7413	454397.504603976127	45.372710362442
1	7421	454894.210062062492	496.72730707687
1	7426	454902.295368501999	298.65245540635
1	7435	455417.6803887063	418.10273097698
1	7477	457155.331176667791	0
1	7485	457385.968094221394	192.75989085823
1	7510	458380.540451942642	62.870319788791
1	7530	461067.099289634548	2450.7566040066
1	7535	461172.268773891997	1913.6960022695
1	7546	461792.792108544532	1586.2940622747
1	7554	461873.150797348726	1613.3500146947
1	7593	463330.660694410878	559.53915942602
1	7598	463404.488535346349	141.90073045275
1	7638	466396.983027650453	0
1	7646	466536.494873914751	0
1	7654	466556.311469781591	0
1	7671	468008.193284534124	0
1	7697	469396.784979531952	0
1	7723	471009.76816563659	229.31159392482
1	7744	473109.753821824415	734.40976953414
1	7752	473642.202865803973	878.38058034516
1	7774	474425.449189647675	38.936716206631
1	7783	475393.780490395434	0
1	7791	475575.263718163224	4.09729038332
1	7806	476212.446894427711	595.33455818398
1	7824	476968.815814314549	0
1	7833	477091.945387237685	0
1	7864	478200.634463591324	135.15972079309
1	7891	479606.305891642433	0
1	7900	480750.783134828208	25.605811010924
1	7917	481895.265389293645	420.66372789268
1	7926	482585.58916666817	0
1	7960	484221.922867250706	0
1	7969	485211.801267234096	0
1	7977	485645.162393996772	0
1	7986	486348.621284472513	466.43510809193
1	8004	488630.740631203929	0
1	8012	488782.835925150283	0
1	8047	491419.613930575135	0
1	8083	492925.966470121543	145.058910424
1	8098	494576.448275187902	0
1	8107	495972.669946399699	0
1	8124	496600.362288270775	0
1	8132	496742.587223136369	63.623634201933
1	8173	499243.982020098691	869.06223507484
1	8178	499486.544407890162	564.17944430726
1	8183	499547.193403076814	574.08333147648
1	8200	499934.835048616951	232.78496435702
1	8225	501462.005274668403	0
1	8259	503440.558792100427	295.12354369388
1	8276	504062.15221217907	0
1	8285	505758.380161720419	0
1	8302	506288.830615982376	430.35831808626
1	8310	506898.219009785065	0
1	8319	507331.968056844972	0
1	8352	508516.950292188623	0
1	8361	509198.716115715376	359.10851838689
1	8377	509871.026776455845	0
1	8385	509984.51408071651	60.901104342209
1	8394	510206.390071434353	0
1	8422	511257.382068699082	83.064136133973
1	8462	514603.090233875589	0
1	8471	515521.731261633585	291.02890791736
1	8480	516301.925996273286	0
1	8497	517581.835769991601	0
1	8506	518127.778430347038	0
1	8522	518654.969222346479	0
1	8548	520721.209046474564	0
1	8556	521007.927486989802	0
1	8565	521184.94796815974	119.52600292973
1	8576	521389.47871998931	116.98073318778
1	8621	523313.191065984385	147.32186565113
1	8649	525229.243371667633	0
1	8666	526449.149001213065	466.91248796883
1	8674	526610.972840640643	26.332633203196
1	8682	527007.370374734269	151.85881341565
1	8692	528280.395630740412	0
1	8720	529588.630905618807	481.69229938436
1	8728	529800.101074352678	49.391773430825
1	8751	531965.905228731975	0
1	8760	532644.366415364248	0
1	8803	535561.520031125039	0
1	8820	536238.171685745375	0
1	8828	536498.204481923345	0
1	8837	537154.324194459909	0
1	8845	537653.425821278162	0
1	8874	539261.385200169701	361.1715878404
1	8895	539632.853630758924	20.423174399442
1	8922	542641.555431230368	0
1	8941	545128.956594696499	0
1	8968	548170.86526733951	0
1	8976	548446.544926709534	0
1	8993	549466.7969653716	0
1	9001	549749.693881899763	0
1	9018	550091.993022411029	0
1	9026	550394.198549306788	0
1	9038	551358.025440326951	936.97644184888
1	9052	551958.412658789019	426.06745375941
1	9058	552020.416719184302	422.61312907314
1	9063	552029.39186187279	349.15640017643
1	9100	552916.04873069137	0
1	9127	555206.109188057507	0
1	9154	558234.764706262592	0
1	9173	561050.725152259318	0
1	9190	562114.283006748833	0
1	9198	562311.765907696262	194.47243080806
1	9215	563746.638873091102	0
1	9230	564628.282650607201	691.28345439339
1	9235	564648.547547066528	682.03435579798
1	9273	565441.435186626609	0
1	9298	566965.890523482787	53.54884545959
1	9307	567395.681625036559	0
1	9317	569194.243074867923	0
1	9334	570101.456482528713	0
1	9342	570418.574264619508	0
1	9377	573471.249888740251	0
1	9396	576378.226758568439	0
1	9407	577004.137916346593	282.59596362993
1	9416	577175.23026979065	87.159483076857
1	9447	579258.949847435933	0
1	9458	579840.766945440252	158.82901447393
1	9475	580476.328920543242	56.147350567981
1	9501	582992.29736749027	98.300789154896
1	9507	583026.086244891887	70.628507355089
1	9515	583216.353170277497	145.29668351351
1	9544	584816.683048889732	971.15579767137
1	9556	585122.875670586125	1266.7050925487
1	9561	585466.929853580442	1004.6604903453
1	9574	587049.231024807941	2439.7197219483
1	9579	587285.810786484932	2334.4120395011
1	9584	587442.749744559809	961.52764222293
1	9651	590688.520688549052	9.265622729545
1	9677	592070.076847214338	731.55327168371
1	9688	592382.816870185945	770.11070604537
1	9693	592602.129485143795	873.00393875082
1	9702	593254.289958928311	1119.6568774069
1	9717	594028.554637882461	1695.0920348493
1	9728	594220.791161453874	1040.3213754952
1	9736	594423.730012121133	597.33683587073
1	9741	594607.55798910166	770.76633600142
1	9750	595121.854755025878	1120.4394026393
1	9755	595511.827190275785	1349.0750465195
1	9763	595580.129695769609	1344.0104369328
1	9876	602927.368336232109	932.47311789379
1	9881	602973.277833696421	276.66090050338
1	9887	603110.004699285124	191.14635545296
1	9897	605079.266707301333	0
1	9905	605876.702704680718	0
1	9923	606572.523113353853	651.94724543113
1	9928	606590.043746779938	514.36486224361
1	9953	607370.986652973456	9.048978106604
1	9964	607830.136306020571	238.90358012302
1	9969	607875.488596051749	235.47813677149
1	10000	608854.531844304122	490.6299780167
1	10009	609286.52902239105	911.52545741307
1	10014	609457.987376974642	1012.2385751874
1	10019	609479.964487542697	460.85127673194
1	10067	610573.226293122789	790.20605553694
1	10072	610710.045835026451	683.18993828151
1	10077	610723.220643554403	560.92297615923
1	10095	611170.798198676219	664.08481798614
1	10100	611242.77140739594	671.650034352
1	10105	611293.661687383712	567.51031629799
1	10110	611789.675464634838	705.66441102705
1	10122	612656.917578481427	804.93533259603
1	10136	612986.725321634428	0.945070326393
1	10164	614112.081616951007	176.87733923345
1	10203	616028.979141285134	1710.771632254
1	10208	616423.708492300219	1563.1908148479
1	10213	616481.086515299624	930.56603713603
1	10228	617680.62445273515	2042.4694805908
1	10233	617690.264251762754	966.71301894403
1	10245	618566.06478827915	465.52937341508
1	10304	620930.730518391006	663.77194614012
1	10325	622433.542159611409	423.21136392248
1	10379	624965.281736925436	67.957369888451
1	10421	627264.189971170762	448.58358912391
1	10426	627771.384425689312	801.57471933804
1	10439	627868.035347551361	0
1	10451	628409.887679135967	520.33977446613
1	10473	629910.974638956509	0
1	10482	630564.939760798208	0
1	10507	631179.400922392922	0
1	10533	633670.833823416016	263.86180301616
1	10542	634223.524230963156	0
1	10553	634581.604266286737	285.30616619056
1	10561	634651.999060046605	235.65901618344
1	10575	635153.226366770508	27.563452737927
1	10601	637400.622877271368	0
1	10627	639219.678067650369	230.29636552903
1	10661	641198.121912145497	0
1	10670	642726.875118839265	0
1	10682	643081.636145572377	283.34270506823
1	10696	643673.460818183313	839.39909396324
1	10701	643759.025579295751	380.72725013118
1	10706	643800.836250307395	312.75577437254
1	10718	644688.743655965456	347.60030118366
1	10737	645962.997107518914	0
1	10758	647041.531135155107	533.46980069431
1	10769	647306.231815390161	614.7516228417
1	10774	647592.86448374532	541.88768282394
1	10804	648978.288386676505	376.23725184624
1	10821	649411.086784723256	0
1	10838	650355.521780895284	0
1	10850	651565.546181662815	829.64892771789
1	10870	652104.383709040127	110.65815963677
1	10886	652576.958763200891	66.540520909154
1	10914	653401.394536093789	175.7632190582
1	10936	654412.608235854764	318.51204007019
1	10954	654831.70430689513	81.939167243546
1	10975	656252.94200938133	523.61448139905
1	10980	656292.809800882937	545.31161195358
1	10991	656616.029569690292	232.18333227155
1	11005	657575.61487109498	0
1	11020	658133.406735621319	249.17384966138
1	11028	658268.537996389141	69.152697693769
1	11072	660154.651335667854	428.36942221397
1	11083	660492.320414457776	139.36853649401
1	11097	661095.823410559207	0
1	11115	662226.60109522349	1046.2098500622
1	11126	662700.791696731804	321.0108817512
1	11143	663676.296947638029	520.58609285747
1	11148	663727.167593406143	401.60023985387
1	11176	664141.532962189682	48.769199492525
1	11181	664771.286488241741	672.23966256812
1	11210	666230.493771467548	146.5336327834
1	11221	666566.782380715344	105.27582133357
1	11250	667143.938490449094	80.615054741653
1	11259	668723.434598955429	909.14101455361
1	11291	671546.468290437217	0
1	11300	672554.893933364451	0
1	11308	672629.655878689273	56.333360681948
1	11343	675668.246468943845	0
1	11352	676279.618742573576	0
1	11360	676483.00764882607	62.394079481848
1	11372	677328.088866590009	86.382040760258
1	11385	677874.909907358606	0
1	11435	679546.865978322419	99.418025857882
1	11443	679880.423260107275	0
1	11451	679995.313043431663	0
1	11482	682405.69852291608	919.76278549
1	11493	682756.0048905002	492.77633561993
1	11502	683372.773188897852	819.86946341921
1	11510	683566.888483213401	907.04072652428
1	11515	683582.353857740225	726.17469567004
1	11521	684201.705175008985	822.50449701368
1	11550	685426.074487320157	422.28731640681
1	11555	685736.231650069944	653.89426741755
1	11564	686391.147021084238	1096.6566809611
1	11569	686432.128916931176	692.70285858461
1	11591	686967.537131935946	406.23361483106
1	11673	690972.048820527981	606.37896928958
1	11687	691889.339232476051	0
1	11696	692509.990534893486	0
1	11707	692790.034722527896	5.818723431665
1	11721	693330.832283458632	0
1	11738	694673.326276813072	0
1	11755	695966.67937221646	0
1	11764	696078.149532484445	0
1	11778	696603.936828360825	311.03992984524
1	11783	696877.639486036274	561.92380042425
1	11841	701590.889095802637	0
1	11850	702086.931903218769	0
1	11859	703189.526590483548	0
1	11892	704258.160731627765	0
1	11901	705039.627501192679	0
1	11926	706871.439672593892	0
1	11953	709087.515305204448	0
1	11978	710322.56407713802	0
1	11987	711298.029839320251	0
1	12003	711948.986705024156	0
1	12021	713493.054935820657	0
1	12029	713848.417430633513	236.79127965132
1	12038	714638.434840835955	548.11022619559
1	12055	715897.756494307931	0
1	12072	716180.836857954281	0
1	12098	718237.8423806768	35.763573124435
1	12106	718300.220941680998	60.467469182054
1	12126	719231.223565177832	82.682512172317
1	12155	719954.732380892456	10.982853109729
1	12176	721710.532032396726	406.30847900066
1	12184	721849.525403891605	244.78044362908
1	12193	722242.961492891257	42.48955787249
1	12225	725047.855766917796	0
1	12243	727491.075960635771	0
1	12252	728854.663225953664	0
1	12264	729617.475560820169	679.03166176858
1	12273	730233.37140131823	300.48633740864
1	12295	731823.005198336044	0
1	12312	732993.4754320716	0
1	12321	733112.44923153491	83.34934639264
1	12348	736293.7662431678	0
1	12365	737078.398295260098	0
1	12381	737909.508481082147	0
1	12390	738833.998133907692	0
1	12399	739330.798209969689	132.6682670224
1	12424	740668.965125591275	42.896504816757
1	12450	742255.857668082346	34.396851197396
1	12470	743370.78074274509	400.48762702382
1	12483	743633.964006387767	0
1	12500	744651.996767815233	176.10697114789
1	12509	745388.611727061353	87.189648454614
1	12536	748261.249692236887	274.84093787517
1	12544	748634.726039360912	0
1	12561	749501.834797450047	0
1	12570	750364.301446769096	0
1	12586	750865.579693297223	153.59515064513
1	12612	752123.241052367494	0
1	12623	752967.337431425244	633.67704252919
1	12653	754163.453842739756	749.17506072763
1	12658	754207.54962515596	788.4465918884
1	12663	754236.165207984308	206.54263874439
1	12704	756151.166414974762	0
1	12712	756391.54293990809	0
1	12728	756900.247131119404	232.93653118516
1	12740	757243.606169407484	50.612334271647
1	12768	758233.139307540461	509.77858263066
1	12786	758797.276323951075	190.73833168543
1	12795	759908.474616485917	682.57485589837
1	12823	763126.900555628457	0
1	12832	764037.922252525794	0
1	12851	764627.18498038113	63.671226313393
1	12865	765438.011606037577	0
1	12876	765636.211471526303	193.31132242339
1	12885	766173.109677701207	298.32659483743
1	12935	768397.562516890929	417.53920695879
1	12943	768743.321563599184	578.88652512147
1	12952	769035.889149982611	401.38733453165
1	12957	769606.653611761202	643.92475217435
1	12966	770151.276651145134	0
1	12977	770396.154022526212	51.845857617509
1	13049	773277.592035523809	219.38943859362
1	13058	774296.479479029903	0
1	13075	775164.815674263096	0
1	13083	775383.656483204137	0
1	13101	777440.144522437954	0
1	13109	777596.786318858635	109.91355514772
1	13121	778629.278516171697	713.58217522379
1	13135	779043.74874798776	212.91885050886
1	13143	779498.0680530094	301.2112779647
1	13160	780022.575533379629	174.75271450272
1	13168	780145.074304654348	0
1	13176	780615.762057422666	262.63404229641
1	13202	782266.728756710966	0
1	13218	782712.551847138697	35.059534183322
1	13235	783038.049703781058	229.8203268634
1	13246	783486.04132749532	136.51645674625
1	13269	784533.384858712204	376.65046309332
1	13274	784699.236949885998	330.69218762471
1	13296	786074.146178966984	706.06032162453
1	13301	786114.299787490042	614.03857281699
1	13344	787783.126687941501	274.20981585937
1	13356	788198.907948579468	117.9979228204
1	13416	790817.864131912284	332.85767292554
1	13421	790947.059921828169	387.46351280006
1	13427	791415.463460418247	840.37596932621
1	13438	791744.555706668076	184.36384420194
1	13460	792413.90088691484	0
1	13469	793096.056712526428	0
1	13511	795833.310469167456	0
1	13520	796862.173835821759	0
1	13537	797997.143873110072	952.99958130445
1	13554	798485.296347504192	0
1	13588	800967.474335057814	0
1	13597	801589.606686343146	0
1	13614	802818.178189939532	242.71604901308
1	13623	803447.81071517582	0
1	13632	804212.063157107165	0
1	13640	804506.381394705057	0
1	13656	804949.121206867437	0
1	13673	805540.521901097961	114.65958193252
1	13682	806725.546553470057	243.49520415167
1	13707	807730.762718449609	0
1	13716	808021.710423525301	121.05066958037
1	13738	808821.376760257423	251.50769760274
1	13755	809527.080777023134	104.09032651768
1	13800	812685.609766493999	0
1	13817	813504.109283493811	6.147871244436
1	13829	814301.952859915365	659.15167927065
1	13842	814825.895272621671	171.6222041851
1	13851	815590.167177770263	0
1	13859	815877.968257970033	131.04203070528
1	13905	821550.182325085766	0
1	13914	822027.391630913459	0
1	13922	822682.003545922492	0
1	13939	823592.506930162264	4.173386636366
1	13947	823986.212443379757	342.03777806369
1	13956	824642.003013983536	0
1	13967	824979.273312403538	181.43644897265
1	13979	825440.621096088563	584.99415066792
1	13987	825992.686011384871	159.79634887699
1	14015	827222.836049177044	0
1	14040	828260.28439191597	0
1	14056	828739.223986167864	119.87966578683
1	14071	829127.889526937834	96.71112465776
1	14082	829565.890783521014	196.62247257697
1	14102	830221.209651711856	14.668692772686
1	14116	830877.27547590403	189.57287093573
1	14138	831666.592794939234	192.30640538299
1	14199	835709.372539314661	261.63910801563
1	14209	837126.502107522742	0
1	14217	837277.418100548329	0
1	14244	840513.073975023935	0
1	14262	842383.979562405455	0
1	14273	842674.819859453891	184.05035658596
1	14288	844668.44039593826	0
1	14305	845849.862890918291	0
1	14317	846357.497471927176	162.76445550196
1	14330	846818.4792869983	0
1	14347	847760.176154683886	0
1	14376	849266.401192122008	189.02227357376
1	14384	849463.725146011713	208.75163834804
1	14407	851804.169147239792	0
1	14424	852387.128790732055	0
1	14450	854070.704823947171	0
1	14458	854461.709115276917	262.80997798742
1	14466	855000.171726838768	350.21112574426
1	14475	855057.300380407716	0
1	14483	855681.504860619658	0
1	14500	856769.205694044246	0
1	14522	859209.432913817516	457.27921583929
1	14562	862874.292616112338	0
1	14581	865624.687655851837	87.965383250304
1	14599	867596.266902974281	0
1	14625	869473.487678863059	0
1	14636	869636.494239494791	28.498092174351
1	14641	869895.321206596551	286.90748234573
1	14659	871966.941311707186	0
1	14684	872784.124133820428	34.832451205783
1	14693	873224.335906362543	108.20564491654
1	14701	873452.499057174029	0
1	14717	873831.475913067116	19.238227945805
1	14751	875562.519229688836	0
1	14759	875849.211407982568	0
1	14776	876947.507932206505	0
1	14793	877826.993656690282	115.77748439216
1	14810	878918.472980462962	48.114199040429
1	14827	880011.885227965446	390.14710214358
1	14859	881592.727840181202	7.392458184134
1	14879	883348.438647974389	0
1	14897	885257.225777424358	0
1	14905	885504.755218659119	0
1	14913	885719.621701199956	142.84795967558
1	14938	886869.936818804468	0
1	14956	888516.486480482824	0
1	14981	889707.24032886029	0
1	14998	891015.576037125319	226.30290701422
1	15007	891075.578057853813	48.24796948463
1	15017	893134.31776676931	0
1	15033	893828.705184149711	0
1	15042	894304.181437752271	355.30891485378
1	15053	894895.397643637279	236.66769331632
1	15078	895759.463495103097	282.81195022778
1	15109	897365.277934524141	0
1	15120	897714.224225764367	219.24789857625
1	15136	900494.687822463966	0
1	15148	901191.194703097898	357.55645742219
1	15187	903020.538989547975	0
1	15195	903148.131340931682	86.100315205386
1	15209	903540.631508300834	34.513907513857
1	15228	904387.907682808866	63.92055862135
1	15236	904552.489606454501	0
1	15245	905216.432319144738	0
1	15262	906143.0943385167	0
1	15270	906575.716765113791	0
1	15305	909060.731781800669	0
1	15314	910564.305169278951	0
1	15322	910654.772210323487	0
1	15333	911008.168230881416	159.06590821849
1	15364	912101.063588247356	0
1	15411	919130.727307276123	339.65990733728
1	15428	920106.658375572561	0
1	15453	921699.961768836841	0
1	15462	922213.750585818045	0
1	15476	922515.114453030457	195.2150196176
1	15481	922532.427240861121	138.87410503525
1	15489	922887.382490548954	475.10473431265
1	15515	924320.015834648847	251.66459781576
1	15529	925039.856090851079	0
1	15565	929256.207130351615	0
1	15573	929485.123347867417	115.61568761895
1	15590	930706.545114860713	0
1	15619	932489.880145795972	61.110536652785
1	15634	934068.681521345423	0
1	15642	934718.074785008318	0
1	15670	938414.032088014571	262.11990850782
1	15685	939107.198084688932	691.05802917108
1	15690	939113.019597930656	600.37234093305
1	15695	939825.656752835219	1310.7938304249
1	15703	939971.632893435005	0
1	15715	940074.964744017955	44.317674038152
1	15731	940623.506932928291	4.002652176578
1	15740	941127.168465419626	274.73828526586
1	15770	942375.230046086673	47.443477549634
1	15795	943051.998477672521	0
1	15819	943782.436378502255	0
1	15828	944462.950864936388	0
1	15845	945769.071250255974	0
1	15854	946664.346914171724	0
1	15870	946949.392484920044	132.03660040143
1	15881	947012.021269093148	30.211079520891
1	15896	947623.334950487344	364.34957188864
1	15901	947693.976201846105	274.02645302327
1	15936	948611.928653395612	4.841463744046
2	1295	72071.488651699924	1
2	1308	73314.76241064044	2
2	1311	73524.698590776382	3
2	1316	73817.269808404084	2
2	1322	74382.489468008669	1
2	1327	74401.028137249335	0
2	1339	75199.686527635469	1
2	1344	75259.629179401806	0
2	1347	75533.744633679021	1
2	1352	75607.012497748165	0
2	1388	76836.82206053852	1
2	1397	77058.791856641529	0
2	1405	77367.12410188407	1
2	1414	78311.367694163212	0
2	1441	79599.670801334159	1
2	1443	79599.670801334159	0
2	1480	86485.170885432689	1
2	1482	86485.170885432689	0
2	1485	86832.712148362194	1
2	1491	87620.255163937672	0
2	1497	87801.314845676579	1
2	1499	87801.314845676579	0
2	1503	88209.084402619341	1
2	1508	88304.03618973002	0
2	1514	88349.655055959424	1
2	1516	88349.655055959424	0
2	1519	88349.738089405953	1
2	1524	88375.164429116984	0
2	1564	90524.907902646038	1
2	1566	90524.907902646038	0
2	1600	94292.705346870177	1
2	1602	94292.705346870177	0
2	1614	95211.217969590078	1
2	1619	95393.092023352233	0
2	1625	95875.672155851325	1
2	1627	95875.672155851325	0
2	1631	96507.701373343823	1
2	1634	96536.686579421225	2
2	1639	96687.245535885913	1
2	1642	96763.449226412899	2
2	1648	97036.871675778637	1
2	1653	97318.005245694375	0
2	1684	98760.436823683192	1
2	1689	98949.882297591406	0
2	1701	99598.520520801128	1
2	1703	99598.520520801128	0
2	1718	100882.198260888575	1
2	1720	100882.198260888575	0
2	1736	102601.109200373739	1
2	1738	102601.109200373739	0
2	1750	103142.878794354821	1
2	1755	103216.516966642623	0
2	1758	103542.479123793895	1
2	1764	104052.373971387865	0
2	1797	107482.048837120969	1
2	1799	107482.048837120969	0
2	1825	111655.61581905917	1
2	1827	111655.61581905917	0
2	1831	112125.917471683555	1
2	1834	112401.755632056623	2
2	1837	112904.036781513586	3
2	1843	113155.513933313649	2
2	1848	113273.362713581315	1
2	1853	113565.694309012407	0
2	1859	113789.930573295062	1
2	1861	113789.930573295062	0
2	1873	114929.095333867719	1
2	1877	115066.976169736232	2
2	1888	115186.878188208606	1
2	1896	115487.190171769837	0
2	1918	116196.140019959672	1
2	1921	116200.975472172559	2
2	1926	116388.749602120439	1
2	1929	116436.048239453216	2
2	1934	116965.903326931172	1
2	1939	116990.110895362154	0
2	1965	118815.01891991136	1
2	1968	118825.061462095406	2
2	1975	119587.361004058273	3
2	1980	119630.516151515086	2
2	1983	119784.691097644773	3
2	1988	119945.09568336611	2
2	1991	119948.52939080554	3
2	1996	121161.706874258691	4
2	2004	121491.554678356287	3
2	2010	122161.739713661195	2
2	2015	122339.538401206743	1
2	2020	122433.145148104047	0
2	2092	125770.032724296213	1
2	2098	126054.046809627962	0
2	2113	127033.708645851035	1
2	2115	127033.708645851035	0
2	2118	127240.609020138417	1
2	2121	127543.296058883596	2
2	2126	127694.971719947964	1
2	2131	127992.750405577536	0
2	2135	128214.155008637908	1
2	2138	128274.560057134789	2
2	2143	128409.996508737569	1
2	2146	128697.594257614909	2
2	2151	128929.378278661736	1
2	2159	128967.369616796343	0
2	2163	129187.615480670274	1
2	2171	129306.880282870618	0
2	2184	129596.202742465578	1
2	2189	129637.883401385319	0
2	2204	130107.819251420614	1
2	2206	130107.819251420614	0
2	2209	130112.388364455513	1
2	2218	131930.162294779347	0
2	2238	132807.32710825171	1
2	2240	132807.32710825171	0
2	2282	136474.132604218101	1
2	2284	136474.132604218101	0
2	2287	136988.822013988965	1
2	2293	137210.82446006048	0
2	2296	137368.111781455834	1
2	2299	137439.173859724672	2
2	2304	137463.562848048614	1
2	2309	137471.324909443802	0
2	2350	140912.604159749278	1
2	2352	140912.604159749278	0
2	2356	141400.425002703315	1
2	2367	141975.415492954208	0
2	2399	144643.862661501777	1
2	2404	144669.657766448112	0
2	2411	145010.764896464119	1
2	2413	145010.764896464119	0
2	2428	146791.114941035651	1
2	2430	146791.114941035651	0
2	2442	147641.783911900154	1
2	2447	147656.591724729336	0
2	2454	148400.15502655687	1
2	2456	148400.15502655687	0
2	2459	148406.957568296901	1
2	2462	148410.264324604721	2
2	2470	148679.77142224092	1
2	2475	148763.526590440033	0
2	2492	149377.405875903305	1
2	2497	149440.369782274327	0
2	2520	150569.30946599408	1
2	2525	150831.635674907851	0
2	2529	151012.406564071958	1
2	2532	151683.243778260299	2
2	2535	151803.832952350652	3
2	2539	152025.230703006642	4
2	2542	152042.775217481844	5
2	2545	152340.244640020311	6
2	2550	152448.38289100465	5
2	2555	152761.229406258507	4
2	2560	152829.307852114586	3
2	2565	152943.12827694275	2
2	2571	153146.219748092757	1
2	2576	153217.575667607899	0
2	2587	153657.264593741296	1
2	2605	154167.802403944318	0
2	2608	154170.948128140511	1
2	2611	154192.777276959542	2
2	2616	154701.672895257083	1
2	2621	154919.057208766082	0
2	2651	155862.761221692715	1
2	2656	155879.323670018923	0
2	2704	158750.139533254504	1
2	2706	158750.139533254504	0
2	2709	158888.610811234217	1
2	2718	159206.523528645852	0
2	2743	160015.280060984232	1
2	2748	160024.761326421514	0
2	2764	162783.389976200413	1
2	2766	162783.389976200413	0
2	2773	163865.73303472683	1
2	2775	163865.73303472683	0
2	2783	165309.796127045752	1
2	2785	165309.796127045752	0
2	2791	165844.924380578724	1
2	2793	165844.924380578724	0
2	2808	166752.620939735849	1
2	2810	166752.620939735849	0
2	2834	168066.950850585228	1
2	2836	168066.950850585228	0
2	2842	168404.487128443185	1
2	2850	168698.584643728675	0
2	2853	168717.876890470722	1
2	2858	168813.873173201617	0
2	2889	170661.063119801906	1
2	2894	170708.984389938702	0
2	2910	172454.787162754234	1
2	2912	172454.787162754234	0
2	2916	173227.483060850358	1
2	2921	173369.718391267478	0
2	2944	174783.969714889403	1
2	2946	174783.969714889403	0
2	2961	175825.70779012054	1
2	2963	175825.70779012054	0
2	2970	176055.529948188808	1
2	2972	176055.529948188808	0
2	3004	178449.010117939596	1
2	3007	178661.754514976473	2
2	3010	178863.718329608632	3
2	3016	179186.163479961161	2
2	3021	179559.088878032981	1
2	3026	179587.852130972147	0
2	3037	180000.031128461441	1
2	3039	180000.031128461441	0
2	3046	180355.574820876282	1
2	3048	180355.574820876282	0
2	3054	180711.585423627577	1
2	3056	180711.585423627577	0
2	3062	180825.614227033044	1
2	3068	181398.665990300939	0
2	3113	183006.817857429061	1
2	3118	183257.035290535481	0
2	3131	185103.918524806362	1
2	3133	185103.918524806362	0
2	3139	185602.2023579474	1
2	3144	185641.524326006127	0
2	3157	187228.182296758969	1
2	3159	187228.182296758969	0
2	3165	187531.661299383076	1
2	3167	187531.661299383076	0
2	3170	187757.632376153825	1
2	3179	188225.207331451503	0
2	3190	188424.868124194345	1
2	3192	188424.868124194345	0
2	3232	190123.464681086197	1
2	3234	190123.464681086197	0
2	3240	190810.40447234485	1
2	3242	190810.40447234485	0
2	3249	191219.183025269341	1
2	3251	191219.183025269341	0
2	3284	194973.904355439232	1
2	3286	194973.904355439232	0
2	3302	196393.750591679035	1
2	3304	196393.750591679035	0
2	3316	197640.366206341228	1
2	3322	198101.336411421786	0
2	3329	199303.118412988977	1
2	3331	199303.118412988977	0
2	3337	199444.024046387638	1
2	3339	199444.024046387638	0
2	3342	199555.781270982496	1
2	3348	200127.21334914742	0
2	3396	202854.063997791684	1
2	3398	202854.063997791684	0
2	3413	203726.117951064703	1
2	3415	203726.117951064703	0
2	3431	205053.712171462809	1
2	3433	205053.712171462809	0
2	3436	205056.304599164623	1
2	3441	205069.541582413154	0
2	3464	207002.247757546125	1
2	3466	207002.247757546125	0
2	3470	207290.655501545501	1
2	3475	207437.643433030026	0
2	3482	208370.23007194309	1
2	3484	208370.23007194309	0
2	3487	208397.887345067587	1
2	3495	208535.474156298878	0
2	3507	209612.900751430383	1
2	3509	209612.900751430383	0
2	3538	211163.357528538841	1
2	3541	211301.931549768728	2
2	3546	211675.157309961128	1
2	3552	212092.550113701384	0
2	3563	212291.469969448997	1
2	3574	212679.514499665476	0
2	3587	212890.563881035508	1
2	3596	213241.483550135415	0
2	3604	213524.186360792418	1
2	3609	213992.358436411418	0
2	3616	214667.239816815247	1
2	3618	214667.239816815247	0
2	3621	214783.47352436771	1
2	3626	214815.249614271429	0
2	3649	215607.778072634068	1
2	3651	215607.778072634068	0
2	3654	215743.18654506629	1
2	3659	215960.691889059225	0
2	3663	216040.633276208428	1
2	3671	216113.262610680743	0
2	3688	217376.150098077976	1
2	3696	217587.742136504844	0
2	3707	217856.456372399623	1
2	3709	217856.456372399623	0
2	3712	217858.692403793462	1
2	3715	217958.025154823375	2
2	3721	218135.730246021411	1
2	3729	218432.590709849595	0
2	3741	219148.98361563435	1
2	3749	219725.915337756289	0
2	3776	222281.308947410078	1
2	3778	222281.308947410078	0
2	3793	223470.749306404194	1
2	3795	223470.749306404194	0
2	3798	223497.770002359905	1
2	3804	224372.023286448188	0
2	3810	224847.627214662665	1
2	3822	225660.329481469895	0
2	3844	226373.923641331333	1
2	3846	226373.923641331333	0
2	3866	227477.625250766922	1
2	3871	227637.635793117896	0
2	3877	227996.409521536485	1
2	3879	227996.409521536485	0
2	3886	228656.02483177744	1
2	3888	228656.02483177744	0
2	3895	229137.665712661473	1
2	3897	229137.665712661473	0
2	3906	229383.269566182915	1
2	3909	229777.713275093654	2
2	3919	230368.966077284495	3
2	3924	230437.562693353433	2
2	3929	230738.790504707362	1
2	3934	230804.413346500218	0
2	3943	231017.975198833797	1
2	3948	231081.500954627925	0
2	3951	231099.605365216167	1
2	3954	231440.799080350762	2
2	3959	231450.250449127857	1
2	3964	231650.650148656084	0
2	4015	233841.543268818962	1
2	4020	233915.650695737103	0
2	4034	234583.698094392575	1
2	4039	234754.23051302841	0
[...]
7	10218	616544.859303625547	3
7	10226	617680.62445273515	4
7	10231	617690.264251762754	5
7	10239	618397.45817563795	4
7	10243	618566.06478827915	5
7	10248	618866.824257479122	6
7	10258	619200.483045566309	5
7	10276	619672.355204928965	4
7	10284	619826.475560718534	3
7	10307	621141.50224792083	2
7	10310	621445.453369886788	1
7	10314	621931.225913481027	2
7	10329	623104.644436520384	3
7	10333	623127.751068573144	2
7	10336	623134.501544246584	1
7	10350	624683.150562945108	0
7	10383	625973.23615361945	1
7	10387	625983.996945964938	0
7	10424	627771.384425689312	1
7	10429	627809.894057580112	2
7	10444	627935.375167673824	1
7	10449	628409.887679135967	2
7	10453	628457.259554124933	1
7	10457	628636.929140088026	2
7	10477	630092.129727196472	3
7	10485	630650.598601825956	4
7	10487	630733.629159638969	3
7	10495	630882.670164667587	2
7	10510	631437.951200964899	3
7	10512	631442.654861591483	2
7	10521	632555.274764449376	1
7	10536	633819.380326095094	2
7	10551	634581.604266286737	3
7	10555	634624.124416912832	2
7	10559	634651.999060046605	3
7	10564	635001.2051988652	4
7	10578	635270.218533949122	5
7	10580	635446.26583380746	4
7	10589	636567.63925079742	3
7	10604	637481.629654623112	4
7	10606	637505.738168374406	3
7	10615	638916.212408127996	2
7	10630	639275.413242579588	3
7	10632	639442.116308510121	2
7	10641	640238.114339042764	1
7	10649	640485.236256581752	0
7	10664	641584.94447452455	1
7	10680	643081.636145572377	2
7	10684	643337.90625658834	1
7	10694	643673.460818183313	2
7	10699	643759.025579295751	3
7	10704	643800.836250307395	4
7	10712	644439.283742537479	3
7	10716	644688.743655965456	4
7	10721	645003.244144515306	5
7	10740	646395.490515366455	4
7	10744	646407.125290920816	5
7	10763	647079.944415735097	4
7	10767	647306.231815390161	5
7	10772	647592.86448374532	6
7	10777	647770.570229548404	7
7	10782	648020.927831273388	6
7	10793	648545.788727268045	5
7	10808	649029.894794502723	6
7	10810	649196.627454793883	5
7	10824	649577.099079747077	6
7	10826	649887.870376844903	5
7	10840	650405.038483194673	4
7	10848	651565.546181662815	5
7	10852	651583.697101491431	4
7	10856	651652.214917708771	5
7	10860	651680.898595347632	4
7	10872	652140.863374804449	3
7	10876	652277.500578651088	4
7	10889	653003.902113530141	5
7	10894	653057.378461437504	4
7	10897	653080.523826159213	3
7	10908	653339.172277052457	2
7	10916	653664.904461301838	1
7	10920	653725.541947716584	2
7	10939	654625.579181893919	3
7	10958	655121.661112747191	4
7	10960	655678.361319169791	3
7	10978	656292.809800882937	4
7	10982	656322.102318147113	3
7	10989	656616.029569690292	4
7	10994	656651.305324774077	5
7	11007	657824.417040637552	4
7	11013	657923.724771208426	3
7	11018	658133.406735621319	4
7	11026	658268.537996389141	5
7	11030	658437.642589828497	4
7	11034	658583.47709642696	5
7	11043	658910.539483632009	4
7	11060	659632.539956712213	3
7	11077	660421.673426174512	2
7	11081	660492.320414457776	3
7	11086	660685.502415809454	4
7	11102	661232.574901935286	3
7	11105	661426.46291670865	2
7	11108	661830.869030440324	1
7	11113	662226.60109522349	2
7	11120	662626.793570937035	1
7	11124	662700.791696731804	2
7	11130	663049.57247326196	3
7	11146	663727.167593406143	4
7	11151	663796.108909696541	5
7	11155	663826.063669296152	4
7	11170	664111.109210425599	3
7	11179	664771.286488241741	4
7	11184	664895.21751277799	5
7	11194	665797.284913056144	4
7	11197	665824.466013366278	3
7	11201	666014.26695901689	2
7	11212	666451.720325380904	1
7	11219	666566.782380715344	2
7	11224	666675.058255669891	3
7	11257	668723.434598955429	4
7	11262	668815.739822325275	5
7	11267	669137.010528617548	4
7	11279	670550.602114881431	3
7	11294	671780.656988092029	4
7	11306	672629.655878689273	5
7	11311	672692.68822462401	6
7	11313	672930.587790038824	5
7	11321	673004.424178598051	4
7	11330	673652.915439302976	3
7	11347	676072.129041041182	4
7	11358	676483.00764882607	5
7	11362	676693.183488234124	4
7	11370	677328.088866590009	5
7	11375	677594.444860916408	6
7	11388	677895.867777990849	7
7	11391	678221.712181083805	6
7	11399	678582.681369495691	5
7	11407	678722.642604234965	4
7	11416	679054.198346966625	3
7	11424	679328.268686307402	2
7	11438	679664.732871049068	3
7	11446	679992.378002872834	4
7	11455	680228.040053097008	5
7	11457	680554.490589289783	4
7	11462	680715.866782758932	3
7	11465	680781.096720013891	2
7	11469	681286.297032299515	1
7	11491	682756.0048905002	2
7	11500	683372.773188897852	3
7	11508	683566.888483213401	4
7	11513	683582.353857740225	5
7	11519	684201.705175008985	6
7	11524	684392.434666516614	7
7	11528	684557.466768881063	6
7	11531	684614.368558163065	5
7	11534	684761.764424723136	4
7	11553	685736.231650069944	5
7	11562	686391.147021084238	6
7	11567	686432.128916931176	7
7	11571	686475.199404497819	6
7	11574	686537.161390303149	5
7	11578	686543.883081198053	6
7	11585	686910.093058122378	5
7	11594	687074.597994450646	4
7	11598	687658.60465389005	5
7	11618	688297.82554967892	4
7	11641	688778.572345196945	3
7	11659	690359.307850488602	2
7	11667	690825.017991003848	1
7	11677	691050.149167245281	2
7	11691	692218.822647481812	3
7	11698	692651.18295728493	2
7	11705	692790.034722527896	3
7	11710	692839.556100690639	4
7	11723	693440.329492308233	3
7	11727	693804.858485822296	4
7	11741	694751.643210493189	5
7	11744	695134.527766214787	4
7	11759	696053.789099269737	5
7	11766	696237.785919260859	4
7	11776	696603.936828360825	5
7	11781	696877.639486036274	6
7	11787	697062.948005977755	7
7	11791	697175.36816393246	6
7	11794	697531.830562949958	5
7	11811	698111.449602754643	4
7	11820	699087.581104241632	3
7	11828	699455.437942425332	2
7	11844	701901.011207018607	3
7	11853	702365.834774431923	4
7	11862	703271.499686976757	5
7	11864	703305.346493306399	4
7	11872	703440.5166174828	3
7	11880	703635.061551365223	2
7	11895	704852.67935650034	3
7	11904	705313.627937462614	4
7	11907	706350.23098763678	3
7	11912	706365.22907588147	2
7	11929	706912.227387261668	3
7	11932	707328.071584721959	2
7	11941	708280.713996247995	1
7	11956	709089.746034170725	2
7	11958	709144.768380520805	1
7	11966	709641.693728470031	0
7	11981	710818.335865436697	1
7	11989	711462.147279111684	0
7	11993	711577.902472385595	1
7	12007	712589.236140685293	2
7	12009	712744.597124293493	1
7	12027	713848.417430633513	2
7	12036	714638.434840835955	3
7	12041	714702.451514928295	4
7	12044	715209.94059751029	3
7	12058	715958.299998045208	4
7	12061	716052.438819411157	3
7	12075	716536.439201432074	4
7	12078	717570.699264020612	3
7	12087	718198.666266383029	2
7	12104	718300.220941680998	3
7	12109	718488.960734366309	4
7	12111	718567.328376171872	3
7	12117	719106.24394894923	2
7	12129	719280.474710878744	3
7	12136	719437.302595498502	2
7	12144	719840.202782642897	1
7	12159	720230.775974935606	2
7	12162	721077.826362294142	1
7	12178	721750.883617728132	0
7	12182	721849.525403891605	1
7	12191	722242.961492891257	2
7	12196	722687.559323531177	3
7	12201	723073.060468073412	2
7	12212	723574.043336692153	1
7	12228	725085.489537827015	2
7	12231	726786.298596946134	1
7	12246	727581.693270560303	2
7	12258	729275.678465061243	1
7	12262	729617.475560820169	2
7	12271	730233.37140131823	3
7	12276	730432.07008146442	4
7	12284	731109.492064651488	3
7	12298	732038.9860682026	2
7	12302	732335.695205492507	3
7	12319	733112.44923153491	4
7	12324	733327.745561607561	5
7	12326	733622.223688270194	4
7	12336	735496.033275855247	3
7	12350	736495.621523475937	2
7	12354	736572.664132898673	3
7	12368	737304.225482983468	4
7	12370	737463.629837551495	3
7	12385	738174.642049540732	4
7	12397	739330.798209969689	5
7	12402	739804.786646576519	6
7	12404	739882.128577865345	5
7	12413	740614.477688269911	4
7	12427	740809.765433957109	5
7	12430	741503.032561739078	4
7	12439	742075.209636718434	3
7	12453	742285.756905207668	4
7	12455	742772.979838924623	3
7	12464	743301.54681945599	2
7	12473	743390.992746561914	3
7	12486	744075.901592949728	2
7	12490	744475.402937039221	3
7	12507	745388.611727061353	4
7	12512	745697.615708235882	5
7	12515	746750.933436430362	4
7	12524	747653.559924209472	3
7	12539	748264.119434228558	4
7	12547	748697.317870765843	5
7	12550	749094.659236865437	4
7	12564	749816.102158769775	5
7	12572	750579.144028403189	4
7	12576	750650.387652891001	5
7	12589	751033.16086012251	4
7	12593	751060.131213145334	5
7	12600	751643.777083595367	4
7	12617	752624.255460775073	3
7	12621	752967.337431425244	4
7	12626	753031.301706918369	3
7	12630	753076.3437815187	4
7	12634	753342.38629899603	3
7	12644	754029.325158154684	2
7	12656	754207.54962515596	3
7	12661	754236.165207984308	4
7	12665	754619.785921224205	3
7	12669	754679.948386804227	4
7	12673	754709.291028837487	3
7	12707	756250.514524549817	4
7	12714	756398.141433802222	3
7	12718	756586.434315766848	4
7	12731	757157.847983967836	3
7	12738	757243.606169407484	4
7	12743	757259.230582899824	5
7	12747	757349.753682324746	4
7	12758	757944.519815011212	3
7	12761	757948.061156789981	2
7	12771	758346.079032774174	3
7	12793	759908.474616485917	4
7	12798	760575.033857732636	3
7	12802	760935.551088694762	4
7	12810	761301.113104145547	3
7	12826	763145.377702741015	4
7	12835	764075.649822047405	5
7	12837	764381.950432087204	4
7	12845	764583.990384647838	3
7	12855	765151.041969746813	4
7	12870	765603.023419270548	3
7	12874	765636.211471526303	4
7	12883	766173.109677701207	5
7	12888	766306.592257122417	6
7	12895	766505.942591645896	5
7	12904	767143.559334937927	4
7	12909	767731.910125430468	3
7	12917	767781.103047705223	2
7	12941	768743.321563599184	3
7	12950	769035.889149982611	4
7	12955	769606.653611761202	5
7	12961	770123.66284418341	6
7	12968	770299.282650914104	5
7	12975	770396.154022526212	6
7	12980	770562.640559372957	7
7	12987	770909.001544038922	6
7	12996	771197.40196821906	5
7	13001	771298.160359751473	4
7	13012	771572.496390149431	3
7	13021	772266.243324558578	2
7	13026	772371.00322429265	1
7	13037	772741.189268787497	0
7	13052	773356.904625413812	1
7	13061	774347.435045971395	2
7	13063	774464.829167236104	1
7	13078	775377.794436910365	2
7	13087	776030.377630511868	3
7	13089	776753.974136230287	2
7	13107	777596.786318858635	3
7	13115	778391.851613114681	2
7	13119	778629.278516171697	3
7	13124	778666.644696485944	4
7	13141	779498.0680530094	5
7	13145	779694.274810126344	4
7	13149	779717.931589832693	5
7	13163	780081.981602204426	6
7	13174	780615.762057422666	7
7	13179	780733.530780509552	8
7	13182	781349.292102209738	7
7	13190	781986.847197020183	6
7	13205	782306.167451294591	7
7	13207	782324.62989772833	6
7	13220	782758.215023321473	5
7	13224	782802.443594138825	6
7	13240	783395.869435755383	5
7	13244	783486.04132749532	6
7	13248	783698.592846492977	5
7	13252	783722.181105731644	6
7	13263	784527.034942967652	5
7	13272	784699.236949885998	6
7	13276	784829.70981026754	5
7	13280	785247.405717203812	4
7	13289	785781.458081040845	3
7	13294	786074.146178966984	4
7	13299	786114.299787490042	5
7	13304	786162.58499694712	6
7	13323	786777.285278300646	5
7	13326	786847.333654036672	4
7	13329	786938.182611959047	3
7	13346	787855.225104661901	2
7	13354	788198.907948579468	3
7	13359	788220.175510122923	4
7	13363	788289.903217857464	3
7	13366	788415.880999108192	2
7	13380	789597.003781677144	1
7	13419	790947.059921828169	2
7	13425	791415.463460418247	3
7	13432	791588.680771836531	2
7	13436	791744.555706668076	3
7	13440	791746.634931328322	2
7	13444	791986.906075990026	3
7	13463	792982.830859090544	4
7	13471	793107.051395979168	3
7	13475	793182.207690952146	4
7	13479	793196.793286468092	3
7	13487	793392.089519209587	2
7	13496	794565.659315986328	1
7	13514	795862.79999334077	2
7	13523	796862.805015219078	3
7	13525	796992.303871423377	2
7	13541	798364.641856718673	3
7	13543	798461.308088521279	2
7	13557	798715.66320234515	3
7	13559	798903.91802363265	2
7	13568	799443.278063266725	1
7	13573	799806.348834581052	0
7	13592	801460.770628646957	1
7	13600	801612.597654292632	2
7	13603	802059.618699498963	1
7	13618	803240.208547105409	2
7	13626	803521.343831966879	3
7	13635	804398.793638839908	4
7	13642	804579.885981631546	3
7	13646	804655.851993948972	4
7	13660	805055.557588112399	5
7	13662	805217.687561489083	4
7	13680	806725.546553470057	5
7	13684	806800.737610434762	4
7	13688	806932.226165730315	5
7	13696	807433.399214424395	4
7	13714	808021.710423525301	5
7	13719	808041.242960248225	6
7	13721	808470.405338114692	5
7	13726	808548.90447788938	4
7	13732	808704.397763791572	3
7	13741	809060.531078884724	2
7	13745	809132.925287007327	3
7	13758	809677.80098071909	4
7	13771	810683.706569604431	3
7	13779	811006.195482895296	2
7	13788	811491.141577590851	1
7	13804	813122.54232486045	2
7	13806	813276.443830208646	1
7	13822	813812.248404285059	0
7	13827	814301.952859915365	1
7	13832	814639.459531138091	2
7	13846	815026.994231753331	3
7	13857	815877.968257970033	4
7	13862	815952.180814505196	5
7	13865	816018.765702353962	4
7	13874	817471.149224294639	3
7	13879	817560.196485321812	2
7	13882	817698.460202617967	1
7	13908	821817.196043644153	2
7	13917	822083.774278299853	3
7	13926	823103.667235550233	4
7	13928	823345.984040287798	3
7	13945	823986.212443379757	4
7	13951	824270.606054913963	5
7	13965	824979.273312403538	6
7	13969	825009.413424234506	5
7	13973	825252.992087137091	4
7	13977	825440.621096088563	5
7	13985	825992.686011384871	6
7	13990	826050.536034823274	5
7	13994	826156.232796682197	6
7	14018	827580.958684453769	7
7	14020	827765.115853427672	6
7	14028	827908.803573494723	5
7	14042	828308.430172960482	4
7	14046	828570.386563805997	5
7	14058	828874.028545902103	4
7	14061	828886.137337016991	3
7	14069	829127.889526937834	4
7	14076	829437.881818575399	3
7	14080	829565.890783521014	4
7	14085	829573.61851028697	5
7	14089	829682.272108081297	4
7	14092	829837.231218370695	3
7	14104	830589.798055651769	2
7	14110	830817.33656387174	1
7	14114	830877.27547590403	2
7	14120	831313.95342471973	3
7	14132	831507.422501610318	2
7	14141	831730.699799835021	3
7	14170	833541.446029061696	2
7	14179	834859.35749802476	1
7	14188	835349.408003779614	0
7	14202	835778.374343834366	1
7	14212	837135.152857478962	2
7	14220	837747.582391934652	3
7	14224	839485.217729507375	2
7	14232	839714.134695419426	1
7	14246	840911.434124327628	0
7	14251	841395.11467117995	1
7	14264	842451.345257816272	0
7	14271	842674.819859453891	1
7	14276	842851.116054300631	2
7	14291	844743.233556308356	3
7	14293	844744.777636747139	2
7	14308	846157.811071500247	1
7	14315	846357.497471927176	2
7	14320	846532.273107861864	3
7	14333	846862.782394982411	4
7	14335	846930.292409885313	3
7	14349	847994.389488034895	2
7	14354	848044.331084103247	3
7	14361	848556.578451516959	2
7	14378	849447.087967829597	1
7	14382	849463.725146011713	2
7	14387	849862.572997673455	3
7	14394	849987.983393795881	2
7	14410	851876.569460126059	3
7	14412	851999.506862295236	2
7	14427	852427.121854414792	3
7	14430	853853.427513654236	2
7	14438	854016.906109299926	1
7	14456	854461.709115276917	2
7	14464	855000.171726838768	3
7	14469	855003.430780663906	4
7	14478	855151.284932033801	5
7	14486	855716.35261019799	6
7	14488	855923.993216779521	5
7	14503	856800.120601397432	6
7	14507	858517.555059166102	5
7	14512	858696.789336463174	4
7	14524	859500.446724799591	3
7	14528	859831.750711809853	4
7	14538	860197.196639626936	3
7	14549	860615.147011984226	2
7	14566	863344.285167101372	3
7	14570	865487.715667997525	2
7	14584	866101.768151638129	1
7	14588	866168.73617842221	2
7	14602	867641.920943428839	3
7	14605	868523.722804552328	2
7	14610	868653.077713943309	1
7	14634	869636.494239494791	2
7	14639	869895.321206596551	3
7	14643	869931.631360042271	2
7	14649	871447.294482007027	3
7	14662	872102.086751007365	2
7	14666	872384.23784210968	3
7	14670	872559.71311784821	2
7	14691	873224.335906362543	3
7	14696	873423.809019160365	4
7	14704	873702.274776404073	5
7	14706	873744.762771039394	4
7	14720	874133.495194759367	3
7	14723	874236.18468861424	2
7	14727	874386.001358850296	3
7	14740	875017.799836248203	2
7	14754	875621.859684406341	3
7	14763	876266.895619016875	4
7	14765	876666.450746547112	3
7	14780	877071.788902807737	4
7	14782	877615.671919053084	3
7	14796	878186.959945031342	2
7	14800	878668.896765960698	3
7	14813	878947.777632541432	4
7	14816	879512.945788354776	3
7	14831	880296.058213842945	4
7	14833	880347.810174338929	3
7	14838	880917.190037201652	2
7	14847	881438.173078038807	1
7	14850	881456.436695987148	0
7	14862	881681.836570242979	1
7	14883	884028.800342064203	2
7	14885	884679.308346364188	1
7	14900	885376.031930075293	2
7	14911	885719.621701199956	3
7	14916	886189.002455531319	2
7	14919	886208.33954307569	1
7	14923	886309.746155924234	2
7	14941	886904.978604828666	3
7	14944	887278.704795416366	2
7	14959	888769.81283067214	3
7	14962	889071.574076702935	2
7	14967	889419.432588668945	1
7	14984	889811.598401343268	2
7	14987	890452.174989784758	1
7	15005	891075.578057853813	2
7	15010	891156.405132665454	3
7	15020	893174.878651097924	4
7	15022	893297.859730850967	3
7	15040	894304.181437752271	4
7	15047	894788.103722988991	3
7	15051	894895.397643637279	4
7	15055	894930.939919595483	3
7	15059	894972.380320703577	4
7	15072	895565.357667041154	3
7	15081	896219.095228760609	2
7	15085	896406.975436814001	3
7	15097	896960.582930742636	2
7	15114	897666.369452309918	1
7	15118	897714.224225764367	2
7	15123	897927.998566922183	3
7	15142	901189.60146531473	2
7	15146	901191.194703097898	3
7	15151	901218.548556634859	4
7	15155	901656.17233655707	3
7	15166	901813.235694507543	2
7	15174	901989.258489834782	1
7	15193	903148.131340931682	2
7	15197	903431.167838096723	1
7	15200	903483.401903749978	0
7	15207	903540.631508300834	1
7	15212	903755.007138065475	2
7	15231	904420.182748497837	3
7	15240	905125.399351509909	4
7	15247	905942.319138900235	3
7	15251	905975.084590990467	4
7	15265	906306.32393118573	5
7	15273	906679.310041830722	6
7	15275	906810.473077390229	5
7	15283	907011.68526498604	4
7	15292	907820.680065519914	3
7	15308	909536.899353201516	4
7	15317	910628.149995629843	5
7	15324	910794.610220114691	4
7	15331	911008.168230881416	5
7	15337	911036.346126837938	6
7	15344	911165.65236075386	5
7	15352	911546.919692683313	4
7	15367	912135.89536486013	5
7	15369	912513.528591201605	4
7	15374	912648.455337733476	3
7	15386	913779.443411869894	2
7	15399	918589.566668597672	1
7	15414	919189.635615242891	2
7	15416	919449.832356398244	1
7	15431	920480.715664335698	2
7	15433	920864.780133244908	1
7	15442	921182.328475348453	0
7	15456	921914.996571433817	1
7	15474	922515.114453030457	2
7	15479	922532.427240861121	3
7	15483	922768.180523348454	2
7	15487	922887.382490548954	3
7	15493	923281.250044420645	4
7	15500	923406.44300767187	3
7	15509	924284.779904585619	2
7	15518	924429.625654094266	3
7	15532	925042.296750148486	4
7	15534	925333.578303977419	3
7	15543	926057.021316189997	2
7	15548	926823.877609171263	1
7	15571	929485.123347867417	2
7	15575	929488.936711850834	1
7	15579	929729.330406652499	2
7	15592	930805.934761150599	1
7	15596	930832.715317893207	2
7	15604	931683.169009764679	1
7	15610	932174.727253818753	0
7	15622	932574.873248346676	1
7	15637	934083.282638258075	2
7	15646	935401.028615111152	3
7	15648	935410.726286233441	2
7	15659	938071.389220367825	1
7	15683	939107.198084688932	2
7	15688	939113.019597930656	3
7	15693	939825.656752835219	4
7	15698	939832.506881142306	5
7	15705	939980.275261897655	4
7	15713	940074.964744017955	5
7	15718	940280.422890685341	6
7	15722	940525.595912768428	5
7	15738	941127.168465419626	6
7	15743	941199.768435356184	7
7	15747	941496.051743763169	6
7	15759	942163.385173791158	5
7	15773	942391.86941178113	6
7	15775	942849.902294019169	5
7	15783	942948.329653275149	4
7	15798	943053.828773405568	5
7	15800	943086.786458250388	4
7	15808	943576.81929687634	3
7	15822	943865.496451456084	4
7	15831	944514.821952846454	5
7	15834	945073.821831335854	4
7	15849	946591.817332452785	5
7	15856	946681.009987726972	4
7	15860	946765.97282555135	5
7	15875	947003.44848893154	4
7	15879	947012.021269093148	5
7	15890	947423.814235824184	4
7	15894	947623.334950487344	5
7	15899	947693.976201846105	6
7	15904	947780.548063584531	7
7	15917	948206.824879063088	6
7	15925	948570.277213936504	5
7	15938	948654.5782757519	4
7	15943	949171.452446814568	5
