file 297490 1483967995                                          
version 2
run QueueMeasurement-112-20170109-14:19:55-6545
attr configname QueueMeasurement
attr datetime 20170109-14:19:55
attr experiment QueueMeasurement
attr inifile queueStudy.ini
attr iterationvars ""
attr iterationvars2 $repetition=112
attr measurement ""
attr network controltower.SimNetwork
attr processid 6545
attr repetition 112
attr replication #112
attr resultdir results
attr runnumber 112
attr seedset 112
param SimNetwork.a.parkingLot.parkingDelay exponential(45min)
param SimNetwork.a.runway.landingTime exponential(5min)
param SimNetwork.a.runway.takeoffTime exponential(5min)
param SimNetwork.a.runway.throughputCheckInterval 16.667min
param SimNetwork.wg.interArrivalTime exponential(16.667min)

vector 5  SimNetwork.a.runway  landedThroughput:vector  ETV
attr source  landedThroughputSignal
vector 6  SimNetwork.a.runway  tookoffThroughput:vector  ETV
attr source  tookoffThroughputSignal
vector 2  SimNetwork.a.landingQueue  queueLength:vector  ETV
attr source  queueLengthSignal
vector 1  SimNetwork.a.landingQueue  queueTime:vector  ETV
attr source  queueTimeSignal
vector 7  SimNetwork.a.parkingLot  parkingOccupancy:vector  ETV
attr source  parkingOccupancy
vector 4  SimNetwork.a.takeoffQueue  queueLength:vector  ETV
attr source  queueLengthSignal
vector 3  SimNetwork.a.takeoffQueue  queueTime:vector  ETV
attr source  queueTimeSignal
vector 0  SimNetwork.wg  responseTime:vector  ETV
attr source  responseTimeSignal
0	1445 38544 1328 16456 73722.427711787687 950049.429187414412 892 617.70911893798 27429.665321207 4646219.0306023 33182455950.596
1	39989 33627 1308 16458 72511.790952542535 950049.429187414412 893 0 2166.7382981693 223438.50377467 176811512.95853
2	73616 52329 1306 16458 72511.790952542535 950049.429187414412 1786 0 5 1309 1977
3	125945 33391 1325 16449 73702.270793634436 949833.495097042929 892 0 6261.7578945882 642577.15098508 1580663273.6303
4	159336 52233 1323 16449 73702.270793634436 949833.495097042929 1784 0 9 2316 7584
5	211569 16830 1304 16454 72001.44 950019 879 0 5 893 1769
6	228399 16830 1304 16454 72001.44 950019 879 0 5 891 1897
7	245229 52261 1311 16461 72964.180255619799 950145.732797712996 1785 0 10 5675 22765
