version 2
run QueueMeasurement-56-20170109-14:19:22-6489
attr configname QueueMeasurement
attr datetime 20170109-14:19:22
attr experiment QueueMeasurement
attr inifile queueStudy.ini
attr iterationvars ""
attr iterationvars2 $repetition=56
attr measurement ""
attr network controltower.SimNetwork
attr processid 6489
attr repetition 56
attr replication #56
attr resultdir results
attr runnumber 56
attr seedset 56
param SimNetwork.a.parkingLot.parkingDelay exponential(45min)
param SimNetwork.a.runway.landingTime exponential(5min)
param SimNetwork.a.runway.takeoffTime exponential(5min)
param SimNetwork.a.runway.throughputCheckInterval 16.667min
param SimNetwork.wg.interArrivalTime exponential(16.667min)

vector 5  SimNetwork.a.runway  landedThroughput:vector  ETV
attr source  landedThroughputSignal
vector 6  SimNetwork.a.runway  tookoffThroughput:vector  ETV
attr source  tookoffThroughputSignal
vector 7  SimNetwork.a.parkingLot  parkingOccupancy:vector  ETV
attr source  parkingOccupancy
vector 4  SimNetwork.a.takeoffQueue  queueLength:vector  ETV
attr source  queueLengthSignal
vector 3  SimNetwork.a.takeoffQueue  queueTime:vector  ETV
attr source  queueTimeSignal
vector 2  SimNetwork.a.landingQueue  queueLength:vector  ETV
attr source  queueLengthSignal
vector 0  SimNetwork.wg  responseTime:vector  ETV
attr source  responseTimeSignal
vector 1  SimNetwork.a.landingQueue  queueTime:vector  ETV
attr source  queueTimeSignal
0	1238	73843.144393627991	11352.322889184
0	1249	74399.717004144631	5301.259602301
0	1257	74516.118077530768	5515.3711157419
0	1282	75795.205494193958	4379.176099949
0	1292	77332.143779539605	2665.1322024371
0	1311	80562.021988329114	13746.056298559
0	1323	81829.576254664358	6769.126798821
0	1340	82659.701335743047	9128.8752418465
0	1354	83440.304687607828	1752.9659821841
0	1380	85302.228047581075	3059.6109579866
0	1392	86092.371740406162	7492.5537006608
0	1414	87290.619931956566	3056.1091070044
0	1422	87711.721756889388	1671.1718445645
0	1450	88555.250517276279	469.65337209035
0	1463	88935.414916006206	576.09612173947
0	1480	89618.963543698244	3214.2315684599
0	1489	90108.464597817662	5700.319793082
0	1506	91041.530043420268	2560.3088650293
0	1523	92432.163528381905	3181.7984136725
0	1560	94872.068845953733	1972.2677128815
0	1574	95951.247344805262	5455.0598699156
0	1594	96236.188577819332	2949.2341299922
0	1605	96827.570226727659	2162.7144906722
0	1615	96925.023647645666	4283.2002836155
0	1650	99668.27194564295	2874.7913460546
0	1658	99919.893847217443	7838.9483203335
0	1667	100665.390764215798	2803.9991904085
0	1693	102369.478593770872	1633.454492815
0	1725	104189.040122856745	5683.6208493534
0	1735	104402.839005766627	8425.0579747753
0	1743	104823.347360322841	7582.9199630312
0	1752	105468.969539214776	2677.8141739673
0	1772	106985.942512325905	3865.3982435082
0	1778	107190.639914328574	3394.3528447387
0	1786	107350.616740293658	6328.9101113967
0	1811	108985.570358693831	2933.6321556174
0	1848	110294.093852541565	1061.2787289039
0	1862	111090.972047135254	1914.5485930709
0	1871	112495.532061423692	3899.1631960189
0	1888	113097.248038799208	5588.3592438015
0	1896	113542.079743355655	3372.8134687795
0	1922	115357.44275785605	5828.6249280325
0	1974	119584.74827628221	7084.7597689843
0	1985	119871.941037583735	1726.6240995965
0	1990	119878.172227766062	3331.707694413
0	1999	120980.161806456709	2920.5795231382
0	2008	121563.261050495239	7637.4820114766
0	2034	123793.414781364419	1702.7771448499
0	2084	125729.290803336773	532.93035216226
0	2106	127137.876292544849	7998.1119561921
0	2119	127766.049148225029	10031.350564244
0	2128	128021.540283859836	13373.497894298
0	2133	128442.466903559376	3788.5035274296
0	2138	128474.127986914072	6122.2157065516
0	2146	128813.7030751325	3316.5645915955
0	2160	129173.253702609485	4368.5910401388
0	2168	129376.938163242798	4155.1424675474
0	2198	134389.877481085808	7457.4797005481
0	2216	134772.523124146004	6133.7242620172
0	2225	135387.050932185349	5865.2941810539
0	2230	135396.248124922732	1917.4650380757
0	2253	139210.412148512574	4872.0020361484
0	2275	140701.797144606287	1578.9226640642
0	2300	141980.134192391148	1859.8719174531
0	2328	145189.486331516122	4390.5693686611
0	2336	145504.937748931215	4053.202515234
0	2408	149901.687481857831	5717.7175671053
0	2417	150405.349462080661	3426.2583644151
0	2431	151010.906352854403	13772.415852363
0	2436	151202.088371110723	7756.3300203577
0	2444	151982.374807417974	4278.5729224138
0	2450	152194.201817033342	5608.0736718923
0	2455	152328.069050875007	3619.3732299269
0	2463	152526.992039136379	4166.3039907172
0	2471	152723.205599407651	6223.7532098284
0	2499	153893.074539509998	1166.1754686062
0	2544	155862.587829675422	5564.8980213321
0	2549	155916.691719142651	2035.9062050679
0	2558	156542.672831122755	2408.4326159782
0	2580	157207.711975070212	4063.0040240041
0	2623	159131.478761365459	4906.0182803167
0	2636	159402.538984849665	4877.5315261893
0	2644	159993.578293706332	1865.5474108965
0	2653	160314.331252651985	4355.5665244004
0	2663	160741.271619280297	3780.6753370788
0	2673	162977.744569612599	3945.3897583976
0	2690	163764.360211056408	6366.2614011155
0	2707	166466.057640976844	6269.9286568377
0	2729	167359.142631572773	2234.289943828
0	2734	167754.006162155864	4533.4937952797
0	2768	169711.53150257636	1706.2787216726
0	2776	169929.314676659155	11500.333039901
0	2786	171312.288064658148	3068.7496003187
0	2804	173593.76064732433	7892.7690954571
0	2825	175006.615173986794	6695.3319082127
0	2847	176108.355043937883	2335.0451571363
0	2855	176462.600776570577	4103.9016669053
0	2882	179883.837821063852	3191.4343973946
0	2903	181007.970780335036	3211.1892540469
0	2908	181136.441423908489	6144.1795762683
0	2947	182764.473006937673	1433.0352080942
0	2990	183821.849053316168	8701.8046182518
0	2998	183954.286889584703	3806.0485227112
0	3015	184361.453747201709	1110.0785173794
0	3031	184962.638306257939	2252.3275800834
0	3040	185853.097194180367	1847.3718742716
0	3055	186800.733750676403	4591.987408348
0	3060	186833.22431187632	5252.2545677261
0	3065	186864.014370331412	4214.4213428468
0	3074	187819.662876075639	4799.8551422085
0	3100	189836.929814007168	6595.4042031994
0	3117	190430.794412609606	2568.0153332488
0	3141	192762.886208650608	2621.7551980027
0	3146	192985.697542994559	4843.3626099616
0	3152	193170.254414096141	8623.9828826988
0	3195	196596.358147066131	5584.0623967316
0	3283	200668.908185656697	4041.5598009184
0	3288	200762.20993306772	7226.0690421322
0	3293	200966.310630189368	6401.9157508595
0	3305	201784.994062960111	4054.1478201577
0	3311	202036.695153421652	3646.8338627747
0	3316	202226.007717706986	5131.0751053488
0	3324	202488.914267454825	3855.2330210232
0	3337	202859.535713730644	6012.4008047838
0	3358	204135.51998056251	4353.7228530916
0	3363	204234.445932415131	10590.420808969
0	3397	205762.787255578795	8073.6090480103
0	3403	206412.294070940793	3202.1378731477
0	3408	206642.723625119039	2273.5653165853
0	3413	206661.815568385209	4189.5897630682
0	3432	209419.72027778635	13468.572229232
0	3440	209600.533364293968	4986.5092910109
0	3458	211153.131895346271	2300.9842744264
0	3492	213403.368745470505	2070.2081380967
0	3520	214572.440390780042	3641.2152511694
0	3528	214703.757430358262	1763.5154300256
0	3533	214724.605372509883	1228.7328276281
0	3551	216619.505733433609	5074.6585353437
0	3579	217792.281167327542	4268.8251077708
0	3584	217878.174744070788	3061.6120036552
0	3615	221337.98080745729	4120.3711543266
0	3620	221373.241611472945	2391.6915511531
0	3645	222401.511898575389	5549.2822539613
0	3696	225406.505708064095	830.12893185703
0	3704	225724.662714262659	2523.0875454533
0	3716	226366.006214535455	4152.35880121
0	3736	227427.667178319603	2890.4124486171
0	3741	227505.313430840029	5492.3203140058
0	3749	227560.527782337791	3852.9171439226
0	3754	227721.498930118335	3000.2324207911
0	3777	228910.854754467282	8511.5879791104
0	3797	230839.506246357051	2960.2574513218
0	3824	233507.02894475484	4887.7953297207
0	3903	236092.002487063231	2141.2411333415
0	3908	236135.124422636054	2188.0461148205
0	3913	236207.05208196779	3798.4269214901
0	3918	236274.968433856771	2100.4866928972
0	3926	236600.396860617285	3717.8459872523
0	3931	236626.018863179799	1758.4765176579
0	3960	238146.146797522721	3192.7471655996
0	3973	238443.584238422227	1663.5112536848
0	3993	239395.217702480051	1577.2888439276
0	3998	239804.447290464729	10995.688294829
0	4018	240569.268557682079	14762.282888994
0	4023	240576.10816311191	5076.681471265
0	4031	240669.52779864636	2565.7915395485
0	4040	241784.697334184856	7503.1406753358
0	4057	242609.092253708569	3866.1822659134
0	4091	244299.872256047178	4372.0940115062
0	4099	244746.938767998465	1177.1902360901
0	4108	245426.978395361541	2327.0178859358
0	4145	247678.415108049578	5334.6983541736
0	4159	248575.763544626391	2860.0581813645
0	4202	250805.980571274678	6774.5678775315
0	4213	251078.521408866773	4216.1361143364
0	4218	251385.921032972764	1923.5383422796
0	4253	254197.955428079818	8630.3605609715
0	4265	255024.373129930425	5359.3850034602
0	4294	256982.349770577782	7555.3063296512
0	4329	257802.57821247278	4960.0972280774
0	4338	258572.292180785595	7945.0874238066
0	4344	259215.629748840897	4266.1208716405
0	4355	259532.499439054714	13276.797618728
0	4377	260039.415475576673	7190.9396217551
0	4385	260199.601212632815	7802.1145185704
0	4395	260554.266443911007	4059.3861290672
0	4403	260753.797044426224	5032.9838816839
0	4412	261457.614622174234	1717.5914323658
0	4427	262555.949448074381	5149.8688822864
0	4437	262968.353769970262	3605.2981730015
0	4446	263820.957272147776	3660.447924512
0	4461	267098.290601466134	10638.490590194
0	4486	268983.370311060735	7187.7492835717
0	4531	272227.262499279484	3409.0360989472
0	4558	273302.011880965254	6299.1138528422
0	4563	273335.137606793932	4795.1086227623
0	4572	274256.257535995043	4171.9772599191
0	4580	274414.88542990241	5273.3141281119
0	4594	275173.289845456801	3169.1528277087
0	4626	277087.245110484787	4907.7699463596
0	4637	278015.680267521305	3639.3321988521
0	4645	278269.805768745596	2286.9985635409
0	4677	283088.602869384588	7836.1538510872
0	4682	283414.089684944524	11192.574493653
0	4699	284400.72152234033	2421.6313813609
0	4727	288451.764858247075	4683.316743679
0	4735	288979.04992815058	12016.182320753
0	4745	290987.179368751747	10388.336394453
0	4782	295899.230340893588	4672.0296903609
0	4808	297789.518435858453	5219.7116763976
0	4819	297874.793126674779	2626.3274892622
0	4825	298006.012704853202	1622.2403177633
0	4833	298777.705300915013	13953.27249099
0	4842	299163.87365849217	11618.973489937
0	4869	302727.758488904897	3208.6722966491
0	4879	304083.369137832075	6564.5075470137
0	4919	309150.593544276646	2971.8422683103
0	4924	309533.620790846477	2171.2183386465
0	4942	311250.353701201166	10024.107207104
0	4958	311667.847430979577	4143.1301932173
0	4976	313245.863238576495	1904.8612585531
0	5003	316253.831800705484	2610.2143849738
0	5023	317855.253195173768	3019.0333157103
0	5065	319341.539468408927	6487.671370511
0	5070	319800.414714094005	2753.0322461793
0	5083	321228.019588004405	3184.3260195818
0	5096	321600.168837269409	11029.8299068
0	5171	325243.960011796292	6543.4878306009
0	5179	325718.739280027649	9346.7960224961
0	5188	326225.903358118096	7714.8514665336
0	5201	326979.815533001669	5839.417966208
0	5215	327235.62805222751	3769.3846886672
0	5235	327838.658176267464	4074.6989925726
0	5326	332173.756902883189	9358.3088723281
0	5334	332420.035001911829	9855.9371905505
0	5339	332676.734431250386	9913.164135732
0	5345	333395.310460851722	9222.2212699971
0	5350	333561.059745846235	7498.2600874763
0	5355	333830.449771552778	6270.1638718031
0	5361	334012.662523626608	7261.1893313518
0	5372	334786.470275659337	5711.1188401503
0	5411	336516.229896071292	8515.3993870246
0	5420	337185.044486104943	9078.8763897769
0	5425	337347.4957783626	9779.0970565096
0	5437	338434.293149510929	8847.1765457653
0	5453	338969.900680460379	8811.6150749697
0	5467	339159.273930079703	4747.5759581593
0	5479	340081.713612379651	5686.5255765503
0	5490	341128.426957687317	5231.9233783317
0	5495	341298.90724404388	13074.944077534
0	5500	341541.819659630733	11354.809532534
0	5517	342757.322628593302	3538.8321299084
0	5526	343292.786141775695	5051.6074979503
0	5534	343643.686431582717	4694.8365383772
0	5551	344996.909128295035	9534.703975214
0	5585	346823.339689508115	2555.6846590458
0	5594	347496.716292051929	2273.6630049371
0	5603	348637.719334086165	3095.9366051104
0	5629	350144.020151014429	4032.7331801056
0	5654	351668.315498197456	9741.1658661416
0	5671	352017.573473059354	1426.394716424
0	5683	353144.150526035988	4499.8291002802
0	5696	353414.062550899916	3787.1136397557
0	5714	355647.929848637331	2680.3533326309
0	5732	357167.909356384206	6228.5887323414
0	5740	357528.09537030409	5855.4150486745
0	5748	357749.164534958409	3817.6059831656
0	5783	360025.365719093569	1014.3832142002
0	5791	360699.801469853183	4408.222192838
0	5887	364454.393215436635	5210.8090523418
0	5895	364592.002632251752	6568.4914844305
0	5903	364722.320940935972	1503.3979999175
0	5908	364744.536353733852	3670.5794531696
0	5916	364953.110006062599	2223.7175531365
0	5935	366202.305025709057	3667.9668972326
0	5971	368153.308643649316	6535.3590359545
0	5979	368383.115956864238	5464.8339907413
0	5984	368702.263352572519	7410.3055782424
0	5989	368840.133155451532	5552.1786569556
0	6001	369409.754032578709	5803.3280717826
0	6049	371344.32299121492	5986.8893484836
0	6075	371809.047065565723	6074.4696511021
0	6080	371852.915020628963	1587.0795961521
0	6092	372153.194725458396	1818.9907428487
0	6097	372252.373148296898	3348.2712540254
0	6102	372390.786108748498	1377.0165685223
0	6107	372446.527232903174	7040.1295814632
0	6126	375202.06454057764	8743.031521114
0	6134	375840.832257986802	4513.5253966059
0	6152	377874.185043530896	7764.3375150088
0	6169	378573.933093342668	5801.1686797587
0	6178	379260.711091568698	2226.0161270557
0	6203	380831.370615413984	2615.6401744199
0	6240	384348.206921914658	3999.4666672972
0	6253	384916.091884579341	14325.688616671
0	6259	385832.408946059125	3791.2776588599
0	6265	386257.30645723517	6167.7494887209
0	6307	388725.706019282048	1599.0650413162
0	6340	389647.867505831519	2780.1007799823
0	6355	390298.496086316065	4033.3145718844
0	6373	390600.336031872921	2307.1696372284
0	6382	391119.962954961721	7646.2533432892
0	6429	392669.408841084614	2692.1754923666
0	6441	393076.182986186628	10208.82604829
0	6446	393405.312112661353	4108.3582763285
0	6451	393526.398646540843	4564.1872741891
0	6459	393648.834593503223	4203.8375050132
0	6464	393688.561683413585	2036.6087169499
0	6491	396016.478202069368	4399.8393609639
0	6545	398919.559006464737	4174.3968324266
0	6567	399362.938681811985	2628.0938159886
0	6572	399371.893083764386	7412.5334722547
0	6577	399638.185400695771	7316.1950187006
0	6582	399810.436121471327	3002.7111195253
0	6594	400221.675452508775	3484.55555926
0	6599	400224.576940447309	5071.1865580828
0	6607	400357.067926379968	2829.9638518437
0	6616	401818.555394333249	3437.1205627555
0	6635	404654.302858774486	14468.490236645
0	6655	405905.938413246805	1778.4983267643
0	6686	407902.981985955555	2957.844088217
0	6701	408957.807048723686	10513.053565825
0	6712	409227.782314824213	3343.4961417144
0	6720	409617.758171327793	2844.2225544664
0	6745	410806.371027404348	1089.416352485
0	6773	411782.258104359011	2875.3868880291
0	6778	411794.644233903869	5487.0817961341
0	6790	412136.770677833001	992.14720595045
0	6806	412763.359294613174	1549.2998489923
0	6982	420380.159916002979	9990.3847912975
0	6987	420418.932369653099	7870.642308649
0	7008	421222.543936708212	7888.6528984084
0	7016	421383.559249135864	6980.6600339891
0	7024	421555.909693114987	6859.0603592352
0	7029	421727.749085787383	9594.6651131736
0	7037	422001.674614664063	8964.0534090151
0	7048	422424.526041555742	6819.9237498195
0	7056	422748.477526905653	7594.0137881441
0	7073	423716.055344414345	8634.304052345
0	7087	424495.678242098163	7646.3696618524
0	7092	424607.501305644696	11505.35325277
0	7100	424872.10140606232	6598.1945840347
0	7109	425286.555537863092	8878.549180976
0	7114	425367.577471169899	7969.8934183286
0	7119	425510.776903925089	9361.1089592668
0	7124	425611.520156209325	10387.905121929
0	7129	425934.208665450094	11018.869306843
0	7135	426109.728681430232	4259.434095581
0	7143	426133.659246337123	6521.2334694862
0	7170	427168.533373313602	4650.2452215972
0	7195	428806.053574541881	5374.9584000279
0	7213	430114.48512777675	3991.8968083131
0	7236	431228.829589636188	1792.7481267619
0	7254	431957.616328950855	5418.4121509352
0	7271	432378.22699973249	3821.1625003853
0	7280	433010.332855780918	6830.9721706139
0	7297	434228.060213792036	3306.8011243546
0	7305	434975.975401927249	4441.7138012915
0	7318	436560.812997346888	4263.6030678027
0	7333	437120.42388809955	9421.9460485476
0	7349	438391.680314215328	7485.9920607724
0	7369	439397.566167009653	2740.6888852992
0	7415	442921.506408409402	6346.5747026954
0	7426	443119.512535689262	9769.7191304432
0	7434	443365.264723617741	4088.7280275836
0	7445	443599.495835420592	1456.5451238531
0	7462	444532.319111187833	1691.3684952785
0	7480	445711.889265835668	5923.9336215149
0	7499	446529.201288646864	8070.5847649033
0	7510	447011.666873365819	7607.1317024904
0	7536	449467.762453994209	5889.1976728171
0	7544	449640.985180574487	2264.7653797174
0	7553	450583.253620714375	4405.1607416317
0	7596	452862.109872371014	7191.07917125
0	7612	453163.263860859136	2494.0089359885
0	7620	453532.555962160771	2150.7560657215
0	7637	454085.108471335728	8455.9448711514
0	7671	455136.071564263747	4377.5026473731
0	7728	456804.242245573328	2623.4469727855
0	7740	457273.490160280209	4837.0560785894
0	7751	457523.636200432245	3041.4342806339
0	7757	458135.763879305664	1812.5176897597
0	7775	459718.494243883785	4173.573847325
0	7791	460053.322780876932	3963.7641829722
0	7799	460647.923913489895	7054.4566688435
0	7805	461358.163448038052	6263.1759364512
0	7811	462197.314288441686	10217.64641473
0	7816	462537.190008149418	7503.1970034704
0	7821	462854.515426776355	3703.4746804781
0	7831	464208.210284921214	7710.7054338532
0	7847	464797.326531405273	17306.46808535
0	7856	465071.088869329498	5460.060041568
0	7876	466283.578852586011	1801.4031983496
0	7933	469279.714371749003	1577.6455693244
0	7944	470268.552233920767	4874.508244048
0	7949	470547.565190313823	3120.8698933797
0	7982	474270.889518353737	7647.7081632544
0	8014	476354.985865232088	8422.6671934404
0	8019	476367.135945141897	10110.723416136
0	8047	477253.802963555301	5018.3848293547
0	8060	477659.414538373327	1067.8737251095
0	8096	478946.93313989685	10209.643961517
0	8101	478999.267875298629	7751.2399591705
0	8118	479548.302747688674	8082.9388778265
0	8127	480184.838550403987	2428.4847070749
0	8152	481833.02951949986	3576.2248797987
0	8161	482193.156886002564	10603.887117491
0	8172	482957.660720046529	2565.7817484613
0	8189	483187.774620541329	6525.1303845037
0	8194	483247.246563951006	4720.2774083974
0	8215	485680.956013325399	8501.7239581065
0	8220	485837.314057450524	6831.4229610558
0	8230	487204.058139520009	13555.345769078
0	8247	488537.206634410785	4397.402243215
0	8257	490265.151311796049	8962.6267697204
0	8275	492125.320716784397	9202.7902400056
0	8287	493459.786320340158	5336.3147235344
0	8326	495872.530756126954	4928.5786327167
0	8353	498312.540017704806	3716.6500482233
0	8400	499786.434188431725	993.47720449343
0	8421	500409.459271376296	1670.5444958684
0	8455	502337.00714457078	7573.3584492339
0	8482	504045.082087876103	9642.2329107732
0	8495	504553.582571195529	11109.074840085
0	8509	505198.432212262208	7795.5894215138
0	8519	505930.783598718347	8686.3431668072
0	8524	505951.654738311304	7154.1906542047
0	8530	506387.343135805129	6053.9414572643
0	8535	506443.065435406564	6597.2030586544
0	8543	506871.450220749637	5859.5489010694
0	8554	507659.140616501183	8472.8963022808
0	8562	507759.072434367352	3907.7562548178
0	8571	508178.866914391927	3160.5537298007
0	8582	508716.459218225485	6408.3456358552
0	8587	508725.115926993269	4228.2988759874
0	8606	511983.89427476797	5252.0743577171
0	8634	515151.951840671327	2355.3999960867
0	8651	516798.908991612417	3151.3372527894
0	8687	520297.113784008015	2794.0505560101
0	8698	520934.839497909317	1862.8141550565
0	8722	522701.19461439773	11258.575048557
0	8739	523391.329541882773	3367.3042513837
0	8765	523825.896456261261	7981.5432671446
0	8774	524258.696921839395	3354.8088154022
0	8779	524574.421081682474	2304.8653915557
0	8788	525212.378983357687	2212.2226576535
0	8804	525764.796509512033	2270.132873975
0	8833	527905.318492807488	2091.0860362801
0	8847	528811.565253369624	3308.916705388
0	8864	529188.38047381258	5951.5157574002
0	8891	529844.498460279995	2144.4252896635
0	8900	530073.040093575563	1082.8469561999
0	8905	530453.124898208276	3417.2138523821
0	8922	531909.80659339326	2603.8096895493
0	8941	534569.725130195118	5229.1217040103
0	8950	535534.939865529966	4496.8074517654
0	8977	538190.481065111384	2184.3459779591
0	9002	539957.978633624454	3151.5707878015
0	9014	540668.215419711042	2183.9195601163
0	9046	542966.629581975935	4233.8909126667
0	9062	543119.769736409927	10724.764895924
0	9087	544562.270533495883	4319.9094694974
0	9098	544947.73909108926	2031.0464662367
0	9126	545677.927329645332	2325.4270080335
0	9139	545929.652496054865	2448.2910851911
0	9162	546803.083627171219	1275.6207243497
0	9215	548864.060618993013	3962.2469291174
0	9226	549338.255536780835	3897.2972667468
0	9241	550069.450397194964	7405.5158903145
0	9254	550363.707300826552	3625.8947418184
0	9262	550462.587268197528	4549.6532406509
0	9267	550572.255511918232	3019.9882718653
0	9272	550885.528839515159	4455.1692352503
0	9277	550888.278728251605	3586.7967461551
0	9302	551876.870455715433	3113.7841683795
0	9311	552019.600581374026	583.57908437562
0	9349	555045.926268306119	5701.1241636226
0	9354	555057.809623485304	12253.824180837
0	9370	555921.24605573613	2468.1361609617
0	9378	555947.315584847583	3112.650091035
0	9387	556785.016688381189	5147.6030514383
0	9399	557433.37421319035	10360.000608015
0	9432	558280.508489409875	4782.2574453603
0	9437	558704.545830141644	1346.0441782553
0	9447	560430.43860868398	2996.6325251755
0	9455	560803.496296515463	5680.9715273975
0	9472	561932.245009798649	4186.339513029
0	9492	565956.006597445058	4409.7097869423
0	9518	567587.592384640695	4864.4081130929
0	9527	568127.020876021142	2134.7304434781
0	9544	569860.785676919575	2945.6301592012
0	9594	575680.285350120111	4398.7221575824
0	9632	577117.406726246691	8685.7900053163
0	9643	577896.050526865104	6216.1017744492
0	9659	579235.183519178725	3780.2328421012
0	9672	579900.627811417157	3117.5582216295
0	9689	580478.895825437689	5359.8362869156
0	9711	581651.369723557526	4561.9636445928
0	9722	581853.64595866431	10243.882320377
0	9727	581971.917176454867	3461.2491869873
0	9733	582116.265488635587	6444.6558819758
0	9750	583036.389860390667	2811.6823047044
0	9776	585328.304181180778	1970.5579533632
0	9784	585952.332213043001	5851.1434541823
0	9810	587100.45624923041	4445.5145424881
0	9827	588812.918669161244	8985.1893015066
0	9845	589915.795944204572	3757.0867711888
0	9864	590421.660218433898	6370.1087381735
0	9872	590771.442337056469	2253.1365693533
0	9881	591298.63803220268	5281.0454937061
0	9886	591579.239797980018	2417.6239069722
0	9903	592507.011510461999	2786.2193226643
0	9933	595107.270379159961	3116.9221569044
0	9949	595755.629135940203	1679.9094977195
0	9966	596189.107137066441	1570.0532597783
0	9980	597246.234840580986	4367.8464034522
0	10007	600014.179274021594	3994.8626680464
0	10016	601451.645002297986	3604.4190787053
0	10026	603262.299207218202	7599.997350278
0	10056	606865.194668382205	8525.0871816527
0	10061	606928.372730517556	2523.8882851139
0	10080	609157.18047968001	3565.0241836337
0	10099	612012.821253900831	3916.8122232357
0	10116	613618.91339298673	2507.9958294816
0	10151	616336.751689921393	4311.0790611336
0	10177	618461.665650389966	4524.5130983581
0	10186	619242.801768528149	5153.3638972771
0	10202	619495.15266449399	2975.2757440905
0	10215	621421.731788247718	5576.3398868413
0	10252	623792.853321372011	1485.2712876954
0	10258	624047.565492400453	6751.399521646
0	10263	624049.189944194631	2649.8489614032
0	10289	626900.996627892434	4509.3466671735
0	10306	627776.575776125424	8422.4550393088
0	10316	629051.008163751459	4518.4964612985
0	10360	630717.069665605341	1634.8906265779
0	10372	631049.400250740226	4855.2730737823
0	10388	631577.912535547496	1588.8156091748
0	10413	632407.648526423075	5375.9361002494
0	10418	632502.099222296222	1490.2906713367
0	10433	633225.346486663996	3705.967622967
0	10454	633988.826985517492	2566.7385751814
0	10465	634129.659047519438	4069.3291518048
0	10479	634977.472181383549	2255.9397385522
0	10493	635465.883568917104	3942.1563087337
0	10505	636921.374698789587	3016.1206830337
0	10539	638129.203427147158	5373.4800102098
0	10553	639793.74071617182	5093.7630485422
0	10558	640006.914998624153	3107.8414638976
0	10571	641698.193079133203	4036.268785782
0	10595	644094.025335026545	6114.2471501185
0	10603	644444.816011067093	7428.7871153978
0	10629	646868.13754015236	5725.6691899494
0	10662	649214.488065120515	2309.321842358
0	10667	649259.476281110387	4761.8821800689
0	10672	649361.200516563527	3671.3253684805
0	10696	649815.902155047696	6419.9567885971
0	10706	651364.721238959373	2000.1298992017
0	10715	652488.296791800615	4150.2784323159
0	10732	653760.985657816941	4068.9194147898
0	10758	655576.656410269067	3055.6208629199
0	10786	659131.96924922548	4319.7858695033
0	10795	660588.902041878771	6681.9250757257
0	10816	662622.946213955304	5090.9315559955
0	10860	668392.719656402666	2410.2567053449
0	10881	668600.254786467666	11800.684110444
0	10886	669002.705843836493	7505.2729005306
0	10901	669847.891674698256	7229.0759771883
0	10912	670133.179071265622	4147.2138778353
0	10917	670295.324960885176	2117.0683396305
0	10935	672537.468686883928	3468.5639802681
0	10962	677185.22355857148	5705.3117382624
0	10978	677675.245068343638	9233.9345133439
0	10988	677759.480292740852	2858.4008949125
0	10997	678064.86551246094	900.98709358855
0	11039	680193.059257487947	2678.7879722586
0	11069	683315.113944641997	3891.3788904974
0	11074	683695.68574379265	1615.770078191
0	11082	683739.126537750053	5562.1273203265
0	11091	684225.523626034108	4821.540167662
0	11111	685354.979410630142	2664.5948405027
0	11134	687379.279165705658	7656.2019884449
0	11162	691368.54365360577	6411.4440661235
0	11186	693754.60680136778	9424.3161397989
0	11206	695356.131359835371	8950.6725814094
0	11214	695816.164514747956	2164.2985528654
0	11223	696108.281318022847	3072.9867149645
0	11240	697982.401598504073	9406.2301190671
0	11249	698222.893857715749	8634.8181957386
0	11275	700646.425853998846	6371.506707854
0	11284	701476.340464087141	4309.837948071
0	11358	707055.764426689173	8291.2270361728
0	11374	707982.652738478507	5640.5478997201
0	11389	709492.188141621219	6885.3002341744
0	11399	711358.784754915125	6125.1408174304
0	11412	711522.624876003012	6684.5914319319
0	11440	712824.015791551099	7802.8736781105
0	11465	713898.275115464397	2408.8540157735
0	11470	713920.395347599513	6224.2996494802
0	11482	714118.291759680379	8032.1025181901
0	11490	714395.426117512673	14974.244165384
0	11495	714482.04179129034	7429.5251964901
0	11500	714774.340172987319	2716.1109264137
0	11506	715149.6487592215	3928.3750982853
0	11563	718314.734937083854	2441.736568127
0	11571	718754.545713549035	5860.0735410856
0	11580	719124.427636915583	3291.2473463134
0	11593	719591.996014776708	7960.3513207183
0	11610	720276.95597798928	1432.3622108228
0	11618	720656.575932462752	4935.4557199642
0	11652	722090.404383551148	2550.8216577547
0	11657	722442.173893065196	5312.2855039884
0	11672	723848.94856997441	3164.1170276055
0	11705	727511.704651175685	6929.7235525405
0	11730	728518.913223051003	12396.587489787
0	11744	728927.601901329538	4179.1575943792
0	11766	729895.237591117155	8433.5735974396
0	11778	730231.548121739506	6883.3893886005
0	11783	730236.299059332314	1638.5842676598
0	11788	730576.244144914628	2381.6318441067
0	11793	730834.499224151574	7226.4833254499
0	11802	731393.459607187708	3933.5205764064
0	11854	735210.100928664073	1807.9470430521
0	11862	735980.821621668027	4122.7254928947
0	11877	736930.132285504291	2609.927568392
0	11897	738509.042367985664	9717.540864038
0	11911	738832.232008167947	4176.4444401873
0	11916	738859.134610305789	4285.6298296343
0	11921	738991.864501136238	2667.2596183602
0	11948	741714.7149838022	1050.1606598794
0	11969	743755.532235550595	2769.5325932465
0	11986	744090.473750319852	7731.9853830388
0	12040	747428.534190078158	2271.4226287139
0	12045	747479.385657383015	3579.4480384705
0	12053	747594.738820049733	987.01441353089
0	12059	748205.736348866111	1699.85010075
0	12077	750448.707944356726	3256.8123542731
0	12097	754274.032257149425	10814.943110826
0	12124	756460.975573882288	2897.3097366156
0	12156	757531.589863925924	14729.43978242
0	12185	759794.717068895155	10450.476047856
0	12190	759851.942934575586	2857.9986514835
0	12199	760523.290717870777	5181.2386392349
0	12208	761083.20461018608	4981.5252730618
0	12219	761615.862610656898	5059.6659407729
0	12225	762252.502406433986	4527.6878062151
0	12233	762412.784988901185	7945.4608747855
0	12290	765301.962494280952	1789.2853066279
0	12335	767401.615356077823	3619.3611317797
0	12340	767763.315587716879	9908.8631693367
0	12345	767849.605343770401	3761.7436049848
0	12357	768088.626910306509	2963.4796293822
0	12362	768257.199049410462	2991.9065444774
0	12367	768621.751581510961	5182.7864993669
0	12377	770090.339925644293	4474.4818724488
0	12413	774220.300856803192	8067.4441092219
0	12430	775130.328549975789	10611.014197954
0	12452	775703.322757710676	2324.2847616794
0	12462	775812.545189987427	1278.8100347074
0	12504	778073.352619328202	2162.9382363194
0	12519	778674.864952690829	5450.6952292279
0	12524	778775.30796031813	8022.0713470596
0	12536	779773.062250448532	4365.410222145
0	12550	780398.415347763058	3050.6076774781
0	12564	781427.710138765703	5821.9117772408
0	12595	782753.688482264114	3499.0629036045
0	12612	783842.505578260861	5971.1861634979
0	12618	784072.417388767171	3680.150076765
0	12623	784525.493718378034	2988.7952831849
0	12666	787489.941518595715	2309.0909823567
0	12674	787518.279411332701	2145.3238233959
0	12764	790757.052981990417	14514.200651947
0	12776	791108.379427483864	3264.8634547839
0	12789	791276.690540673754	5389.0460762696
0	12797	791593.708108831664	3036.7829284927
0	12805	791772.661306718424	10273.230562761
0	12825	792900.123985823614	4295.8717069953
0	12833	793011.677968102091	3986.9285406318
0	12847	793568.379943839753	10935.076164353
0	12861	794141.525743332931	5331.7269205436
0	12866	794251.137930710234	4350.9409364122
0	12874	794289.431621495883	5648.2562897862
0	12884	794411.638726226345	4088.7496577055
0	12899	795539.075144626533	4709.8063661362
0	12908	796145.796392165362	4446.4180312045
0	12913	796599.949516012618	10040.127164559
0	12918	796610.705285561469	3142.8042570972
0	12923	796845.19838040038	3906.2142628333
0	12966	804568.946836248841	3168.1727382914
0	12971	804978.292830358976	10692.144510547
0	13026	809010.416230885659	7251.4929389405
0	13032	809254.489499883108	2510.5651901752
0	13049	810083.528173387018	2974.1156836217
0	13057	810454.300595183633	7662.6220707788
0	13069	811737.395450308816	5776.0177869489
0	13078	812298.660264031297	7185.1720539222
0	13095	813477.313445553629	6100.2055189516
0	13101	814037.092512975235	4682.0154954321
0	13127	816439.339063559538	4547.2237817259
0	13153	819015.457919621871	3318.1564148181
0	13171	820170.839812339891	2677.5757640495
0	13239	823431.220103288107	4342.6839349045
0	13247	823584.958182234588	1868.521314956
0	13283	824774.523894107765	9403.9833799896
0	13302	826054.693686655226	3518.9718015312
0	13320	826605.006388925744	3689.6037753156
0	13334	827023.874248446865	4611.1031006154
0	13347	827556.392925053728	10415.461551063
0	13361	828459.992993541001	6233.1293600512
0	13370	829469.910515384754	5823.7052257839
0	13383	829767.453728409003	6254.2204944814
0	13391	829966.826196654032	7479.0525735903
0	13403	830311.257415153095	6323.8649016425
0	13411	830326.341655746699	5191.4299033804
0	13444	831878.21276375941	4894.7457442849
0	13469	832821.125159051638	5269.9848388416
0	13489	833465.346416484434	7186.2219975429
0	13507	834721.754737665645	4068.9648496503
0	13523	835732.000680133025	10861.04949194
0	13538	836751.713773142448	6080.1754630163
0	13561	837006.842410334178	5223.6706338479
0	13570	837314.52809011304	8076.4177416105
0	13578	837828.81134229868	7516.2076331666
0	13584	838223.469230308161	3566.6732951603
0	13592	838352.824944007984	4283.0624010883
0	13601	839237.533280756294	2898.0279246274
0	13612	839471.397662501997	7661.5548226474
0	13631	840094.087663805766	7544.3466931529
0	13657	842199.311927335723	5433.4823798001
0	13665	842450.469336239848	3086.9255911556
0	13709	845765.919637852074	5516.6768137005
0	13715	846137.164877569761	6794.0590844234
0	13733	847502.888481619869	10824.917768255
0	13754	848740.496052835925	6033.2342755072
0	13763	849155.938772766933	4800.2807814628
0	13776	849904.868630887835	2470.7307263707
0	13810	851185.873217601596	4269.3386641053
0	13829	851771.271199764785	7393.2385156595
0	13850	853149.464694334506	3092.8978671863
0	13858	853738.943135393825	3731.5615561075
0	13869	854141.819043727399	13024.192398818
0	13877	854550.861036158487	2844.1587164043
0	13917	856470.252276736822	7504.6946299056
0	13925	856834.103922252603	1120.8351915685
0	13956	858381.386729905877	3230.8619245205
0	13961	858543.43005137941	7029.7874859142
0	13970	859199.503352591111	11881.917146024
0	13978	859585.981842913072	3696.2374115566
0	14002	861707.496601648207	11050.196978347
0	14019	862926.768456026702	5626.230218322
0	14033	863689.615632976891	7139.7168661578
0	14038	863821.822242453423	2252.0872573377
0	14047	864333.224754055667	10660.42038645
0	14056	865403.445761581743	5396.8256992985
0	14074	867100.536651600927	4341.1333016516
0	14096	870164.840035204135	13279.281698827
0	14146	872594.658574366395	6681.9348448196
0	14154	872689.389969004928	1035.5943552794
0	14160	873381.121016285764	3130.9578108399
0	14169	874867.108025479753	6458.5318957642
0	14186	875078.10749173486	3257.8547638095
0	14211	876761.886552875224	5872.2397875499
0	14220	877811.710286289748	2848.6934944281
0	14229	878024.296665916194	8000.0150711945
0	14237	878532.966682840421	3225.5223958662
0	14256	881099.85216869571	5564.375101309
0	14292	885395.052178947284	5293.164292149
0	14300	885938.714285658024	2394.518845779
0	14319	888058.655817656392	3606.8710986982
0	14330	888485.823785977783	4081.2568831266
0	14359	890076.903364429178	3491.5522119482
0	14369	890703.772859558005	2240.3615714106
0	14378	891229.192578251008	2720.8939205072
0	14406	895743.609856631371	6215.6981316605
0	14418	896274.964048217223	3145.7097030774
0	14461	902768.468811930174	6641.6768356451
0	14473	903223.030510650308	2597.6777993201
0	14478	903410.928284498986	3754.3924891328
0	14513	906707.943363028103	4941.2510989042
0	14522	907398.750928124408	13285.291051026
0	14573	910029.984541380698	4582.8851639977
0	14581	910094.627387274782	986.48484609298
0	14589	910774.656352041205	4545.2743671832
0	14599	912020.811831032228	3009.0344262751
0	14607	912202.827093169068	3312.8315720404
0	14650	917442.113627044618	4077.7228480705
0	14658	917825.51612614984	10041.103022874
0	14669	918299.591920893068	13099.042114109
0	14717	920340.29529626774	5338.4724686881
0	14730	920781.408571822204	2175.8167992748
0	14747	921995.858846672561	12815.143174501
0	14756	922026.534977528488	4467.050465796
0	14761	922471.284277907835	3479.9497225533
0	14769	922753.486083708533	2570.4367509683
0	14786	923998.545049710942	4301.3515230489
0	14812	925314.368298616493	617.94189069762
0	14820	925605.857217279806	4942.9958107979
0	14830	927607.521415213894	8988.3895714083
0	14845	928194.112352641682	5397.7893662454
0	14855	928655.043177797134	15643.964602583
0	14884	930020.013656467476	4833.5599242883
0	14897	930922.718626592926	1822.4037884024
0	14906	931354.995919689405	3302.3261977427
0	14925	934678.731447794103	4704.6744823565
0	14944	937154.258792720562	8143.7849264167
0	14996	940180.86004953603	5904.52717295
0	15009	940653.737952884323	4506.0180044085
0	15014	940679.528392336953	2332.3929769478
0	15019	940806.21429359806	2623.569160665
0	15080	943405.070341360659	3935.8735808731
0	15113	944728.0078092384	3060.3109500417
0	15158	946239.916240554316	8562.5948533133
0	15163	946256.088348505914	5192.2038340781
0	15168	946334.673317200686	4540.7513021264
0	15186	947651.473820638087	4614.5908925428
1	1240	73843.144393627991	312.31829973141
1	1262	74667.011577102463	0
1	1271	75060.449455843387	0
1	1298	78599.81803974532	0
1	1325	81829.576254664358	142.23754924058
1	1342	82659.701335743047	417.08424614855
1	1360	84234.510824952161	0
1	1368	84408.144804735711	0
1	1394	86092.371740406162	51.821828081245
1	1406	87119.550962010339	714.818986772
1	1428	88085.597145185927	0
1	1436	88359.318794266739	0
1	1452	88555.250517276279	74.029338885289
1	1469	89250.365114709374	0
1	1494	90496.18747488971	0
1	1512	92080.945526883993	0
1	1528	92641.82336403017	0
1	1537	93220.307464851417	320.50633177915
1	1545	93524.126735683342	237.17228785625
1	1562	94872.068845953733	207.21310989822
1	1579	95977.781030991331	0
1	1607	96827.570226727659	34.089627139314
1	1621	97240.427397291662	0
1	1629	97861.391573807337	0
1	1638	98505.419273503375	0
1	1672	100736.024100955855	0
1	1681	101930.70749662199	909.000867725
1	1698	102791.155365247473	0
1	1707	103403.848159090056	283.30389027236
1	1727	104189.040122856745	392.75305326685
1	1758	106051.938203076408	0
1	1791	107508.888794997676	0
1	1800	108596.368865404811	0
1	1817	109176.423454064379	0
1	1825	109330.125810859804	97.310687222139
1	1833	109655.431281956795	126.6134521332
1	1850	110294.093852541565	124.82757796539
1	1876	112499.988507297952	0
1	1901	113925.779039018613	0
1	1910	114648.04238956225	0
1	1928	116546.464533353042	0
1	1937	117734.698583980601	0
1	1949	118569.660808345771	510.07852502725
1	1954	118581.946690943709	436.62975295646
1	1963	119139.764336352701	0
1	2014	122090.637636514481	0
1	2022	122351.912280362485	0
1	2040	124653.963376129743	0
1	2049	125110.876810060461	306.21414758978
1	2060	125245.635840644547	49.27538947003
1	2065	125404.644781782506	182.84908608708
1	2073	125497.138483536959	0
1	2108	127137.876292544849	205.47851200716
1	2148	128813.7030751325	174.90421300369
1	2173	129521.75675113149	0
1	2200	134389.877481085808	911.09439423875
1	2205	134615.87002161385	277.45990924972
1	2237	137238.490500491692	0
1	2255	139210.412148512574	87.537667970524
1	2264	140120.262274938082	0
1	2280	140798.916962854998	0
1	2289	141451.735233697257	0
1	2307	143445.75835075299	0
1	2316	144183.969914752519	0
1	2342	146499.452389579299	0
1	2354	147117.832371252919	531.70422611184
1	2359	147440.828888444419	461.73779077883
1	2371	148327.347762745016	623.54587774087
1	2379	148430.142010208886	69.453961789678
1	2391	149058.172685384344	349.4768644362
1	2419	150405.349462080661	107.65965373738
1	2476	152726.899070903813	0
1	2485	153416.414227603506	271.70627653738
1	2501	153893.074539509998	12.289025435225
1	2516	154476.018098973638	341.7778838291
1	2524	154877.490897756149	652.03041670742
1	2533	155416.272153133843	891.26469447346
1	2560	156542.672831122755	583.90810287119
1	2568	156960.596282201478	0
1	2585	157398.098809940949	0
1	2594	158128.030882809817	0
1	2605	158495.897324461707	66.915687703682
1	2625	159131.478761365459	99.123950150438
1	2655	160314.331252651985	118.20226851279
1	2679	163220.512366876143	0
1	2709	166466.057640976844	1341.2049532321
1	2714	166758.491176532774	1057.4996246655
1	2740	168005.252780903793	0
1	2751	168520.100382352935	276.56191801353
1	2756	168676.196516830208	364.91325105615
1	2792	172358.699109665235	0
1	2809	173773.309886801586	0
1	2827	175006.615173986794	14.353326346649
1	2835	175268.470903531076	148.42646846671
1	2860	176692.403423669261	0
1	2869	177796.781526288124	0
1	2888	180148.23836687353	0
1	2913	181331.4377988435	0
1	2921	181580.969744150258	0
1	2930	182208.746342328383	0
1	2949	182764.473006937673	114.87997945305
1	2958	183121.063586397196	410.75286022262
1	2963	183150.979027367737	131.17129350057
1	2971	183241.525610807805	0
1	2979	183266.702627180972	15.327397358669
1	3004	184005.725319908751	0
1	3020	184546.271531397316	0
1	3079	187862.779079360788	0
1	3088	188142.334933032973	0
1	3106	190141.131010647937	0
1	3123	191012.295750334538	0
1	3157	193536.140890935521	0
1	3165	193700.36218495614	56.337061510026
1	3174	194564.3948793299	0
1	3183	195951.148048554633	0
1	3200	196627.34838473827	0
1	3208	196928.695424068922	81.560515122069
1	3217	197189.37103673221	94.438424374048
1	3239	199273.119430864598	1583.9412232961
1	3247	199598.661075700874	1867.8148328984
1	3255	199672.056941369238	1282.1956507222
1	3260	199694.826927504195	1061.1456810726
1	3268	199980.684248653942	198.88712118301
1	3326	202488.914267454825	16.68846213783
1	3343	203210.156197793073	0
1	3368	204369.158308533779	0
1	3376	204614.024073283084	0
1	3420	208852.147620919863	0
1	3446	210931.225139610618	0
1	3463	211333.16060737376	0
1	3472	212181.332370897088	636.48517280723
1	3480	212940.242000332698	0
1	3497	213495.872544881753	0
1	3508	213876.425961147257	352.96990159051
1	3538	214816.56274041554	0
1	3556	216852.229644614115	0
1	3565	217379.561572509251	161.95191937859
1	3590	218981.550060319823	0
1	3600	220399.26677535684	0
1	3626	222012.993116834245	0
1	3637	222330.541969236062	116.89455591059
1	3651	223201.575168809385	0
1	3659	223707.610638415209	0
1	3668	224537.254729702501	0
1	3676	224631.955700047529	55.578923840461
1	3684	224980.628531918674	259.36202259148
1	3718	226366.006214535455	559.02054584769
1	3759	227879.248795035242	0
1	3779	228910.854754467282	291.62113943317
1	3785	229418.917754720854	610.15875908507
1	3804	232408.625160477727	0
1	3812	232989.497159082844	106.94628571787
1	3829	233947.078307815529	0
1	3838	234051.754644191268	100.99329046959
1	3846	234174.481740959562	0
1	3854	234373.812325599632	92.255666750625
1	3872	235433.278554335017	565.73620881313
1	3877	235474.547856503023	521.14822457994
1	3891	235580.808916777983	81.382224931114
1	3936	236780.072984737425	0
1	3945	237817.928858552422	0
1	3962	238146.146797522721	42.410538424824
1	3978	238742.90998779516	0
1	4003	239927.778244540996	0
1	4046	242343.716753875992	0
1	4063	243099.960509425728	0
1	4071	243569.748531908331	0
1	4080	244031.412693743173	0
1	4113	245567.594867108339	0
1	4121	245830.03920472654	114.33384146468
1	4130	246255.701820326571	0
1	4147	247678.415108049578	816.02981351917
1	4165	249427.043440926587	0
1	4176	249715.886544243763	253.50385355063
1	4188	250197.661242491952	532.67311602175
1	4204	250805.980571274678	178.77581429566
1	4224	252397.486694062425	0
1	4232	252842.480984395346	0
1	4240	252897.527886252562	49.052032430947
1	4267	255024.373129930425	74.86425272999
1	4296	256982.349770577782	1261.5366078354
1	4302	257218.825513363562	759.02550209105
1	4310	257282.023718459232	787.14340361539
1	4321	257643.1209259545	237.04036016651
1	4357	259532.499439054714	169.44384208598
1	4365	259789.566026236086	49.542836427609
1	4387	260199.601212632815	39.091864997078
1	4429	262555.949448074381	760.32842058532
1	4463	267098.290601466134	95.392573343043
1	4472	268540.028984031601	0
1	4488	268983.370311060735	165.14391072842
1	4497	269748.635827334047	607.06452554355
1	4506	270084.280276075924	0
1	4533	272227.262499279484	223.12548153139
1	4541	272713.828875937465	534.35371181228
1	4549	272854.432081908185	632.91689061626
1	4582	274414.88542990241	38.537361233205
1	4599	275252.449018297388	0
1	4607	275982.807205204652	0
1	4628	277087.245110484787	124.37750308728
1	4652	280598.842974298326	0
1	4661	281979.090140979435	0
1	4687	283768.448114568093	0
1	4704	284824.432809924645	0
1	4715	287544.900168555056	0
1	4751	291227.20065053271	0
1	4760	292569.806759460896	0
1	4771	295248.465637412534	0
1	4788	296383.772387089889	0
1	4797	297518.861590818387	0
1	4847	299519.086192255815	0
1	4857	301226.246494097123	0
1	4886	306178.751275966345	0
1	4895	307362.402452200004	0
1	4903	307736.224997825932	211.50776006368
1	4930	310570.338930469186	0
1	4947	311341.001980023383	0
1	4964	312853.86809789791	0
1	4981	313643.617415731702	0
1	4990	314836.219879463462	0
1	5008	316371.943257531576	0
1	5025	317855.253195173768	807.87072725906
1	5034	318043.693568422621	0
1	5049	319010.833390171807	499.78149858732
1	5054	319021.593445404125	321.12126420869
1	5085	321228.019588004405	87.622021210766
1	5102	322564.097811361355	0
1	5120	323109.258972796079	345.68867727768
1	5131	323562.203314776056	746.755284221
1	5146	324192.925374756828	726.68201119649
1	5151	324255.928648262645	491.96946456778
1	5156	324453.277648148319	280.18845729372
1	5190	326225.903358118096	163.10369974817
1	5203	326979.815533001669	228.34234072686
1	5237	327838.658176267464	278.37227651782
1	5242	327984.703308244384	416.30458639139
1	5257	328790.405991210508	789.57548216378
1	5266	329426.54374133106	1320.375645003
1	5281	330028.913922470042	1804.9507559602
1	5289	330185.033718670558	1109.6822831615
1	5297	330563.619416335249	976.50281258967
1	5302	330680.841028249767	522.55542275904
1	5314	331381.970285025097	1194.9601579284
1	5374	334786.470275659337	391.28223983001
1	5380	335040.256978393061	628.55900647265
1	5395	336068.33808813683	606.13293505576
1	5403	336160.291379699231	263.78780034365
1	5439	338434.293149510929	193.11450568552
1	5455	338969.900680460379	21.050787254869
1	5481	340081.713612379651	863.2231136947
1	5505	341927.149632055831	0
1	5540	344267.655030462303	0
1	5557	345223.053287114812	0
1	5565	345589.843528448798	48.060799473028
1	5574	346111.286970908802	0
1	5608	348644.321425755784	0
1	5617	349626.948911144186	0
1	5634	350591.178756635342	0
1	5642	350939.320624042758	0
1	5659	351672.680321629551	0
1	5685	353144.150526035988	176.57401002957
1	5701	353931.558551792828	0
1	5720	356291.57927701516	0
1	5754	358023.511147821286	0
1	5763	359010.982504893353	0
1	5771	359269.976261888359	26.392098793574
1	5797	361073.956900564233	0
1	5805	361357.421184217372	65.463409887214
1	5813	361617.949607694864	0
1	5822	362534.338128476459	0
1	5830	362793.19427577972	63.801822853664
1	5842	363137.24068464968	218.9587185267
1	5859	363713.451215523471	494.52827450503
1	5864	363789.621518712017	501.66702021608
1	5869	363851.741564816829	245.31560402068
1	5937	366202.305025709057	844.87138297777
1	5945	366691.754346537265	1285.3566950973
1	5954	367023.012443002858	1288.4350285393
1	5962	367557.645596338305	1098.6125768747
1	6003	369409.754032578709	505.65213830726
1	6012	370199.209245516754	89.361716994676
1	6023	370337.590482874637	71.75505839773
1	6028	370441.687972909235	107.48399029955
1	6051	371344.32299121492	753.91972330701
1	6056	371396.377447433146	382.6079072069
1	6061	371580.207695908972	252.90083452809
1	6112	372772.764413584015	0
1	6141	377034.694964513027	0
1	6158	378215.730440994111	0
1	6184	380089.556968514264	0
1	6192	380348.740254617431	0
1	6210	382041.131287199195	0
1	6218	382867.356937896935	0
1	6242	384348.206921914658	874.49731024213
1	6270	386265.181514431627	0
1	6279	387045.406389394543	177.63966354529
1	6291	388293.434808445359	1166.7938304795
1	6296	388353.06860856767	59.90221392319
1	6312	388962.211372351762	0
1	6321	389296.95383633289	0
1	6329	389486.558374237251	41.561285747271
1	6357	390298.496086316065	321.26273759807
1	6365	390398.135854917338	212.32323278831
1	6387	391616.638841105508	0
1	6399	392055.609900787553	403.65693432387
1	6404	392059.968227931269	100.60861642155
1	6418	392391.387844817923	69.397462822789
1	6470	394745.162174038101	0
1	6479	395153.390382364507	0
1	6496	396734.8448658234	0
1	6510	396988.878050415565	251.75815716682
1	6516	397171.73790509616	364.01290315017
1	6527	397954.19362294976	427.08954841351
1	6547	398919.559006464737	538.12417488696
1	6552	398983.587361543981	538.83387864579
1	6624	404127.440086482501	0
1	6640	404945.137897738588	0
1	6657	405905.938413246805	21.652240136979
1	6666	406307.562437769745	0
1	6674	406773.535616861393	0
1	6703	408957.807048723686	50.935832393799
1	6725	409716.954674919322	0
1	6734	410389.775124705472	0
1	6751	411144.623471882549	0
1	6759	411214.059445620842	0
1	6792	412136.770677833001	3.68670521925
1	6808	412763.359294613174	215.06923360906
1	6817	413037.621205648999	0
1	6828	413332.441866243116	230.29381336832
1	6839	413884.857869161313	550.9668308615
1	6854	414948.859905039124	545.96068989241
1	6869	415391.252584829844	694.40325095002
1	6881	416233.164491047755	1317.8251324402
1	6886	416247.565955641975	1165.8146635727
1	6900	416747.390233342655	1592.9264945811
1	6909	417131.840788272435	1908.2257539926
1	6914	417152.543180091564	1547.9408883553
1	6919	417352.85258385109	1203.1846391928
1	6934	418164.798975987765	1756.7926191007
1	6948	418524.787661877116	1675.4790816314
1	6957	419253.291712189556	1855.6076593483
1	6969	420038.032811385155	1764.1259893576
1	6974	420128.532669853953	516.10689300303
1	7039	422001.674614664063	151.38002881486
1	7058	422748.477526905653	230.18937518927
1	7075	423716.055344414345	284.96016990041
1	7145	426133.659246337123	11.070926873495
1	7156	426669.26071742139	489.90003225435
1	7161	426960.335315948714	421.13113793305
1	7175	427698.477839551971	0
1	7184	428557.064499347238	0
1	7201	429436.081462874256	0
1	7218	430534.261600635751	0
1	7238	431228.829589636188	323.14133619331
1	7246	431489.34129055704	568.08220111958
1	7260	432297.209929544151	0
1	7285	433349.793405246098	0
1	7335	437120.42388809955	545.49218238558
1	7340	437175.368780594606	518.49149888418
1	7354	438458.616523743528	0
1	7371	439397.566167009653	121.02947097549
1	7383	440259.306364430335	854.77119355492
1	7388	440335.657208913232	547.70156459242
1	7398	442142.950711567534	0
1	7417	442921.506408409402	80.555792500022
1	7447	443599.495835420592	20.931054243488
1	7482	445711.889265835668	82.725665651324
1	7487	445721.215286507668	50.184585386612
1	7501	446529.201288646864	351.10840956424
1	7515	447376.219800857054	0
1	7527	448433.061156372691	942.20271031774
1	7558	450669.254924870649	0
1	7566	450973.152596697239	214.58367980663
1	7575	451381.799896439274	0
1	7598	452862.109872371014	882.44199865923
1	7603	452988.807058140729	552.37297644993
1	7625	453593.46724464644	0
1	7642	454180.795272787785	0
1	7650	454551.319750723068	69.117830924688
1	7673	455136.071564263747	102.07855958469
1	7684	455724.584103536374	629.59659194949
1	7689	455728.949824070641	184.02942751188
1	7701	456270.339826364385	180.7812284597
1	7712	456533.217416346209	209.97122680022
1	7717	456626.527454624923	129.02260355692
1	7777	459718.494243883785	567.45349758552
1	7782	459944.985695703725	333.95686794224
1	7836	464482.175654236363	0
1	7861	465394.043989872774	0
1	7878	466283.578852586011	27.166323579996
1	7886	466623.181355099384	0
1	7895	467426.695296934111	0
1	7903	467702.068802424554	0
1	7911	468005.847002570469	73.528330778806
1	7935	469279.714371749003	542.42519336876
1	7984	474270.889518353737	3022.8616022256
1	7989	474749.840479773772	3284.4766099116
1	7994	474869.125519576683	3279.8557510647
1	8000	475441.639878567109	3206.2217443665
1	8006	476185.778743912557	2537.0663734703
1	8024	476591.540813263787	0
1	8032	476662.644236037654	0
1	8049	477253.802963555301	74.570908336398
1	8065	477756.353843329048	0
1	8077	478486.792157352932	229.98751765181
1	8085	478593.545738747455	66.576583193896
1	8106	479005.891096394757	0
1	8132	480391.87897158527	0
1	8141	481302.524542075684	0
1	8174	482957.660720046529	35.130243267776
1	8200	484139.80439119578	0
1	8236	488123.471596805807	0
1	8262	490943.952123410282	0
1	8289	493459.786320340158	15.278589229181
1	8298	494402.849177102873	0
1	8306	494595.889969481457	0
1	8315	495189.855888866957	426.20719353011
1	8333	497244.44043191119	0
1	8341	497626.590966829995	223.74817608158
1	8358	498738.914775507884	0
1	8369	498805.455444423193	12.498460484895
1	8374	498977.907776247767	180.44369214119
1	8383	499186.244314220363	0
1	8423	500409.459271376296	563.59689462412
1	8428	500647.939058487948	314.53737994712
1	8443	501708.752322273517	696.85100259324
1	8457	502337.00714457078	28.893562200492
1	8484	504045.082087876103	193.7659083265
1	8497	504553.582571195529	56.765520189664
1	8511	505198.432212262208	180.11902767101
1	8545	506871.450220749637	139.63030369872
1	8595	511442.619565841139	0
1	8612	512796.551844584587	0
1	8621	513647.57173882297	0
1	8639	515844.353189116639	0
1	8657	517503.063227997882	0
1	8667	519072.025342852839	0
1	8676	520024.025290499088	0
1	8700	520934.839497909317	30.951391472105
1	8724	522701.19461439773	431.63892427096
1	8741	523391.329541882773	391.17321617861
1	8749	523529.928633300314	293.0639168879
1	8757	523595.028199307213	100.36456377018
1	8793	525502.648547981638	0
1	8809	525814.232456527418	0
1	8819	527035.911045826197	0
1	8835	527905.318492807488	205.245322191
1	8852	528990.193137375635	0
1	8869	529305.99690384398	0
1	8877	529500.909155812733	160.30572962789
1	8911	531038.13241376456	0
1	8928	532395.00484048638	0
1	8955	536006.135087152315	0
1	8964	536806.407845822986	0
1	8982	538484.295859594693	0
1	8991	539314.492133317987	581.75346400875
1	9016	540668.215419711042	425.85435571253
1	9026	542663.934506880452	0
1	9048	542966.629581975935	162.64413932809
1	9054	543046.632948051981	129.94032319941
1	9067	543352.500321611813	0
1	9075	543507.331483868533	25.970073004784
1	9100	544947.73909108926	45.925401213684
1	9112	545473.772361317312	32.814091283239
1	9128	545677.927329645332	150.46442682386
1	9141	545929.652496054865	16.71846850824
1	9164	546803.083627171219	372.72402290639
1	9179	547384.873374346033	647.06081533789
1	9184	547513.270441958705	439.89683678339
1	9192	548004.498908236681	703.01692614013
1	9204	548606.752530635279	1054.4852905823
1	9217	548864.060618993013	100.9743316571
1	9243	550069.450397194964	724.64829251145
1	9283	551436.021496998404	0
1	9291	551637.413636942902	0
1	9316	552834.665493812603	0
1	9325	553453.109894774441	0
1	9337	554298.608765006859	800.35772095727
1	9359	555122.524769117955	0
1	9401	557433.37421319035	74.872561303984
1	9412	557822.278139144294	388.47205563584
1	9417	557864.529020817742	118.62352404812
1	9461	561546.296810502738	0
1	9478	562723.184271547837	0
1	9497	565992.290432543034	0
1	9506	566943.983310606685	28.827792888271
1	9532	568431.616720930343	0
1	9551	571281.563192537704	0
1	9562	571791.673717373029	181.91007908535
1	9568	572472.437024051654	792.48827163576
1	9596	575680.285350120111	561.22581159802
1	9601	575941.230763817848	486.2800867403
1	9607	576308.219349429628	636.60974276981
1	9615	576937.77312442829	154.70353464059
1	9624	577110.326621874554	20.920542909833
1	9661	579235.183519178725	724.5155297112
1	9674	579900.627811417157	72.898443762509
1	9691	580478.895825437689	377.707066577
1	9696	580697.27944466047	472.57188897419
1	9738	582654.941706742289	0
1	9755	583357.746227817589	0
1	9764	584359.746041518746	308.19456125836
1	9790	586017.592538496601	0
1	9798	586158.709173015746	0
1	9816	588518.305767703129	0
1	9847	589915.795944204572	754.18005319677
1	9853	590070.769139092895	349.97695129521
1	9891	591990.348222255571	0
1	9908	592878.388437128824	0
1	9918	594075.719638220677	0
1	9935	595107.270379159961	488.21650187185
1	9951	595755.629135940203	93.327279000012
1	9968	596189.107137066441	169.79053109121
1	9985	597847.225923592652	0
1	9994	598382.943779607059	42.83629287751
1	10032	604404.484445403635	0
1	10041	605592.156296046317	0
1	10068	608096.009030665163	0
1	10087	611110.917563505086	0
1	10104	612025.672628787747	0
1	10121	613937.152552031893	0
1	10130	614179.358785444881	89.920914193844
1	10139	615845.391901406385	0
1	10156	616519.876920403524	0
1	10165	617296.165970754482	0
1	10191	619354.120736816622	0
1	10217	621421.731788247718	22.390805456295
1	10226	622307.582033676632	0
1	10234	622513.07263736041	121.42267664152
1	10268	624532.511702452932	0
1	10278	626194.127176957932	0
1	10295	627031.712426173701	0
1	10321	629082.179039027491	0
1	10329	629519.378863697041	0
1	10337	629989.096926372725	0
1	10346	630369.311554918992	308.9816592044
1	10374	631049.400250740226	37.591699780705
1	10390	631577.912535547496	155.82412521141
1	10395	631791.127958263298	267.40069807994
1	10435	633225.346486663996	503.81404383269
1	10440	633247.792243029562	492.06882609223
1	10456	633988.826985517492	83.572969761592
1	10481	634977.472181383549	277.49451375397
1	10507	636921.374698789587	22.30116406305
1	10516	637121.727181236671	105.69828556742
1	10527	637832.321325868028	170.39703251678
1	10541	638129.203427147158	149.42524223908
1	10573	641698.193079133203	555.7247289302
1	10583	643395.945366450557	0
1	10608	644497.594101041518	0
1	10617	645689.875148083018	0
1	10634	646905.166222762493	0
1	10644	648338.018359484742	0
1	10677	649364.591339757661	0
1	10685	649699.802563862245	7.7363208351
1	10720	652521.035547349161	0
1	10737	653906.976966153093	0
1	10746	654812.183379722182	0
1	10764	656799.570676024118	0
1	10773	657532.01465795976	0
1	10801	661497.432943305905	0
1	10818	662622.946213955304	4.130516445376
1	10829	665982.462951057737	0
1	10838	666438.594280748	452.62908731765
1	10862	668392.719656402666	214.46303514801
1	10870	668526.859709721096	85.549154721323
1	10903	669847.891674698256	778.98696808247
1	10923	671479.911820309066	0
1	10942	674901.079397828312	0
1	10964	677185.22355857148	21.345139699094
1	10980	677675.245068343638	160.97378311425
1	11002	678176.999217423514	0
1	11011	679403.983458372137	0
1	11019	679475.80720441244	52.072150267798
1	11027	679723.077177260775	0
1	11046	682079.915665601687	0
1	11054	682690.384570127444	0
1	11096	684330.29066156892	0
1	11113	685354.979410630142	397.8798231479
1	11122	686405.458778425939	0
1	11140	688576.171479436983	0
1	11149	689588.075661977187	0
1	11169	693035.294603058371	0
1	11188	693754.60680136778	102.74083948521
1	11197	694888.258145954966	613.33899981013
1	11229	697166.50251601615	0
1	11254	698764.53739051635	0
1	11263	699421.181952128639	0
1	11290	702342.10483875845	0
1	11298	702606.887907446775	0
1	11308	704838.033444071125	0
1	11323	705770.904716322936	749.76260288233
1	11335	706076.421380682006	842.77744319725
1	11343	706172.691889824234	86.50264833395
1	11360	707055.764426689173	3.247831888914
1	11376	707982.652738478507	286.55704035922
1	11401	711358.784754915125	137.5110939789
1	11414	711522.624876003012	33.203776312084
1	11422	711706.261364912229	74.616670853774
1	11442	712824.015791551099	765.78654497747
1	11457	713755.865081330492	861.39290886705
1	11511	715721.120212498567	0
1	11519	715833.180290602185	0
1	11527	715872.9983689569	0
1	11536	716122.325733263992	0
1	11545	717129.888389076771	0
1	11582	719124.427636915583	279.83386974905
1	11595	719591.996014776708	52.413288980277
1	11620	720656.575932462752	74.594833827533
1	11629	721088.981989910285	404.15044754137
1	11637	721461.663993677517	0
1	11674	723848.94856997441	500.78983683543
1	11680	724688.186757447211	1080.1708587455
1	11688	724937.895400574048	189.45109362373
1	11707	727511.704651175685	51.765620394372
1	11716	728194.61230080796	0
1	11746	728927.601901329538	329.88710965705
1	11752	729307.459541675562	515.95803772794
1	11807	731858.09612877328	0
1	11817	733402.153885611966	0
1	11826	734320.204717112242	0
1	11834	734573.50478067148	0
1	11842	734732.972862272394	77.185294291764
1	11879	736930.132285504291	605.52740272829
1	11884	737013.991817703717	655.50345042265
1	11928	740664.554323922754	0
1	11936	740990.080264337853	4.08062203372
1	11954	742802.150081506411	0
1	11971	743755.532235550595	296.44308922669
1	11988	744090.473750319852	190.53613140735
1	11997	745157.11156136429	0
1	12006	746505.886248116105	0
1	12014	746785.679163873513	177.95475735467
1	12029	747230.161680788101	38.26609070447
1	12065	749344.241021039425	0
1	12085	753563.665837266702	0
1	12102	754467.324114115651	0
1	12126	756460.975573882288	1118.9234952464
1	12134	756599.765821568733	498.08648444448
1	12143	757179.760911450351	623.5642415664
1	12148	757344.052385602919	350.10810251079
1	12161	757724.814600218839	0
1	12169	757854.452418380143	0
1	12239	763438.965082144079	0
1	12247	763554.693279466306	42.01609181326
1	12255	763782.254224298088	0
1	12264	764422.384858857463	334.52312007183
1	12272	764748.741444179099	229.42709215706
1	12292	765301.962494280952	176.81521335665
1	12300	765690.065195348737	424.77269041569
1	12309	766245.540071206982	629.6820180115
1	12314	766301.563659361298	148.70691178001
1	12382	770753.236613258568	0
1	12393	773224.169723462978	0
1	12401	773880.782566965921	501.74457093464
1	12418	774533.735155280075	0
1	12435	775407.652028303499	0
1	12454	775703.322757710676	97.524396185728
1	12467	775910.414383008786	0
1	12476	776242.852330043515	0
1	12506	778073.352619328202	725.54494904323
1	12511	778347.758889531674	476.43947476875
1	12538	779773.062250448532	518.43667178892
1	12552	780398.415347763058	6.148035760876
1	12569	781499.430743957304	0
1	12577	781793.965080203911	257.26664501082
1	12597	782753.688482264114	120.38470277715
1	12629	785180.850536238968	0
1	12637	785384.796016641825	11.840428705001
1	12645	785887.644464404159	0
1	12658	787313.105837914434	753.28348646034
1	12679	787843.515972699986	0
1	12688	788556.925180338961	0
1	12702	788715.462834776553	111.2105559482
1	12717	789029.304637354599	388.12930564487
1	12731	789485.655929830865	675.85710704149
1	12736	789795.054140786481	770.30471331616
1	12751	790425.012946750663	524.81595245266
1	12756	790517.93902610046	195.04995757959
1	12778	791108.379427483864	279.11064899358
1	12807	791772.661306718424	73.282945757528
1	12835	793011.677968102091	72.693850535011
1	12849	793568.379943839753	100.47891537553
1	12876	794289.431621495883	3.28330168431
1	12933	801400.774097957473	0
1	12942	802630.167710796257	871.24441885109
1	12950	802791.678524404832	0
1	12977	805113.488210109072	0
1	12999	807420.09846965545	1458.7208062955
1	13004	807764.740998694942	1020.816688987
1	13009	808009.195532389635	899.78304262434
1	13015	808867.325401360534	1490.2174747585
1	13037	809355.077017543147	0
1	13080	812298.660264031297	406.54498219769
1	13107	815370.540514118187	0
1	13115	815697.301504803787	0
1	13133	817140.931373990299	0
1	13141	817499.726201392062	6.462153101672
1	13159	819088.536168383615	0
1	13177	821716.436867278574	0
1	13186	822226.863633489779	0
1	13194	822415.775532457085	3.004384625602
1	13202	822507.01953036197	19.245907298211
1	13210	822698.990676808633	163.26879168459
1	13225	823056.269485335776	140.86687172564
1	13249	823584.958182234588	71.724948306936
1	13257	823683.900392043454	37.695102442626
1	13272	824122.102688354161	134.71017484354
1	13304	826054.693686655226	1183.7424984619
1	13309	826190.700014363386	1055.7882619971
1	13322	826605.006388925744	325.88196998417
1	13336	827023.874248446865	40.407228972364
1	13349	827556.392925053728	5.252604843651
1	13372	829469.910515384754	231.80016688218
1	13413	830326.341655746699	13.737946614571
1	13424	830714.533953177672	61.744065162345
1	13430	831484.607817594027	813.06950746786
1	13446	831878.21276375941	95.040987273133
1	13452	832021.295396326326	211.45255647168
1	13471	832821.125159051638	271.38418839876
1	13509	834721.754737665645	651.99219474599
1	13515	835151.926296107135	495.13036095926
1	13540	836751.713773142448	412.20841701356
1	13548	836787.042303777134	109.07159041204
1	13553	836841.005131682392	75.175584146774
1	13614	839471.397662501997	128.29186935559
1	13622	839586.667302331534	223.12355724732
1	13636	840249.242824151598	0
1	13645	841117.626644909403	0
1	13670	842707.261777328739	0
1	13680	844355.657991304104	0
1	13688	844378.032684105294	0
1	13735	847502.888481619869	586.35392812354
1	13740	847915.710405064418	598.12419849756
1	13746	848584.674123748483	1150.5362192314
1	13765	849155.938772766933	190.38112593574
1	13781	850007.381579286283	0
1	13790	850177.114832631665	120.54800548348
1	13801	850859.135132667364	201.83550936604
1	13815	851513.642565465211	0
1	13831	851771.271199764785	64.568880010598
1	13860	853738.943135393825	66.138767787732
1	13883	855150.524805385391	0
1	13891	855713.268730684109	0
1	13899	855889.744431356443	0
1	13927	856834.103922252603	284.20515543348
1	13942	857782.679726170411	897.12138979342
1	13947	857833.389299012681	532.85106130797
1	13983	860006.620062283286	0
1	14004	861707.496601648207	137.76161653252
1	14021	862926.768456026702	167.36510607733
1	14061	865912.723729546821	0
1	14080	868408.576129715541	0
1	14098	870164.840035204135	140.55844048242
1	14106	870250.163205445908	0
1	14114	870889.646765325363	0
1	14123	871653.795613725548	0
1	14132	872051.435769651877	231.18304172651
1	14174	874963.016791861626	0
1	14191	875307.444286974218	0
1	14202	875914.768838642486	379.29177125582
1	14244	880101.887886798262	0
1	14263	883544.195439879072	0
1	14272	884404.566902851217	0
1	14280	884910.676593384535	458.89187442634
1	14306	886585.351152480938	0
1	14332	888485.823785977783	22.41249783041
1	14340	888692.549440761011	184.25078301718
1	14361	890076.903364429178	548.9916394583
1	14385	893129.25434513979	0
1	14394	894113.459877098779	0
1	14420	896274.964048217223	148.17207193215
1	14431	899656.535795366173	0
1	14440	900625.352711330192	0
1	14449	901766.692264123859	0
1	14485	905200.549806783653	0
1	14493	905462.068152065635	14.968774682636
1	14502	906229.381984858005	0
1	14527	907784.413103275632	0
1	14536	908889.995521128649	0
1	14544	909011.777404757155	0
1	14553	909130.863000366348	22.720459184549
1	14564	909430.528074749332	249.81240257737
1	14612	913011.078575214489	0
1	14621	913907.438017292793	543.0472383187
1	14630	915001.822827579684	0
1	14660	917825.51612614984	266.03161441733
1	14674	918605.591772547393	0
1	14689	919536.787339661137	917.65549585553
1	14697	919810.56317142709	819.22861607251
1	14702	919943.897144790061	246.70361812798
1	14719	920340.29529626774	157.24596352748
1	14732	920781.408571822204	118.54716534035
1	14774	922796.322986396238	0
1	14792	924696.426407918872	0
1	14801	925186.453732179161	0
1	14847	928194.112352641682	141.44263069498
1	14860	929010.473866303883	0
1	14869	929329.696622404236	229.38178421368
1	14886	930020.013656467476	45.956691029905
1	14914	934276.332876586061	0
1	14932	936147.71994847581	0
1	14949	937677.321387240974	0
1	14958	938182.64513293308	0
1	14966	938500.884055233268	153.74863984412
1	14978	939523.541317614789	54.34455712728
1	14998	940180.86004953603	263.80390709369
1	15025	941063.884514427826	0
1	15033	941667.69685919673	0
1	15045	942023.733767494572	229.81175242025
1	15053	942173.325292939605	247.54430089998
1	15082	943405.070341360659	767.28221673759
1	15091	944219.695362786817	1182.8124346915
1	15096	944381.062732008415	1302.9051263276
1	15115	944728.0078092384	110.30723859181
1	15130	945427.932249329322	720.11769451096
1	15138	945544.398352011878	605.7530684689
1	15150	946060.167046528412	453.575369452
1	15188	947651.473820638087	1040.0818098958
1	15203	948073.358073825967	1005.4727002437
1	15208	948079.99923850863	296.23601438549
1	15216	948953.899873306994	926.46256780778
1	15226	950200.188789289478	1703.3846612544
2	1232	73530.826093896581	1
2	1240	73843.144393627991	0
2	1260	74667.011577102463	1
2	1262	74667.011577102463	0
2	1269	75060.449455843387	1
2	1271	75060.449455843387	0
2	1296	78599.81803974532	1
2	1298	78599.81803974532	0
2	1320	81687.338705423775	1
2	1325	81829.576254664358	0
2	1337	82242.617089594493	1
2	1342	82659.701335743047	0
2	1358	84234.510824952161	1
2	1360	84234.510824952161	0
2	1366	84408.144804735711	1
2	1368	84408.144804735711	0
2	1389	86040.549912324917	1
2	1394	86092.371740406162	0
2	1400	86404.731975238341	1
2	1406	87119.550962010339	0
2	1426	88085.597145185927	1
2	1428	88085.597145185927	0
2	1434	88359.318794266739	1
2	1436	88359.318794266739	0
2	1447	88481.22117839099	1
2	1452	88555.250517276279	0
2	1467	89250.365114709374	1
2	1469	89250.365114709374	0
2	1492	90496.18747488971	1
2	1494	90496.18747488971	0
2	1510	92080.945526883993	1
2	1512	92080.945526883993	0
2	1526	92641.82336403017	1
2	1528	92641.82336403017	0
2	1531	92899.801133072272	1
2	1537	93220.307464851417	0
2	1540	93286.954447827093	1
2	1545	93524.126735683342	0
2	1557	94664.855736055508	1
2	1562	94872.068845953733	0
2	1577	95977.781030991331	1
2	1579	95977.781030991331	0
2	1602	96793.480599588345	1
2	1607	96827.570226727659	0
2	1619	97240.427397291662	1
2	1621	97240.427397291662	0
2	1627	97861.391573807337	1
2	1629	97861.391573807337	0
2	1636	98505.419273503375	1
2	1638	98505.419273503375	0
2	1670	100736.024100955855	1
2	1672	100736.024100955855	0
2	1676	101021.70662889699	1
2	1681	101930.70749662199	0
2	1696	102791.155365247473	1
2	1698	102791.155365247473	0
2	1702	103120.544268817695	1
2	1707	103403.848159090056	0
2	1718	103796.287069589896	1
2	1727	104189.040122856745	0
2	1756	106051.938203076408	1
2	1758	106051.938203076408	0
2	1789	107508.888794997676	1
2	1791	107508.888794997676	0
2	1798	108596.368865404811	1
2	1800	108596.368865404811	0
2	1815	109176.423454064379	1
2	1817	109176.423454064379	0
2	1820	109232.815123637665	1
2	1825	109330.125810859804	0
2	1828	109528.817829823595	1
2	1833	109655.431281956795	0
2	1845	110169.266274576171	1
2	1850	110294.093852541565	0
2	1874	112499.988507297952	1
2	1876	112499.988507297952	0
2	1899	113925.779039018613	1
2	1901	113925.779039018613	0
2	1908	114648.04238956225	1
2	1910	114648.04238956225	0
2	1926	116546.464533353042	1
2	1928	116546.464533353042	0
2	1935	117734.698583980601	1
2	1937	117734.698583980601	0
2	1941	118059.582283318519	1
2	1944	118145.316937987253	2
2	1949	118569.660808345771	1
2	1954	118581.946690943709	0
2	1961	119139.764336352701	1
2	1963	119139.764336352701	0
2	2012	122090.637636514481	1
2	2014	122090.637636514481	0
2	2020	122351.912280362485	1
2	2022	122351.912280362485	0
2	2038	124653.963376129743	1
2	2040	124653.963376129743	0
2	2043	124804.662662470679	1
2	2049	125110.876810060461	0
2	2052	125196.360451174517	1
2	2055	125221.795695695422	2
2	2060	125245.635840644547	1
2	2065	125404.644781782506	0
2	2071	125497.138483536959	1
2	2073	125497.138483536959	0
2	2102	126932.397780537686	1
2	2108	127137.876292544849	0
2	2143	128638.79886212881	1
2	2148	128813.7030751325	0
2	2171	129521.75675113149	1
2	2173	129521.75675113149	0
2	2188	133478.783086847058	1
2	2195	134338.410112364128	2
2	2200	134389.877481085808	1
2	2205	134615.87002161385	0
2	2235	137238.490500491692	1
2	2237	137238.490500491692	0
2	2250	139122.87448054205	1
2	2255	139210.412148512574	0
2	2262	140120.262274938082	1
2	2264	140120.262274938082	0
2	2278	140798.916962854998	1
2	2280	140798.916962854998	0
2	2287	141451.735233697257	1
2	2289	141451.735233697257	0
2	2305	143445.75835075299	1
2	2307	143445.75835075299	0
2	2314	144183.969914752519	1
2	2316	144183.969914752519	0
2	2340	146499.452389579299	1
2	2342	146499.452389579299	0
2	2345	146586.12814514108	1
2	2348	146979.091097665587	2
2	2354	147117.832371252919	1
2	2359	147440.828888444419	0
2	2362	147703.801885004149	1
2	2371	148327.347762745016	0
2	2374	148360.688048419208	1
2	2379	148430.142010208886	0
2	2382	148708.695820948145	1
2	2391	149058.172685384344	0
2	2414	150297.689808343283	1
2	2419	150405.349462080661	0
2	2474	152726.899070903813	1
2	2476	152726.899070903813	0
2	2480	153144.707951066127	1
2	2485	153416.414227603506	0
2	2496	153880.785514074773	1
2	2501	153893.074539509998	0
2	2505	154134.240215144542	1
2	2508	154225.46048104873	2
2	2516	154476.018098973638	1
2	2519	154525.00745866038	2
2	2524	154877.490897756149	1
2	2533	155416.272153133843	0
2	2554	155958.764728251563	1
2	2560	156542.672831122755	0
2	2566	156960.596282201478	1
2	2568	156960.596282201478	0
2	2583	157398.098809940949	1
2	2585	157398.098809940949	0
2	2592	158128.030882809817	1
2	2594	158128.030882809817	0
2	2600	158428.981636758025	1
2	2605	158495.897324461707	0
2	2620	159032.354811215021	1
2	2625	159131.478761365459	0
2	2650	160196.128984139191	1
2	2655	160314.331252651985	0
2	2677	163220.512366876143	1
2	2679	163220.512366876143	0
2	2700	165124.85268774475	1
2	2703	165700.991551867239	2
2	2709	166466.057640976844	1
2	2714	166758.491176532774	0
2	2738	168005.252780903793	1
2	2740	168005.252780903793	0
2	2743	168243.538464339405	1
2	2746	168311.283265774059	2
2	2751	168520.100382352935	1
2	2756	168676.196516830208	0
2	2790	172358.699109665235	1
2	2792	172358.699109665235	0
2	2807	173773.309886801586	1
2	2809	173773.309886801586	0
2	2821	174992.261847640145	1
2	2827	175006.615173986794	0
2	2830	175120.04443506437	1
2	2835	175268.470903531076	0
2	2858	176692.403423669261	1
2	2860	176692.403423669261	0
2	2867	177796.781526288124	1
2	2869	177796.781526288124	0
2	2886	180148.23836687353	1
2	2888	180148.23836687353	0
2	2911	181331.4377988435	1
2	2913	181331.4377988435	0
2	2919	181580.969744150258	1
2	2921	181580.969744150258	0
2	2928	182208.746342328383	1
2	2930	182208.746342328383	0
2	2941	182649.593027484623	1
2	2944	182710.310726174574	2
2	2949	182764.473006937673	1
2	2953	183019.807733867168	2
2	2958	183121.063586397196	1
2	2963	183150.979027367737	0
2	2969	183241.525610807805	1
2	2971	183241.525610807805	0
2	2974	183251.375229822303	1
2	2979	183266.702627180972	0
2	3002	184005.725319908751	1
2	3004	184005.725319908751	0
2	3018	184546.271531397316	1
2	3020	184546.271531397316	0
2	3077	187862.779079360788	1
2	3079	187862.779079360788	0
2	3086	188142.334933032973	1
2	3088	188142.334933032973	0
2	3104	190141.131010647937	1
2	3106	190141.131010647937	0
2	3121	191012.295750334538	1
2	3123	191012.295750334538	0
2	3155	193536.140890935521	1
2	3157	193536.140890935521	0
2	3160	193644.025123446114	1
2	3165	193700.36218495614	0
2	3172	194564.3948793299	1
2	3174	194564.3948793299	0
2	3181	195951.148048554633	1
2	3183	195951.148048554633	0
2	3198	196627.34838473827	1
2	3200	196627.34838473827	0
2	3203	196847.134908946853	1
2	3208	196928.695424068922	0
2	3212	197094.932612358162	1
2	3217	197189.37103673221	0
2	3220	197689.178207568499	1
2	3223	197730.846242802425	2
2	3230	198389.861290646994	3
2	3233	198633.681246431613	4
2	3239	199273.119430864598	3
2	3247	199598.661075700874	2
2	3255	199672.056941369238	1
2	3260	199694.826927504195	0
2	3263	199781.797127470931	1
2	3268	199980.684248653942	0
2	3321	202472.225805316995	1
2	3326	202488.914267454825	0
2	3341	203210.156197793073	1
2	3343	203210.156197793073	0
2	3366	204369.158308533779	1
2	3368	204369.158308533779	0
2	3374	204614.024073283084	1
2	3376	204614.024073283084	0
2	3418	208852.147620919863	1
2	3420	208852.147620919863	0
2	3444	210931.225139610618	1
2	3446	210931.225139610618	0
2	3461	211333.16060737376	1
2	3463	211333.16060737376	0
2	3466	211544.847198089863	1
2	3472	212181.332370897088	0
2	3478	212940.242000332698	1
2	3480	212940.242000332698	0
2	3495	213495.872544881753	1
2	3497	213495.872544881753	0
2	3500	213523.456059556752	1
2	3508	213876.425961147257	0
2	3536	214816.56274041554	1
2	3538	214816.56274041554	0
2	3554	216852.229644614115	1
2	3556	216852.229644614115	0
2	3560	217217.609653130663	1
2	3565	217379.561572509251	0
2	3588	218981.550060319823	1
2	3590	218981.550060319823	0
2	3598	220399.26677535684	1
2	3600	220399.26677535684	0
2	3624	222012.993116834245	1
2	3626	222012.993116834245	0
2	3629	222213.647413325473	1
2	3637	222330.541969236062	0
2	3649	223201.575168809385	1
2	3651	223201.575168809385	0
2	3657	223707.610638415209	1
2	3659	223707.610638415209	0
2	3666	224537.254729702501	1
2	3668	224537.254729702501	0
2	3671	224576.376776207068	1
2	3676	224631.955700047529	0
2	3679	224721.266509327191	1
2	3684	224980.628531918674	0
2	3712	225806.985668687769	1
2	3718	226366.006214535455	0
2	3757	227879.248795035242	1
2	3759	227879.248795035242	0
2	3771	228619.233615034117	1
2	3774	228808.758995635781	2
2	3779	228910.854754467282	1
2	3785	229418.917754720854	0
2	3802	232408.625160477727	1
2	3804	232408.625160477727	0
2	3807	232882.550873364977	1
2	3812	232989.497159082844	0
2	3827	233947.078307815529	1
2	3829	233947.078307815529	0
2	3832	233950.761353721681	1
2	3838	234051.754644191268	0
2	3844	234174.481740959562	1
2	3846	234174.481740959562	0
2	3849	234281.556658849007	1
2	3854	234373.812325599632	0
2	3860	234867.54234552189	1
2	3863	234953.39963192308	2
2	3872	235433.278554335017	1
2	3877	235474.547856503023	0
2	3883	235499.426691846869	1
2	3891	235580.808916777983	0
2	3934	236780.072984737425	1
2	3936	236780.072984737425	0
2	3943	237817.928858552422	1
2	3945	237817.928858552422	0
2	3957	238103.736259097897	1
2	3962	238146.146797522721	0
2	3976	238742.90998779516	1
2	3978	238742.90998779516	0
2	4001	239927.778244540996	1
2	4003	239927.778244540996	0
2	4044	242343.716753875992	1
2	4046	242343.716753875992	0
2	4061	243099.960509425728	1
2	4063	243099.960509425728	0
2	4069	243569.748531908331	1
2	4071	243569.748531908331	0
2	4078	244031.412693743173	1
2	4080	244031.412693743173	0
2	4111	245567.594867108339	1
2	4113	245567.594867108339	0
2	4116	245715.70536326186	1
2	4121	245830.03920472654	0
2	4128	246255.701820326571	1
2	4130	246255.701820326571	0
2	4141	246862.385294530408	1
2	4147	247678.415108049578	0
2	4163	249427.043440926587	1
2	4165	249427.043440926587	0
2	4168	249462.382690693135	1
2	4171	249664.988126470198	2
2	4176	249715.886544243763	1
2	4188	250197.661242491952	0
2	4196	250627.204756979016	1
2	4204	250805.980571274678	0
2	4222	252397.486694062425	1
2	4224	252397.486694062425	0
2	4230	252842.480984395346	1
2	4232	252842.480984395346	0
2	4235	252848.475853821615	1
2	4240	252897.527886252562	0
2	4261	254949.508877200435	1
2	4267	255024.373129930425	0
2	4278	255720.813162742336	1
2	4285	256459.800011272512	2
2	4288	256494.880314843842	3
2	4296	256982.349770577782	2
2	4302	257218.825513363562	1
2	4310	257282.023718459232	0
2	4316	257406.080565787991	1
2	4321	257643.1209259545	0
2	4349	259363.055596968732	1
2	4357	259532.499439054714	0
2	4360	259740.023189808477	1
2	4365	259789.566026236086	0
2	4382	260160.509347635737	1
2	4387	260199.601212632815	0
2	4420	261795.621027489057	1
2	4429	262555.949448074381	0
2	4457	267002.898028123091	1
2	4463	267098.290601466134	0
2	4470	268540.028984031601	1
2	4472	268540.028984031601	0
2	4483	268818.226400332317	1
2	4488	268983.370311060735	0
2	4492	269141.5713017905	1
2	4497	269748.635827334047	0
2	4504	270084.280276075924	1
2	4506	270084.280276075924	0
2	4521	272004.137017748093	1
2	4525	272179.475164125182	2
2	4528	272221.515191291929	3
2	4533	272227.262499279484	2
2	4541	272713.828875937465	1
2	4549	272854.432081908185	0
2	4577	274376.348068669205	1
2	4582	274414.88542990241	0
2	4597	275252.449018297388	1
2	4599	275252.449018297388	0
2	4605	275982.807205204652	1
2	4607	275982.807205204652	0
2	4619	276962.867607397511	1
2	4628	277087.245110484787	0
2	4650	280598.842974298326	1
2	4652	280598.842974298326	0
2	4659	281979.090140979435	1
2	4661	281979.090140979435	0
2	4685	283768.448114568093	1
2	4687	283768.448114568093	0
2	4702	284824.432809924645	1
2	4704	284824.432809924645	0
2	4713	287544.900168555056	1
2	4715	287544.900168555056	0
2	4749	291227.20065053271	1
2	4751	291227.20065053271	0
2	4758	292569.806759460896	1
2	4760	292569.806759460896	0
2	4769	295248.465637412534	1
2	4771	295248.465637412534	0
2	4786	296383.772387089889	1
2	4788	296383.772387089889	0
2	4795	297518.861590818387	1
2	4797	297518.861590818387	0
2	4845	299519.086192255815	1
2	4847	299519.086192255815	0
2	4855	301226.246494097123	1
2	4857	301226.246494097123	0
2	4884	306178.751275966345	1
2	4886	306178.751275966345	0
2	4893	307362.402452200004	1
2	4895	307362.402452200004	0
2	4898	307524.717237762254	1
2	4903	307736.224997825932	0
2	4928	310570.338930469186	1
2	4930	310570.338930469186	0
2	4945	311341.001980023383	1
2	4947	311341.001980023383	0
2	4962	312853.86809789791	1
2	4964	312853.86809789791	0
2	4979	313643.617415731702	1
2	4981	313643.617415731702	0
2	4988	314836.219879463462	1
2	4990	314836.219879463462	0
2	5006	316371.943257531576	1
2	5008	316371.943257531576	0
2	5020	317047.382467914707	1
2	5025	317855.253195173768	0
2	5032	318043.693568422621	1
2	5034	318043.693568422621	0
2	5037	318511.051891584485	1
2	5040	318700.472181195432	2
2	5049	319010.833390171807	1
2	5054	319021.593445404125	0
2	5080	321140.397566793639	1
2	5085	321228.019588004405	0
2	5100	322564.097811361355	1
[...]
7	9535	568467.424068983252	1
7	9538	569829.584827873649	0
7	9560	571791.673717373029	1
7	9566	572472.437024051654	2
7	9571	573029.067701369191	1
7	9575	573092.701621432458	2
7	9584	575163.757889639886	1
7	9599	575941.230763817848	2
7	9605	576308.219349429628	3
7	9613	576937.77312442829	4
7	9622	577110.326621874554	5
7	9627	577111.669284158679	6
7	9634	577357.63753263367	5
7	9639	577457.603626854306	4
7	9648	578052.948229717895	3
7	9654	578635.620384521814	2
7	9664	579745.435488358839	3
7	9678	580098.109594494605	4
7	9694	580697.27944466047	5
7	9699	580735.36284606548	6
7	9702	581420.212723252021	5
7	9707	581481.671862490568	4
7	9715	581801.926559271093	3
7	9718	581852.129808074756	2
7	9741	582707.58214006154	3
7	9743	582923.537118900646	2
7	9762	584359.746041518746	3
7	9767	584900.817410629471	4
7	9770	585281.045207419565	3
7	9778	585885.964617655036	2
7	9793	586108.456855048621	3
7	9801	586328.399407107682	4
7	9803	586944.514255415818	3
7	9819	588603.607261977025	4
7	9821	588718.413872352136	3
7	9830	589107.294340420251	2
7	9838	589601.997663366166	1
7	9851	590070.769139092895	2
7	9855	590394.008656237345	1
7	9859	590414.7335733732	2
7	9868	590627.240006873397	1
7	9877	591162.35933274285	0
7	9895	592122.093992132484	1
7	9897	592266.993591720143	0
7	9912	593173.845019124465	1
7	9921	594101.97350417002	2
7	9923	594516.154133374828	1
7	9938	595168.693740366106	2
7	9940	595210.932125631323	1
7	9954	595931.00784053748	2
7	9956	595977.018172827216	1
7	9971	596957.795646835084	2
7	9974	597188.273260061777	1
7	9992	598382.943779607059	2
7	9997	598957.443577320176	3
7	10000	599902.996290664373	2
7	10010	601239.863319529608	1
7	10020	603099.457430114698	0
7	10036	605237.531901776338	1
7	10044	605624.823164409274	2
7	10047	606729.277372829025	1
7	10052	606792.620611150411	0
7	10071	608601.728668389528	1
7	10074	609147.814532150239	0
7	10090	611292.098803853202	1
7	10092	611992.023001775274	0
7	10107	612034.371586726864	1
7	10110	613166.641801255705	0
7	10128	614179.358785444881	1
7	10133	614263.363946233976	2
7	10142	615923.638289150674	3
7	10144	615934.811713828115	2
7	10159	616597.448762613304	3
7	10168	617323.622329960189	4
7	10171	618145.178014033235	3
7	10180	619217.075626785184	2
7	10194	619416.695361220107	3
7	10196	619420.268005536086	2
7	10206	621175.862930833518	1
7	10221	622076.042279977731	2
7	10232	622513.07263736041	3
7	10237	622544.75339545034	4
7	10240	623388.003698207176	3
7	10245	623483.841735563142	2
7	10248	623675.783911015102	1
7	10271	624555.395057371485	2
7	10280	626272.98118110232	1
7	10284	626841.250878882512	2
7	10298	627369.339225517506	3
7	10300	627585.832348494509	2
7	10309	628763.038059670332	1
7	10324	629212.856382417146	2
7	10332	629614.985524071379	3
7	10344	630369.311554918992	4
7	10348	630388.4362291765	3
7	10352	630568.047826557452	4
7	10356	630629.285106241511	3
7	10368	631042.677003883974	2
7	10377	631150.707364021748	3
7	10393	631791.127958263298	4
7	10398	631791.846007952601	5
7	10400	631941.312049727236	4
7	10406	632051.952631169474	3
7	10409	632357.776774954184	2
7	10429	633047.672897948775	1
7	10438	633247.792243029562	2
7	10443	633738.133200802732	3
7	10450	633982.647478901449	2
7	10460	634038.162755599797	3
7	10467	634681.540115538018	2
7	10475	634759.80427909504	1
7	10485	635306.145616153088	2
7	10489	635427.093734967507	1
7	10498	636562.491768083969	0
7	10514	637121.727181236671	1
7	10518	637236.101257869927	0
7	10525	637832.321325868028	1
7	10530	637856.658605983547	2
7	10543	638728.642692234059	1
7	10547	638766.970592131767	2
7	10561	640846.256831285171	1
7	10576	641894.020141348859	2
7	10586	643632.049938094476	3
7	10589	644079.591504457415	2
7	10597	644214.068378756289	1
7	10611	644840.688797562088	2
7	10619	645739.510155262225	1
7	10623	645969.608916082228	2
7	10637	646965.575092489421	3
7	10647	648436.495130944761	4
7	10649	648590.820207644625	3
7	10654	648971.6547209951	2
7	10658	649131.213385693576	1
7	10683	649699.802563862245	2
7	10688	649724.625497274796	3
7	10690	649789.288598850864	2
7	10699	650444.309269354891	1
7	10709	652446.390273228152	0
7	10723	652592.987118463774	1
7	10726	653390.901915759082	0
7	10740	653914.469207551964	1
7	10749	654927.16241457	2
7	10752	655191.908934719684	1
7	10767	656854.92172158321	2
7	10776	657600.649735316856	3
7	10779	658925.439163673716	2
7	10789	660414.19799007899	1
7	10804	661581.4086726405	2
7	10807	662191.273823704162	1
7	10821	662646.881984329944	2
7	10836	666438.594280748	3
7	10841	666456.805438181375	4
7	10843	666841.362698766453	3
7	10849	667294.682713988036	2
7	10853	668112.244054179674	1
7	10868	668526.859709721096	2
7	10872	668539.489048121922	1
7	10876	668597.579597821166	2
7	10894	669132.320046560764	1
7	10897	669771.944201055166	0
7	10906	669887.806247219771	1
7	10926	671849.026816130272	2
7	10929	672353.703980912829	1
7	10946	675129.603014956136	2
7	10949	676062.829594756746	1
7	10954	676681.123480413141	0
7	10967	677400.077904540086	1
7	10974	677625.459039795544	0
7	10983	677706.00036248319	1
7	10990	677912.726032980123	0
7	11006	679394.496594636057	1
7	11017	679475.80720441244	2
7	11022	679550.099835139495	3
7	11029	679939.260201070131	2
7	11034	680040.247792165063	3
7	11049	682315.201763458132	4
7	11057	682991.111271990135	5
7	11060	683174.493001997409	4
7	11065	683199.750459767319	3
7	11076	683716.178201541818	2
7	11084	683817.942605421104	1
7	11099	684679.087567198682	2
7	11101	684913.974464455509	1
7	11116	685410.015991545321	2
7	11125	686453.547566719387	3
7	11128	687257.951613734956	2
7	11143	688665.951710510483	3
7	11152	689590.411359111143	4
7	11156	691190.679579691713	3
7	11171	693294.979963432475	2
7	11175	693321.756973349144	3
7	11179	693486.051164909841	2
7	11195	694888.258145954966	3
7	11201	695054.760888161951	4
7	11208	695735.67388210019	3
7	11216	695867.867790258919	2
7	11232	697208.241429057551	3
7	11234	697909.688227065115	2
7	11243	698039.707746145712	1
7	11257	698948.494565058567	2
7	11267	700090.50865571422	3
7	11269	700398.03323539157	2
7	11278	701330.185746117495	1
7	11293	702578.856595669163	2
7	11302	703200.024147427168	3
7	11314	705038.57423143184	2
7	11321	705770.904716322936	3
7	11325	705880.411901596059	2
7	11328	705947.717306929786	1
7	11333	706076.421380682006	2
7	11341	706172.691889824234	3
7	11346	706698.295701125573	4
7	11350	706992.694644376087	3
7	11363	707394.650647721453	4
7	11370	707963.452563898579	3
7	11379	708610.529640224449	2
7	11383	708797.400574840723	3
7	11404	711484.299320971899	4
7	11420	711706.261364912229	5
7	11425	711872.632074924619	6
7	11429	711889.548636643459	5
7	11433	712044.343000864811	4
7	11447	712916.913107241569	3
7	11451	713044.567468522923	2
7	11455	713755.865081330492	3
7	11460	713885.580096717516	4
7	11475	714023.888556049119	3
7	11478	714038.031732787988	2
7	11486	714360.300688565412	1
7	11514	715811.718269184429	2
7	11522	715866.596479990034	3
7	11530	715983.738198270931	4
7	11539	716132.889287985491	5
7	11548	717283.024577523444	6
7	11551	718265.814701777242	5
7	11556	718266.435886664888	4
7	11559	718284.55616193397	3
7	11567	718604.636358825486	2
7	11585	719259.424718447399	3
7	11599	720058.254534318116	4
7	11601	720114.660974571644	3
7	11606	720130.4883656208	2
7	11627	721088.981989910285	3
7	11632	721126.293890368328	4
7	11639	721506.918244686958	3
7	11642	721782.914859096231	2
7	11646	721784.375446412103	3
7	11659	722630.434504572238	2
7	11678	724688.186757447211	3
7	11686	724937.895400574048	4
7	11692	725167.853874171076	5
7	11695	726593.697504112636	4
7	11710	727660.16645786846	5
7	11718	728205.852754252366	4
7	11722	728405.993185107112	5
7	11726	728500.582945997413	4
7	11737	728623.440460823768	3
7	11750	729307.459541675562	4
7	11755	729353.321972870092	5
7	11759	729616.656468728304	4
7	11762	729741.362991546322	3
7	11771	730077.516166731741	2
7	11774	730183.439321677252	1
7	11796	731256.981315445645	0
7	11810	732003.425430441699	1
7	11821	734137.267604578346	2
7	11829	734511.978214945503	3
7	11840	734732.972862272394	4
7	11845	735045.57572186318	3
7	11849	735062.421258445985	4
7	11856	735774.280946531877	3
7	11865	736167.720831070531	2
7	11882	737013.991817703717	3
7	11888	737274.157859028673	4
7	11891	738132.804805470453	3
7	11899	738706.865466026965	2
7	11904	738724.934302500109	1
7	11907	738765.331184123509	0
7	11934	740990.080264337853	1
7	11940	741169.118959991449	2
7	11942	741520.860042513896	1
7	11958	743223.485222148201	2
7	11960	743381.398088046503	1
7	11973	743827.695239751165	0
7	11977	743854.517912899606	1
7	11991	744279.023346549852	2
7	12001	746040.075564716749	3
7	12012	746785.679163873513	4
7	12016	746809.290090068877	3
7	12019	746868.492649493699	2
7	12027	747230.161680788101	3
7	12032	747299.176124083051	4
7	12036	747422.420355243552	3
7	12049	747520.670921330331	2
7	12069	750016.937822841276	3
7	12071	750263.077028246496	2
7	12089	754102.262912083658	3
7	12091	754130.588055939202	2
7	12105	754962.984999361905	3
7	12108	755143.717112091808	2
7	12116	755598.219761020192	1
7	12132	756599.765821568733	2
7	12141	757179.760911450351	3
7	12146	757344.052385602919	4
7	12151	757509.432672370819	5
7	12164	757776.644573004768	6
7	12172	757928.078277826984	7
7	12176	759663.912377888198	6
7	12181	759782.404681324583	5
7	12193	760306.15195963165	4
7	12201	760795.599290283337	3
7	12210	761477.953171380938	2
7	12215	761572.911265755048	1
7	12227	762358.654696098699	0
7	12245	763554.693279466306	1
7	12250	763764.623053194934	2
7	12262	764422.384858857463	3
7	12270	764748.741444179099	4
7	12275	764892.406835308012	5
7	12277	764986.007979069177	4
7	12298	765690.065195348737	5
7	12307	766245.540071206982	6
7	12312	766301.563659361298	7
7	12316	766593.401688650921	6
7	12319	766708.408683715888	5
7	12322	766914.438532128615	4
7	12325	766961.498562192439	3
7	12330	767080.701655866276	4
7	12349	767916.636238350363	3
7	12353	768021.290362920708	2
7	12371	770070.925206190329	1
7	12385	770853.955122401175	2
7	12399	773880.782566965921	3
7	12404	773915.919867195149	4
7	12406	773990.865523810231	3
7	12421	774747.729284243536	4
7	12424	775115.565939813493	3
7	12437	775476.451092904074	2
7	12441	775536.590555564199	3
7	12448	775623.028803141097	2
7	12457	775742.75675773138	3
7	12471	776143.234389122535	4
7	12479	776462.437640850933	5
7	12481	776503.362311171135	4
7	12486	776677.683701536418	3
7	12490	777295.066327274931	2
7	12496	777474.594078705756	1
7	12509	778347.758889531674	2
7	12514	778641.958666223304	3
7	12532	779632.216065910561	2
7	12542	780379.147357686113	3
7	12555	780409.773296181855	4
7	12558	781373.132605683357	3
7	12575	781793.965080203911	4
7	12579	781981.323438052645	3
7	12584	782189.557221974535	4
7	12591	782663.097076565448	3
7	12601	783049.318696138594	4
7	12605	783087.263511970018	3
7	12608	783735.337774030863	2
7	12635	785384.796016641825	3
7	12640	785524.705567363161	4
7	12648	786166.682578307717	3
7	12656	787313.105837914434	4
7	12661	787470.032719115893	5
7	12668	787497.445306896079	4
7	12683	788105.977401886652	5
7	12693	788621.27857037321	4
7	12700	788715.462834776553	5
7	12707	788831.441461353458	4
7	12715	789029.304637354599	5
7	12719	789079.258753183	4
7	12722	789113.970738168342	3
7	12725	789334.736622402097	2
7	12729	789485.655929830865	3
7	12734	789795.054140786481	4
7	12742	790184.112469274094	3
7	12749	790425.012946750663	4
7	12754	790517.93902610046	5
7	12759	790572.96485864954	6
7	12771	790898.258254833091	5
7	12781	791171.685151112195	6
7	12785	791203.949612272461	5
7	12793	791328.828389434919	4
7	12810	791821.00356132124	5
7	12815	792454.090885485445	4
7	12818	792695.602425769109	3
7	12821	792721.579390528187	2
7	12839	793354.094481413871	3
7	12852	793739.619400163045	4
7	12856	793754.565503275983	3
7	12879	794386.003582910337	4
7	12888	794845.318353323793	3
7	12892	795395.04720350546	2
7	12895	795512.197343670798	1
7	12903	795713.690266297027	0
7	12940	802630.167710796257	1
7	12945	802692.750042306046	2
7	12953	802910.501487384793	3
7	12957	804130.094780283538	2
7	12962	804206.685647472545	1
7	12983	806212.282792088113	0
7	12997	807420.09846965545	1
7	13002	807764.740998694942	2
7	13007	808009.195532389635	3
7	13013	808867.325401360534	4
7	13018	808893.411438945143	5
7	13022	808953.287444303226	4
7	13039	809676.892130387928	3
7	13043	809704.090648068619	4
7	13051	810444.12258865763	3
7	13060	811530.782669854567	2
7	13065	811589.226373149654	1
7	13082	812401.531055778642	0
7	13086	812402.888923005548	1
7	13090	812965.440531333099	0
7	13110	815519.586949693741	1
7	13118	815730.521386639838	2
7	13121	816055.181699172181	1
7	13139	817499.726201392062	2
7	13144	817990.010193592016	3
7	13147	818863.834757614094	2
7	13162	819767.739573932286	3
7	13165	820169.751388119107	2
7	13180	821835.244322794418	3
7	13192	822415.775532457085	4
7	13200	822507.01953036197	5
7	13208	822698.990676808633	6
7	13212	822771.327871909909	5
7	13219	823047.812671596447	4
7	13223	823056.269485335776	5
7	13227	823101.165533825946	4
7	13231	823241.643053201408	5
7	13235	823388.576323480986	4
7	13255	823683.900392043454	5
7	13259	823698.767291122011	4
7	13266	824055.493860534811	3
7	13270	824122.102688354161	4
7	13275	824385.096592368001	5
7	13279	824440.60037252127	4
7	13294	825542.597521342781	3
7	13297	825836.679774009906	2
7	13307	826190.700014363386	3
7	13312	826194.278915523962	4
7	13325	826963.508701423211	5
7	13339	827463.048479165608	6
7	13353	828244.336736011622	7
7	13357	828260.523753917823	6
7	13374	829652.412191585576	5
7	13378	829742.118854242393	6
7	13387	829775.89678291812	5
7	13396	830104.527947354107	4
7	13399	830133.142670709131	3
7	13422	830714.533953177672	4
7	13428	831484.607817594027	5
7	13433	831731.711743679503	6
7	13450	832021.295396326326	7
7	13455	832034.743064165209	8
7	13457	832136.080911483973	7
7	13462	832163.50563325475	6
7	13473	832858.332676169516	5
7	13477	833021.75535116474	4
7	13480	833365.868704872844	3
7	13484	833406.859122039096	4
7	13497	834387.875334554618	3
7	13500	834427.345829394009	2
7	13513	835151.926296107135	3
7	13518	835573.278035009871	4
7	13534	836688.639267239163	3
7	13546	836787.042303777134	4
7	13551	836841.005131682392	5
7	13556	836907.703215590239	6
7	13566	837075.593115402045	5
7	13574	837795.132579517719	4
7	13588	838320.609628622413	3
7	13596	838902.030792410726	2
7	13616	839554.836207831289	1
7	13620	839586.667302331534	2
7	13625	839779.05074424592	3
7	13639	840720.073049389468	4
7	13648	841166.626377357093	5
7	13650	841992.304205984525	4
7	13659	842359.688390240774	3
7	13673	842973.340169400862	4
7	13683	844377.362929900844	5
7	13690	844545.029317302822	4
7	13693	844594.987799013518	3
7	13696	844813.044617341245	2
7	13701	845148.861253637676	3
7	13705	845579.360008433239	2
7	13726	847345.658221823441	1
7	13738	847915.710405064418	2
7	13744	848584.674123748483	3
7	13749	848721.883846195605	4
7	13768	849876.981138983837	5
7	13770	849903.395350558078	4
7	13788	850177.114832631665	5
7	13795	850674.756553055202	4
7	13799	850859.135132667364	5
7	13805	851086.071476856651	6
7	13818	851610.255469701335	7
7	13820	851703.747321294044	6
7	13834	851813.034531692359	7
7	13836	851922.821481660938	6
7	13842	852288.341580655329	5
7	13845	852792.148888189962	4
7	13864	854075.586365795667	5
7	13871	854353.393198044286	4
7	13886	855582.551843846423	5
7	13894	855770.577177078762	6
7	13902	855892.224390558676	7
7	13904	855952.334315950361	6
7	13910	856277.794148128041	5
7	13913	856440.276062675115	4
7	13936	857674.829711733385	3
7	13940	857782.679726170411	4
7	13945	857833.389299012681	5
7	13951	858155.381217321047	6
7	13963	858960.843850750635	5
7	13972	859327.064334516004	4
7	13987	860036.762179802068	5
7	13990	861522.208641068379	4
7	13998	861598.926354780256	3
7	14008	862030.290923982694	4
7	14012	862273.508629893905	3
7	14025	863363.627306955368	4
7	14029	863689.563727431275	3
7	14040	863855.384514088837	2
7	14050	865243.719429923735	1
7	14065	866237.382393565306	2
7	14067	866672.254957874949	1
7	14083	868730.829614521184	2
7	14086	869993.704628148367	1
7	14101	870245.019447651366	2
7	14109	870520.999174630577	3
7	14118	871111.44282059753	4
7	14130	872051.435769651877	5
7	14135	872155.63624270297	6
7	14137	872325.373976746362	5
7	14142	872355.007235023925	4
7	14150	872665.150601420948	3
7	14163	874100.992673837318	2
7	14178	875037.899653717228	3
7	14180	875075.570578662513	2
7	14196	875593.784334829203	1
7	14200	875914.768838642486	2
7	14206	876553.243513973454	3
7	14214	877320.611276281823	2
7	14222	877987.789259774095	1
7	14231	878436.25976534902	0
7	14247	880161.192186919547	1
7	14249	880311.126775693101	0
7	14266	883882.800760141824	1
7	14278	884910.676593384535	2
7	14284	885144.953625920833	3
7	14286	885333.345647092697	2
7	14294	885761.613549830737	1
7	14309	886681.646003046453	2
7	14312	887822.94427131187	1
7	14321	888437.155601716879	0
7	14338	888692.549440761011	1
7	14344	889182.815527310035	2
7	14346	889435.30702412061	1
7	14354	889747.201951863891	0
7	14364	890567.135521496324	1
7	14372	891203.900167113043	0
7	14388	893297.198309563794	1
7	14397	894128.397603699964	2
7	14400	895717.90975267326	1
7	14408	895890.050078142873	0
7	14423	896327.117348261051	1
7	14434	899748.533656144184	2
7	14443	900892.802999672561	3
7	14453	902077.132783603687	4
7	14455	902400.041017524766	3
7	14463	903008.899750590626	2
7	14468	903012.925730626277	1
7	14491	905462.068152065635	2
7	14496	905576.114811088102	3
7	14504	906339.581954187206	2
7	14508	906540.651986295209	3
7	14515	907018.039331830061	2
7	14530	907830.31342844917	3
7	14539	908942.845864440719	4
7	14551	909130.863000366348	5
7	14558	909180.821930224234	4
7	14562	909430.528074749332	5
7	14567	909444.07371766775	6
7	14575	910030.686578722506	5
7	14583	910635.130290280766	4
7	14592	911331.213034372277	3
7	14601	912173.268927126278	2
7	14619	913907.438017292793	3
7	14625	914020.883960775919	4
7	14634	915182.401100439799	5
7	14637	916575.656555227662	4
7	14643	917359.329582703513	3
7	14646	917362.414222633374	2
7	14664	918090.673853153086	3
7	14679	918845.331042310601	2
7	14687	919536.787339661137	3
7	14695	919810.56317142709	4
7	14700	919943.897144790061	5
7	14704	920007.018258128929	4
7	14709	920070.513538661429	5
7	14722	920416.095498410724	6
7	14736	921068.166102416345	7
7	14738	921236.987599738299	6
7	14743	921605.396291951907	5
7	14751	922011.920048240299	4
7	14763	922672.630730433683	3
7	14777	923418.780846911308	2
7	14781	923975.538350948002	3
7	14796	925059.25549011665	4
7	14804	925193.555512295981	5
7	14806	925251.653274100356	4
7	14814	925527.828801574934	3
7	14823	926504.321687297883	2
7	14832	927639.538678831065	1
7	14837	927898.677781462645	0
7	14850	928411.468257201553	1
7	14867	929329.696622404236	2
7	14872	929431.397247270285	3
7	14874	929786.244096229776	2
7	14889	930039.107475078134	3
7	14891	930644.455515668249	2
7	14900	931257.024725582797	1
7	14917	934362.978849505402	2
7	14919	934649.818192539386	1
7	14935	936560.410459949951	2
7	14937	936946.067960850959	1
7	14952	937733.903231001327	2
7	14964	938500.884055233268	3
7	14972	939494.899985704391	2
7	14976	939523.541317614789	3
7	14980	939644.104173351976	2
7	14984	939769.286142739866	3
7	14992	940086.11920073196	2
7	15000	940282.700355551116	1
7	15004	940535.974567493393	2
7	15028	941557.696163799568	3
7	15043	942023.733767494572	4
7	15047	942048.888019535362	3
7	15051	942173.325292939605	4
7	15055	942174.429748630182	3
7	15059	942208.16610352281	4
7	15073	943219.790906215226	3
7	15076	943286.206727554547	2
7	15084	943481.947846055881	1
7	15089	944219.695362786817	2
7	15094	944381.062732008415	3
7	15099	944423.988489280245	4
7	15103	944466.520596196977	3
7	15120	945013.045834569933	2
7	15124	945388.116850343626	1
7	15128	945427.932249329322	2
7	15132	945511.748538842187	1
7	15136	945544.398352011878	2
7	15143	945883.079506446751	1
7	15148	946060.167046528412	2
7	15153	946092.40383207619	3
7	15179	947154.621296152383	2
7	15182	947303.416314382698	1
7	15190	947734.52165338265	0
7	15201	948073.358073825967	1
7	15206	948079.99923850863	2
7	15214	948953.899873306994	3
7	15218	949008.379313925501	2
7	15224	950200.188789289478	3
7	15229	950236.879646133804	4
