version 2
run QueueMeasurement-65-20170109-14:19:27-6498
attr configname QueueMeasurement
attr datetime 20170109-14:19:27
attr experiment QueueMeasurement
attr inifile queueStudy.ini
attr iterationvars ""
attr iterationvars2 $repetition=65
attr measurement ""
attr network controltower.SimNetwork
attr processid 6498
attr repetition 65
attr replication #65
attr resultdir results
attr runnumber 65
attr seedset 65
param SimNetwork.a.parkingLot.parkingDelay exponential(45min)
param SimNetwork.a.runway.landingTime exponential(5min)
param SimNetwork.a.runway.takeoffTime exponential(5min)
param SimNetwork.a.runway.throughputCheckInterval 16.667min
param SimNetwork.wg.interArrivalTime exponential(16.667min)

vector 5  SimNetwork.a.runway  landedThroughput:vector  ETV
attr source  landedThroughputSignal
vector 6  SimNetwork.a.runway  tookoffThroughput:vector  ETV
attr source  tookoffThroughputSignal
vector 7  SimNetwork.a.parkingLot  parkingOccupancy:vector  ETV
attr source  parkingOccupancy
vector 2  SimNetwork.a.landingQueue  queueLength:vector  ETV
attr source  queueLengthSignal
vector 1  SimNetwork.a.landingQueue  queueTime:vector  ETV
attr source  queueTimeSignal
vector 4  SimNetwork.a.takeoffQueue  queueLength:vector  ETV
attr source  queueLengthSignal
vector 3  SimNetwork.a.takeoffQueue  queueTime:vector  ETV
attr source  queueTimeSignal
vector 0  SimNetwork.wg  responseTime:vector  ETV
attr source  responseTimeSignal
0	1395	73975.399822050201	7223.0378712673
0	1443	75948.165652238035	6141.0762915731
0	1452	76146.665117800956	6142.5751118332
0	1457	76240.07136764434	9818.9453228729
0	1462	76566.121995433393	2846.6898184452
0	1473	76931.527929710322	5571.8308233866
0	1487	77330.641295910386	3260.2818361578
0	1492	77430.679028893104	6494.4094511936
0	1501	78101.590917319602	2889.068884178
0	1534	79594.042716669093	8291.5484029546
0	1551	80771.186879332004	12342.719361083
0	1568	81246.499741331471	4523.0608214556
0	1576	81253.80107208671	6759.9118089532
0	1587	81531.405938245498	3339.8421615653
0	1592	81777.479771578619	3335.7980170531
0	1609	82439.114758696558	2365.6993451575
0	1646	83505.426606069405	1021.4610999525
0	1662	83904.220497485753	3040.4291068656
0	1700	84719.030090253306	2819.8518159559
0	1718	85779.696901879494	6567.119128839
0	1775	89859.791613828415	7224.5796977004
0	1787	90617.165316101804	19237.703287738
0	1795	90770.648128638855	7101.7648376458
0	1805	90916.481337491062	6943.8581854287
0	1810	90930.064298495961	7043.1550948803
0	1816	91040.136398496041	6590.3114383632
0	1821	91094.721529623079	3763.2489970749
0	1838	91913.283147164269	6933.6694974055
0	1890	94086.37569028784	6046.4499009406
0	1941	96546.611307526475	11682.449635039
0	1949	96620.850722821607	10904.411247724
0	1963	97235.469447059734	5764.0962165126
0	1968	97268.544462142137	9503.1327209205
0	1973	97290.220395222454	6056.1576376853
0	1978	97365.960071886021	5830.5251714781
0	1986	97482.242995219639	14455.842146023
0	1996	97586.979514620174	6920.6804860047
0	2001	97881.968200534949	4395.4549544562
0	2006	97945.965067170738	5058.0197978088
0	2015	98325.808944542525	6645.6955989536
0	2023	98661.251171978539	3600.9907776764
0	2033	98790.458593850578	2170.8699588462
0	2045	99595.066678115173	6040.4232123769
0	2071	101069.490210685097	2721.4616612396
0	2076	101453.189062219286	4006.3895070229
0	2110	103906.548564411253	1501.1890265109
0	2144	105774.078168404038	2062.3249736609
0	2165	106575.694589381718	7215.2793968051
0	2210	108342.70142867929	8184.757299211
0	2215	108380.535992096693	3606.2606598334
0	2220	108414.149021589105	5011.7798396351
0	2228	108976.626936596695	2836.4862212111
0	2242	109274.375712464057	4836.163154242
0	2255	109854.628164013179	3886.3682809005
0	2260	109992.919003725763	4403.8200067684
0	2269	110184.359074242167	3488.2381719337
0	2280	110785.493339967493	1990.1646960782
0	2285	110899.657938177086	4269.895566417
0	2321	114491.582357952272	2942.6665330311
0	2329	114855.179923696225	2417.7350503298
0	2347	116591.419942408372	2994.3163885142
0	2357	118958.357309269585	9724.8769347889
0	2374	119799.151761648663	3767.6191180737
0	2429	126535.669590279649	3049.6727149468
0	2446	127528.432701191206	3446.1141886454
0	2458	128736.35162796915	7500.9088138146
0	2463	128858.042711404627	3107.237338106
0	2493	131042.771019505292	12076.815479195
0	2548	132848.02873303626	5752.9806361262
0	2557	133242.287106704432	4246.3464159149
0	2602	135730.282162420908	13367.033076944
0	2611	136408.608327608254	5168.7202486413
0	2619	136743.040959665905	6516.5949387893
0	2640	138688.511786682434	7271.7952669939
0	2645	138704.962568413863	9020.0407481526
0	2650	138813.613391742357	5025.1851920456
0	2662	139221.392453909771	4301.2145987047
0	2668	140182.964134053356	8993.9730895044
0	2673	140193.244816642383	9150.2995001489
0	2681	140343.136100925705	6790.578573455
0	2717	142214.212664825934	9016.3025125404
0	2725	142863.878230255498	2543.0171467647
0	2758	145247.958764610562	3512.2687899993
0	2763	145253.912114759464	2259.4387551901
0	2768	145698.303907952818	8982.2959935977
0	2777	146498.043492941439	5663.567094608
0	2786	147173.500031490726	6792.9040464795
0	2828	149422.635140242731	615.57871315579
0	2845	150426.750290775491	6821.0332769289
0	2885	152486.235933412485	3564.8427824642
0	2890	152612.418349668006	4442.6770360545
0	2898	152942.370574544436	2315.1124070465
0	2904	153233.004976358286	2293.0528507329
0	2922	155490.348092457979	5693.2495803971
0	2930	155900.412874327896	8292.6762581441
0	2962	157525.336130423498	1558.5846270579
0	2972	157633.574182086349	6150.6849182767
0	2980	157931.351429625794	1770.3597846142
0	3017	162902.288054172919	5428.4142672634
0	3037	163973.428562830031	4479.3135311462
0	3051	164767.235875069395	1591.5562188431
0	3063	165195.963183505951	6450.3609797036
0	3068	165818.476962621909	11350.805739537
0	3108	170145.734449795185	3398.2164541034
0	3153	172035.125390562785	8436.3374641248
0	3161	172190.156707600589	4148.9679873334
0	3166	172441.959204618577	1338.3186907206
0	3171	172551.542636753508	2978.5240337145
0	3180	173938.499316066201	3787.7070435271
0	3218	176600.047187788661	2170.4738668238
0	3235	177350.385586554635	2449.5978279448
0	3240	177449.199571060726	2331.1760318698
0	3249	178046.361418174614	17443.245544815
0	3267	179733.262412137149	9662.6261911949
0	3283	180736.424577664667	9318.0674246529
0	3292	181035.206277506103	4793.2550953272
0	3300	181400.819487431087	1856.1652485909
0	3325	182575.663184821866	2880.5881868201
0	3377	186365.039601471454	3721.1992770856
0	3389	187047.749246729466	5421.2622479519
0	3394	187164.268856774247	5392.3848792913
0	3404	189012.508315522341	4417.8060598517
0	3440	190555.042458485087	5340.4255083271
0	3445	190559.405659916511	1008.2083559263
0	3453	190928.784522665453	4862.3612404908
0	3463	192187.152130159202	7494.41771678
0	3530	195406.511091260418	5339.2923027981
0	3539	196250.061755498007	3050.0932679885
0	3547	196752.101679189034	3973.3891207537
0	3559	197492.083107844711	4502.2117431662
0	3572	197930.491232379579	2772.8064573644
0	3581	198191.789461925744	4408.4433443217
0	3597	198971.990503297032	8685.2401451018
0	3609	199812.888871983095	2451.1614752562
0	3641	202660.627042630322	2931.7652422643
0	3650	203175.1068423509	3231.5629976844
0	3662	204155.240215962083	9363.5394639769
0	3670	204862.52871471653	10120.279571613
0	3695	207525.934459466113	6580.2732449377
0	3740	210196.391396599165	5784.6604882876
0	3745	210213.127482461223	2163.628549122
0	3816	213453.616779759893	6864.0473858822
0	3821	213712.39702637828	7443.3581431685
0	3826	213775.603265909714	4757.2567396448
0	3841	214440.659554377933	8543.1516385791
0	3849	214848.226221733584	16656.323885172
0	3855	215159.113557053848	4398.2605388106
0	3860	215388.100098775388	4891.8659671658
0	3868	215629.44257806977	4896.0968015965
0	3882	216261.97254752841	5581.5278325588
0	3887	216449.094668237638	5566.7801608907
0	3896	217109.384654612246	5942.8696118876
0	3913	218532.518445833916	3077.6423004828
0	3952	222359.045968778141	4161.7484488021
0	3993	226005.329574194033	2660.8342843222
0	4004	226375.601285128806	4836.9004404096
0	4009	226438.337625756754	4465.2465039702
0	4026	227085.123619114299	2706.3886620891
0	4051	228350.71523472167	7470.9122191306
0	4096	230138.394711364261	3595.3784892649
0	4101	230304.534023550234	1445.247785823
0	4110	231409.74217658354	1659.5932069189
0	4128	232153.779026303376	2849.312737733
0	4138	232223.694570196549	9905.4934033357
0	4143	232281.207242465096	4324.0168235756
0	4180	234845.346979465713	10288.584232947
0	4186	235194.302138698032	7083.9297467192
0	4195	236199.111882696217	6434.0284025296
0	4207	237519.489706512814	4761.955483518
0	4212	237595.381505354204	5533.2594898402
0	4266	240490.482708407185	6367.889422282
0	4271	240564.137357011889	1223.2704868319
0	4283	241480.684696608391	8427.9060728359
0	4300	242441.441525449864	3848.4144242449
0	4313	242814.61942976284	2575.7915312084
0	4322	243105.46744192005	4014.086736005
0	4339	244882.586415816564	3820.971790361
0	4360	246806.882339924741	7427.5453111896
0	4372	247385.248581932974	5354.3817303873
0	4438	249484.340651658373	5704.7908723023
0	4453	250129.48044906664	3230.7233183171
0	4458	250191.537707045335	2355.8743001431
0	4463	250795.36792723816	2869.8737135656
0	4468	250965.34051707084	2630.365967477
0	4474	251125.588267150218	2365.6639319146
0	4491	252204.635410486709	6127.0495291356
0	4508	253451.646558131115	5836.6535106823
0	4519	253716.505855579678	4926.7478973973
0	4533	254153.832375164971	2737.9719663382
0	4541	254287.608476472211	2061.7723900625
0	4576	257619.654527448155	2030.4945305448
0	4630	260991.465693421773	7279.9644849533
0	4636	261143.078910796784	4443.8445244204
0	4644	261472.219376276979	2705.1025989949
0	4652	261965.519878132964	2897.8428839153
0	4662	263436.763385974907	3744.2600051747
0	4671	264298.143205767009	4808.8127885789
0	4684	266280.175766847067	9201.7625579891
0	4723	268567.085224222574	1138.5972922324
0	4739	268724.517758993577	392.83331104047
0	4766	271040.038064121512	5171.003577741
0	4774	271421.327595319556	2247.9900924543
0	4790	271916.299214127039	3313.2686276477
0	4799	272753.582558637821	3173.0140257081
0	4812	274100.501221966689	14374.567606352
0	4825	274825.066834882354	3005.7746413006
0	4859	276378.69138181687	926.36506609371
0	4875	276935.711871695086	1894.0292418095
0	4917	278848.423073087042	11054.634769891
0	4929	279697.316019105076	2665.2478488217
0	4937	279902.457923473937	2690.522026075
0	4943	280031.810179770712	3486.9231871307
0	4962	280882.00072734671	3116.9799261085
0	4974	281331.881137256642	2838.2632275153
0	5007	282990.214217058658	7372.1697461365
0	5013	283308.681548889958	9325.530995032
0	5024	283995.80046221345	3566.5807490477
0	5035	284352.269298843166	3207.0950761665
0	5050	285077.78926015254	3741.390804211
0	5060	285357.121068758938	3927.6593695452
0	5069	286025.627216881952	2662.9002210614
0	5095	288648.54657480219	3884.3728507335
0	5149	291662.850081022068	3788.9691779687
0	5167	292259.507359396626	2334.8030152087
0	5202	293640.169624802537	4267.8150620024
0	5207	293841.007403084441	4079.5032161085
0	5216	294211.934677078249	7537.323693028
0	5221	294282.458662155675	3966.7476821944
0	5238	295454.922771627357	2219.0037975558
0	5247	296468.872427128564	4601.8977623778
0	5256	297034.150708123554	5064.9642903454
0	5279	298546.835755421866	3430.0104294085
0	5289	298631.851089311677	6077.5115830193
0	5328	299836.343807864738	2250.5354113486
0	5333	299894.436950213779	9174.9550830778
0	5339	300250.432239721899	1427.5803310613
0	5377	303107.435928450272	3607.1177849684
0	5390	303570.570004052717	1561.8399914207
0	5422	305756.732793984801	4102.9366219536
0	5440	307179.981779271329	6042.8142706999
0	5451	308072.941833267985	3688.1863462307
0	5468	309239.366114730939	6224.9781320863
0	5484	309980.424331553739	1164.1674906656
0	5493	310235.807700633179	11936.348518781
0	5508	311399.4543285661	5730.7943229739
0	5521	311827.092326442594	7149.4305268806
0	5526	311986.748654654342	5376.6452600302
0	5543	312827.331581583983	13855.432400645
0	5663	318681.02098182497	7744.2672413041
0	5676	318957.319312436909	9687.1242246095
0	5685	319599.684331664217	5983.1916806343
0	5695	319669.550879711269	7431.5438547068
0	5700	319825.864213487502	6579.1129893267
0	5712	320104.425097800316	4347.3919496483
0	5717	320371.932355870485	2237.9486383036
0	5735	321379.470283300556	6000.3782109855
0	5768	322483.146476903529	4062.7953753448
0	5785	323474.167994362243	9476.1790698154
0	5790	323497.463030333593	7989.4583130333
0	5795	323961.892934784699	6724.4109924889
0	5801	324432.236856433527	10365.684184089
0	5806	324641.028250134248	3376.6384253887
0	5817	324773.391436307259	8232.9641166879
0	5831	325507.776566603821	6167.0777645604
0	5836	325822.311720018945	8902.6122055113
0	5861	326496.435115247158	644.04816777339
0	5873	327026.249991083683	2366.7010116506
0	5878	327312.364614354362	6886.1093828451
0	5886	327437.437773436163	5997.9225614549
0	5911	328445.191491901091	6013.7351740148
0	5919	328593.952276741755	2560.1875193719
0	5938	331386.125520629357	3601.6137576976
0	5948	333910.965775001378	6020.7577826622
0	5983	336981.783404818755	632.32844654424
0	5992	337816.854778641856	2904.9571252854
0	6009	340021.446309181109	9905.5391795362
0	6035	340734.138268329523	4023.9612042712
0	6048	342441.766731537712	2486.645687989
0	6097	344447.252331836509	4518.6695773298
0	6176	348109.256578696424	5822.1464632796
0	6191	348610.498160048284	5652.5540054202
0	6203	349099.221941591063	5109.1048083691
0	6208	349170.464061042195	6063.8312387094
0	6226	350693.5490030664	6912.1036769442
0	6272	353446.012371433641	9658.2799851213
0	6278	354356.535557944846	14035.754356173
0	6283	354439.021662880389	7713.8922720973
0	6288	354518.368586763402	10011.673905762
0	6296	354808.063728036117	7185.147288805
0	6309	354884.737257680806	9152.985857484
0	6332	355932.085191448298	9585.9179367796
0	6343	356307.988380586256	12341.127410654
0	6348	356388.11216022453	4568.3691028611
0	6356	356467.32478689624	7231.1336073469
0	6361	356521.567557805618	5026.4478924719
0	6369	356667.479944305483	1991.5098884799
0	6374	356683.205988949429	4838.2155495921
0	6379	356742.018591780067	1874.7895393276
0	6396	357810.777776817277	9851.8093580342
0	6424	361275.87966804283	2021.6919391236
0	6460	362618.738669606746	6991.9250849781
0	6469	363359.980252267487	5880.7003522267
0	6482	363931.820749117332	1938.3009004381
0	6492	365816.279511672185	4345.8463127524
0	6501	366721.040818005794	6106.4988609685
0	6509	366925.366181965852	4873.2213924133
0	6551	368709.589645062393	5364.1630611242
0	6568	369273.29699315863	1887.7494714049
0	6596	370246.986753449012	591.50171507369
0	6607	370511.460241245404	1771.197151896
0	6617	370542.489152795998	2145.0375268208
0	6642	371838.723367879136	3698.4855385417
0	6659	372941.221438052246	3089.6477349701
0	6716	374760.816508987326	4262.6543863992
0	6744	375699.160348766928	3214.3800605422
0	6766	376769.050560106148	5216.5016569003
0	6774	376965.834036070367	3176.5128176806
0	6786	377698.772210027763	4660.3466968771
0	6828	379313.597640714696	5442.5951564661
0	6833	379751.215690772708	11713.093618501
0	6844	379959.753917181585	9198.3410921145
0	6849	380004.630348699681	5446.3151193545
0	6858	380180.364229301606	5566.8773536703
0	6880	381265.04243285489	5805.3540289365
0	6888	381769.038070793085	8477.5000665983
0	6902	382296.38955893533	6161.3384552334
0	6907	382340.409507775136	4028.7619300327
0	6912	382435.060488547455	3700.1998492522
0	6921	383355.776042388872	6095.0887949711
0	6934	383603.287351317483	3142.2013974323
0	6946	384667.121022268883	6457.2075844179
0	6961	385631.772040658258	4099.4105797233
0	6983	386820.522636932002	6661.98559918
0	7024	387967.270811578774	2391.97787651
0	7035	388175.800374239979	1651.9852323554
0	7043	388352.14973208629	5453.218013936
0	7052	389342.10683325815	1965.3103140942
0	7080	390666.54485145548	2739.6969792572
0	7089	391033.864629222291	4298.4292112852
0	7094	391243.288622491014	1405.3295537807
0	7105	391928.44941018606	4733.9983934072
0	7111	392078.940129757945	6892.9578337337
0	7142	396225.830514863425	6165.8156495792
0	7147	396718.456287935943	1244.9449369995
0	7187	401082.849771919371	5490.9513063317
0	7196	402077.926457631567	2844.0287308029
0	7209	402955.892707586123	2653.5741224729
0	7230	404284.93505816267	2476.6864727018
0	7243	404958.909032262512	1314.7452215577
0	7252	405277.298440474567	5359.8441950844
0	7326	409283.316727619434	3461.2093749493
0	7341	410169.119064438987	3823.0298641855
0	7346	410203.487234754004	3990.4054823596
0	7365	412246.579727914106	4203.0018794391
0	7391	413107.104232464259	5910.5872037016
0	7402	413806.462869742337	9593.1685973705
0	7411	414180.237822470697	2865.3859751619
0	7430	414726.877818644423	6139.6833864302
0	7445	414890.62767358613	4241.1796704927
0	7454	415266.784464375937	567.07979376334
0	7463	416295.606420104859	10329.854731985
0	7475	417163.101099295769	3295.0348528511
0	7521	418609.765157994917	2095.605535324
0	7536	419959.997771277856	2764.5464372597
0	7556	420461.148109436785	5745.4945334397
0	7580	421448.531180027813	9411.5781338422
0	7588	421961.694209879466	11370.223132891
0	7613	422828.649705572445	2481.2637154605
0	7633	423698.273776456659	3626.4898232042
0	7644	423821.08216322538	1426.9380420127
0	7653	424142.657526932725	3985.9966909445
0	7658	424342.458747114022	4994.8514367974
0	7663	424405.19218409186	6425.4566792433
0	7683	425980.679801627415	3758.9008927261
0	7688	425987.009590617251	7808.3075594932
0	7706	427780.398162331362	4579.7233660883
0	7715	428471.558619686415	2993.1091362726
0	7749	430474.88309109813	12606.206749643
0	7764	431060.532210200825	2142.6600633394
0	7794	432871.239322010648	6201.1845269403
0	7800	433346.011768964516	4300.7215990117
0	7808	433740.104050231068	2716.6684032231
0	7817	434119.193940008403	2819.1893068607
0	7826	435045.035459615377	5258.3118287741
0	7843	436210.070959198873	4311.942237582
0	7861	438145.530904101195	2102.5195945086
0	7897	442645.772969040887	3821.4750244518
0	7920	443771.727725609565	5591.5493524786
0	7948	445295.676946624569	8695.9812057434
0	7962	445675.565970012473	2006.5105421856
0	7971	446026.397296227721	3300.9247550506
0	7976	446545.212554795779	3027.7715170192
0	7982	447222.760090988077	6837.2254377332
0	8018	451320.047463881753	7154.7843281391
0	8035	452979.323916004162	5509.1849274172
0	8044	453755.005315200865	4467.8177512632
0	8065	455884.618283386655	7467.8144852965
0	8090	456753.494494931411	4669.8866443683
0	8095	456972.300749409326	2429.3428781672
0	8121	458836.912443764989	2742.6196130126
0	8147	460637.047669188435	3408.9651677497
0	8164	461314.861174247849	5517.0819128408
0	8181	462254.99905795805	1357.8738234947
0	8189	462632.654947008756	4035.1993025497
0	8203	462951.331134694879	3141.1864935632
0	8225	463336.336283946135	3602.7873132967
0	8233	463943.049096090812	2615.8054667591
0	8257	466025.295407524003	3154.531858881
0	8277	467096.352854567764	3591.4513931735
0	8282	467145.91493295359	4304.4265195299
0	8319	469957.880942186598	3801.1867241764
0	8325	470164.729843400315	2772.1006824385
0	8337	471259.230658860036	3486.0395729855
0	8352	473639.392143990219	5797.4978752402
0	8387	476056.728427427046	11602.888168004
0	8442	479133.69912454236	4007.8719836074
0	8515	482106.556219814856	6454.3001601985
0	8529	482503.407811273446	6305.2535278385
0	8552	483032.24022245639	7422.9487699732
0	8585	484793.988011300224	7769.5650898022
0	8590	484969.201487000796	6383.3185440842
0	8599	485266.197193160029	8519.5244990891
0	8608	486011.210551982681	6696.1360937157
0	8616	486414.108709079339	9114.5262639838
0	8635	487073.963425909447	7760.6084545734
0	8640	487247.664164014722	16059.694771117
0	8648	487312.833702862471	5898.2520966143
0	8653	487451.095886558018	8172.4726320875
0	8658	487590.012501639536	5342.9664090559
0	8666	487758.574101324729	8364.0826982969
0	8676	487920.53728378982	9613.7724976559
0	8681	487934.408213044763	5068.5710858015
0	8687	488313.866037517004	5461.7245414486
0	8697	490129.542648249769	3585.9894516458
0	8718	492747.308063003494	6420.601969447
0	8723	492792.801756455159	9705.1860318035
0	8741	494143.246598779607	6498.1497528614
0	8767	496241.094691393886	1520.3711736458
0	8775	496591.108651407562	4808.9936931016
0	8795	497267.570705590222	3639.6197006644
0	8800	497374.400359137735	2199.5095215823
0	8844	501363.50991466658	4638.3188486335
0	8863	501883.749996143339	3569.2468170011
0	8869	502416.525532885245	3145.0443206021
0	8878	503014.489487055047	2237.3010123618
0	8886	503249.304182009605	3054.7025111206
0	8919	504751.906683965949	1241.4265002314
0	8928	505168.864288736312	3675.7358905642
0	8958	511675.218650352417	5171.6841875424
0	9003	513828.757386340926	1420.9199110431
0	9011	514000.447072432426	10254.193833822
0	9025	514758.805127407675	4111.1381554875
0	9034	515961.967913122421	3241.3701265397
0	9055	517604.590705583179	4443.6834114898
0	9060	517678.44739214589	13144.471892066
0	9077	518322.880893076258	1778.7813494929
0	9146	525494.074906733027	2654.8044363301
0	9151	525518.184621993045	2670.2503060723
0	9160	526296.348781326048	5085.1526441444
0	9165	526400.128740284171	8569.1861058238
0	9202	528233.24866535609	14811.680235427
0	9207	528581.763079301405	4268.9202045133
0	9216	529079.971475039151	2083.8814245048
0	9256	531347.444914907859	10323.584828188
0	9264	531450.126114688792	17620.005268444
0	9292	532723.1320852841	5819.4538136644
0	9297	532818.246838705647	9224.1395005305
0	9302	532818.824996667332	2571.3248291613
0	9307	532867.777338372995	1429.5907842628
0	9381	535528.042402275012	5476.8447868801
0	9398	536360.915570731936	2944.1593983805
0	9440	538582.411396108256	5154.4927095396
0	9445	538664.385285914227	8176.7257285349
0	9460	539574.684487985842	6027.3807748561
0	9465	539863.547192317511	8333.4782542798
0	9470	540002.366108231214	5989.9637118655
0	9485	540962.590379375839	4514.7252627741
0	9502	541460.066645313042	8125.2563266954
0	9543	544690.860835862022	7681.9938852814
0	9570	545486.351383126894	18027.868688298
0	9583	545870.844502911538	11066.476030516
0	9594	546433.412277656179	10791.43033042
0	9599	546608.25265356703	8790.3458449513
0	9614	547102.45123128707	6180.5832443145
0	9632	547752.559010089837	12505.843294681
0	9644	548502.906889901376	5477.9138096256
0	9658	549133.406578723657	3684.4918905048
0	9663	549210.11836925061	4320.6430848136
0	9671	549456.868790381878	2791.1416875573
0	9679	549863.909887180461	5361.0038870035
0	9701	550639.239302556932	2194.0076203083
0	9724	551732.427114751746	1554.4239751483
0	9729	552010.768318428843	6220.2141855034
0	9735	552065.319739627374	5078.9347806664
0	9751	552907.506029369015	1948.2351629768
0	9760	553842.137614579164	9777.5657828703
0	9769	554481.125393545148	12135.396942817
0	9777	554815.944700480047	5299.9751430292
0	9802	557149.156117145092	15997.72810412
0	9838	559771.274331052915	3259.7428531927
0	9847	560947.739967894338	2642.196612932
0	9860	562500.017458566666	10144.549035946
0	9874	563249.916062512024	7474.231107978
0	9882	563484.928662898421	7823.6865273284
0	9894	564119.925709950063	5588.9510865641
0	9924	565792.622066050764	1978.1607218226
0	9941	566308.064188876368	3924.2846735503
0	9951	568622.118073330748	3704.0445455672
0	9959	568864.720801366484	4413.5506239193
0	9988	573100.335570772408	3178.3046781502
0	10010	576799.194917298448	10725.878493953
0	10019	577094.971634291682	6977.5729722423
0	10066	579683.522045367256	2402.4381156145
0	10087	580440.599052979136	3565.1664034308
0	10127	583637.303034106953	5272.6589042789
0	10135	583812.367594803737	9179.5515232174
0	10149	584127.532570442088	5612.8885647576
0	10162	584348.705445876237	4116.8369103899
0	10197	586261.565060805803	2279.9875090196
0	10226	587689.187438481322	3434.9148918048
0	10258	588404.910669856584	5947.8666942504
0	10272	589613.219388625997	8049.3553438545
0	10307	591234.289952036182	7432.0956558074
0	10312	591385.246686468566	5605.3195117812
0	10327	592091.883937244259	5247.149462173
0	10357	593191.319023192492	5306.2052100984
0	10367	593296.290196472937	14938.404661782
0	10372	593758.374044224628	13571.17941312
0	10380	593982.152605138739	8010.1960850027
0	10386	594029.931471516693	5675.3855859359
0	10394	594129.13287199564	9412.8648239422
0	10407	594373.761358958918	8236.9164885883
0	10415	594780.889926195745	4440.2828429982
0	10420	594914.320371768254	2311.1893863304
0	10426	595234.259905826373	2464.6334316892
0	10455	597073.58890956191	7933.2716483771
0	10460	597314.312803496827	1679.0687736066
0	10468	597478.336932813386	5484.5556586802
0	10484	597912.524887685076	3868.9509043835
0	10513	601269.63033595812	4754.940261894
0	10528	602009.885057265054	10271.868123642
0	10540	602522.449092069385	5038.9264603132
0	10566	604014.998202188016	5536.2784139462
0	10571	604021.274352969555	3163.8233292114
0	10587	604352.264981529777	2011.7943742692
0	10625	607264.198330934853	4106.9733485886
0	10638	609114.249784193193	4971.2802664533
0	10643	609605.192315469021	3982.6540342673
0	10652	610026.384050013364	4261.1337378696
0	10692	613735.030837292229	975.75822494804
0	10701	614453.141346771273	3567.0985042701
0	10735	616394.135942819332	3119.013209026
0	10763	617839.641630618876	17627.1487408
0	10774	617998.798895630728	3427.8622770631
0	10802	618406.110769970106	1121.3281401817
0	10815	618937.87198404996	9183.1694181723
0	10827	619603.21543763037	3049.8343323095
0	10838	620370.700394765307	2473.2589783613
0	10846	620472.527094193511	4835.9810861441
0	10851	620710.59316610008	2767.3731665926
0	10891	622361.08234591978	16546.255869188
0	10913	623098.452391326628	1299.7286733878
0	10930	624354.221599632951	6059.7750452452
0	10957	626098.999616075518	4030.3365920832
0	10998	627494.981673453444	8446.9098486934
0	11003	627910.470922278327	13198.450444792
0	11012	628427.56276721421	7645.2465090248
0	11017	628491.859792551587	7202.4361212781
0	11022	628826.977322338953	7973.0035124062
0	11028	629029.435127275881	3314.6639897975
0	11057	631247.916083363691	8219.3138613419
0	11066	632030.467010734384	6939.8363848641
0	11071	632200.209581944949	1660.9376923226
0	11088	633377.498705958026	8343.52001974
0	11096	633759.492348115798	7097.6642235967
0	11105	634437.229356620528	10248.760858236
0	11122	635386.270660917647	4687.3210283318
0	11147	636562.423262613227	1087.000548561
0	11156	637245.236610465276	2761.4353269527
0	11184	641892.741478110478	9214.8518668179
0	11197	643040.220574060647	2566.0246843837
0	11202	643321.208171585987	7432.4341447837
0	11249	647941.749618536336	1272.9638282769
0	11255	648079.268273740283	1210.9356243102
0	11263	648570.658477833792	8067.9330952821
0	11273	650060.17652118526	3882.8152490264
0	11396	660322.06690749572	7096.5384304647
0	11401	660376.96492912442	5493.5385830052
0	11409	660712.119449520381	5387.9609747782
0	11414	660923.980840554771	8870.5647267434
0	11429	661443.123053272355	6659.8006591828
0	11446	662043.930259316088	3194.0549952882
0	11454	662281.85349186898	6492.8480960024
0	11459	662699.34294394453	10281.164277432
0	11464	662782.871624069404	15810.861625699
0	11473	663426.142602977653	6032.9510215292
0	11481	663868.759923226088	6527.9652772402
0	11487	664263.007651664289	6800.149379216
0	11518	665567.732598825755	5948.2397614531
0	11528	665811.471217756344	1097.4770000802
0	11541	667207.227743078201	2352.114826067
0	11575	669539.026463242429	8229.1065723263
0	11600	670513.201847251032	1280.304326367
0	11605	670745.553002695075	4310.0264280943
0	11626	672754.63841296867	4252.9567944499
0	11651	673740.57447545629	3669.2692897853
0	11659	674000.821182817703	8513.7603066849
0	11665	674298.338365646344	2933.3862064685
0	11683	676350.546705448835	7959.0155894237
0	11720	678560.573635937108	5725.2798919204
0	11735	679375.238040078373	2339.5549034015
0	11752	680284.477367676518	2482.7360907572
0	11763	681028.683351297223	6421.4132406245
0	11768	681110.586071433036	3019.9469242264
0	11790	681768.559847735473	2595.9308987235
0	11801	682392.83717468825	9737.844455549
0	11817	682924.045020895888	2898.5316944239
0	11845	683548.871020550926	1948.1009776427
0	11850	683568.241494177608	2385.9475199197
0	11858	683835.333932670929	1328.4899743494
0	11868	685779.593156298832	2706.3601515527
0	11896	689506.391514642586	3716.4331186706
0	11925	691056.298085185772	7848.6151722933
0	11930	691362.673327863776	1552.3569634081
0	11940	693286.84751402981	6881.0690011273
0	11957	694549.217841301717	4604.0789288219
0	12000	697015.957535123616	3511.0853665974
0	12016	697589.777890595904	1874.5703729623
0	12025	698021.046878998748	1599.3063166382
0	12042	699494.052138524143	3984.0936381066
0	12050	699977.596207640784	5393.9997743074
0	12083	702446.721534007004	5327.723627953
0	12102	703438.216957206425	5076.5375704515
0	12111	704180.635609378394	3586.49498675
0	12120	705114.817484365953	2868.0982304258
0	12153	706388.02939509737	4781.1292413853
0	12170	707337.614431458486	1863.017250815
0	12182	708626.294955089869	3409.3858441124
0	12196	709561.141007639763	6964.6624672599
0	12213	710206.097855752133	2052.1524423426
0	12222	711640.778565380383	6341.4146445496
0	12257	714671.852067684582	5008.8213620331
0	12266	715438.616570321405	8760.6430872903
0	12276	717868.786612237641	5662.256085245
0	12334	723671.615890377134	4899.7735928248
0	12345	724378.991664946712	12225.688777042
0	12350	724398.874398090881	11940.039576338
0	12355	724843.401340876138	5897.8003775284
0	12364	725857.523449454331	6571.4023550392
0	12383	728162.696146071904	6971.8370323436
0	12397	728602.27815502331	5431.3339524976
0	12423	730960.345049840017	2636.0158073027
0	12442	731862.581247550813	3425.21412226
0	12452	733173.123773649046	6094.5501710801
0	12462	735514.932208323691	5446.3858297577
0	12520	739603.909426733863	3101.6731031708
0	12525	739610.802877212131	9313.6596711526
0	12530	739922.183984844726	3005.8499985349
0	12542	740214.062782323956	3282.827256095
0	12556	741260.957406911506	4561.3107829874
0	12566	743973.717358674382	5781.3391442926
0	12594	747114.413421597102	6939.305520045
0	12637	750072.553648051176	5355.0174279878
0	12654	751058.176252612035	2749.6169275276
0	12665	751280.055123912952	2740.3259576771
0	12679	752063.012289804063	3040.2083457008
0	12714	753037.657018064823	2718.3274171545
0	12752	755306.632892295887	9019.9173317851
0	12763	755664.310326016276	6013.8196220131
0	12782	756178.670845546738	5026.3010952415
0	12803	757711.750445052906	5185.2640682297
0	12860	760508.29881706747	5187.2642748519
0	12865	760522.594364630575	8436.9456750632
0	12871	761195.489742132253	5544.402976644
0	12876	761202.953805197368	8419.1239401889
0	12884	761367.888623150095	4703.5481066097
0	12889	761369.479540209786	8313.9200124311
0	12894	761493.941846608873	3559.0050905189
0	12899	761539.507688533205	4104.8041314629
0	12907	761716.635106056699	8733.7261090468
0	12921	762326.428730606616	9602.6755964793
0	12931	764478.132073187791	5915.7089318563
0	12941	766486.392854203525	9994.9092541698
0	12980	770468.861297431981	897.03001833244
0	12985	770880.06094206364	1285.2418030116
0	12994	771352.54522317973	9726.7441741814
0	13025	778189.258090099914	1893.5363832226
0	13051	780549.173458368632	2960.0843289081
0	13077	782281.441382673038	2833.206447187
0	13085	782700.014286499201	2474.4396195136
0	13094	783523.926933098431	13720.71432729
0	13114	787280.479709089129	6377.5454074171
0	13137	788714.039403037559	3449.6806223645
0	13148	789157.433134258738	7892.3574022276
0	13189	792462.414924749694	3809.2381530205
0	13225	793091.641657228333	3339.8404494881
0	13243	793823.109452348526	3722.9364836503
0	13255	794109.134090569154	4343.281443911
0	13265	794284.217001142901	1445.3868866696
0	13283	795838.509912308054	7653.7305630317
0	13294	796063.609820682598	4709.8089298532
0	13299	796209.441720224099	3653.1473522165
0	13319	797816.690903148496	3863.0972257717
0	13324	797874.557217174284	4946.989109027
0	13350	799103.247475809791	7328.2986488424
0	13373	800763.944015927251	2865.5274916392
0	13398	801501.628938346638	5913.3315416967
0	13404	802685.935606600832	5839.1036646889
0	13416	803205.607712783354	2891.07079802
0	13464	806499.094799722425	7189.3344479313
0	13488	807420.491620083823	4709.12974187
0	13531	808564.464161513671	5552.1319596598
0	13536	808717.80913996638	10320.532234735
0	13541	808898.542498526158	4821.3923927248
0	13546	809009.603011360608	3202.1260598505
0	13555	809082.574400861773	4864.4055771498
0	13560	809212.475023553249	2494.9271014247
0	13577	810544.488041633321	3501.8377767026
0	13609	812960.037046385067	6175.4533448958
0	13615	813018.894511924304	12196.979445131
0	13620	813066.956548308053	5157.7505909994
0	13631	813529.801389194783	4048.3932818141
0	13663	815140.937887134991	3280.6273440032
0	13693	816434.396786456986	3188.6004573641
0	13703	816480.82712786124	1421.7445688284
0	13721	818196.125594939897	2744.0172458623
0	13739	819101.001590970856	12518.331693995
0	13752	819273.711846765672	3060.5212078605
0	13762	819603.545551816829	4492.3316975414
0	13779	820466.420329290692	6905.6165698312
0	13791	821388.241337909373	9429.5912018701
0	13829	823486.97965325286	2201.0145141389
0	13900	825932.003449080978	7404.8045307438
0	13909	826087.920044862639	3826.0112560558
0	13917	826416.670398837042	4756.4299801395
0	13926	828005.018651895872	11405.374170028
0	13935	828250.886960503016	8467.4867095129
0	13940	828255.876564940356	4823.2175594008
0	13945	828265.645280042655	5008.8489535439
0	13962	828919.332539886876	4557.8588658712
0	13979	830399.580847066127	8381.6103660557
0	13987	830687.586896543415	11461.658468317
0	14008	832912.375294913314	7940.8578609812
0	14019	833083.131127714755	10681.989600357
0	14024	833189.508836057686	7364.9063806939
0	14032	833267.764187627732	4800.9942533477
0	14049	834663.080610626273	4198.6175751189
0	14066	835805.126371439136	7525.0063214492
0	14090	837573.05152911407	2793.6238993115
0	14104	838210.075724287944	4852.6270239349
0	14115	838422.562238253325	2330.6807060661
0	14125	838958.052600903937	6083.1646454246
0	14160	841219.430130446939	755.63760433819
0	14208	843355.750616364073	4994.5319138052
0	14213	843391.839498498992	6299.3970919191
0	14218	843454.717662906913	2983.9684291145
0	14226	843729.58545329663	1205.9672073917
0	14258	845778.556734163978	4992.4054016237
0	14303	847409.091915908422	4950.8464221559
0	14311	847869.780896629647	3099.4973458801
0	14316	847871.249933327495	3007.4037229625
0	14331	848591.743673963936	5668.7677459598
0	14341	848863.614303634077	6841.8035653553
0	14347	849266.621338433257	2829.7051759068
0	14355	849632.333956049298	3881.7986089521
0	14389	851392.551701862717	5644.616171094
0	14394	851582.791437273387	2101.4096671376
0	14402	851753.821909665425	2067.8855929549
0	14411	852255.02303629622	3966.0250171846
0	14429	854092.641743930256	7490.7896866625
0	14447	855811.837711788803	5982.4320665479
0	14478	857836.044504819012	3970.671766915
0	14497	858183.994146131365	2658.7704452682
0	14520	859862.354915742747	2049.9933975312
0	14572	861423.270766280362	5645.4396110356
0	14580	861684.25233436264	1400.7730911135
0	14592	862047.732703597397	2519.7390856061
0	14597	862298.248119585725	4451.5241232109
0	14614	863711.149216370174	3506.1993362208
0	14625	863879.815383238231	8113.5726395184
0	14630	863967.628305261995	5728.6141996425
0	14639	864048.605982969792	4666.243821441
0	14650	864978.966545056537	4287.1946444296
0	14664	865737.268857942114	3191.889947269
0	14715	870536.761005543367	5619.7734371531
0	14725	870875.401898652873	3353.5641718659
0	14758	871907.659252740749	2795.1145520834
0	14790	873396.441098286817	2069.0923787573
0	14798	873425.941959644412	3100.2657612127
0	14823	874496.640656844408	14002.641227947
0	14831	874630.686572055601	7847.7502868132
0	14842	874829.548110685891	2492.4985816411
0	14858	876217.279861710434	6223.1938783976
0	14883	877801.863241306203	6911.4744862634
0	14894	878180.129898647277	6254.4964550991
0	14906	879084.007824320243	7778.9926915288
0	14952	880738.792648903908	7335.6565118206
0	14957	880808.681330953567	6896.9971809771
0	14969	881246.251505547287	3701.2638331898
0	14987	881451.0816370508	2581.9507366981
0	14992	881857.637694385622	6411.3929954673
0	15015	882594.483948631621	3911.9087401786
0	15037	883025.332672718903	2920.2151612519
0	15057	884461.174668313589	3208.5614418847
0	15080	885208.502097084178	5552.7336496263
0	15091	885787.256533081525	4702.654638305
0	15097	886037.390947328499	6413.8689388648
0	15102	886228.439943155663	9495.0395923092
0	15113	886885.722793651118	4590.2972443279
0	15141	888485.079584751865	5490.4631254669
0	15146	888634.267927521634	6283.9662096835
0	15158	889167.014074467335	5106.8938092202
0	15167	890206.418486919611	3388.8025007728
0	15197	891565.571734591863	9551.5787373075
0	15202	891748.074197286381	4432.1933754898
0	15211	892226.482563445895	1993.1609526732
0	15240	894403.284636011978	7592.058766364
0	15245	894520.440233690943	3664.254293939
0	15254	895067.889748821259	5125.5438389162
0	15319	897694.437323678587	4547.2745645314
0	15329	897909.907901268767	2761.3957022852
0	15335	898228.003290156218	2625.4556952362
0	15340	898486.6242528221	5447.8365596592
0	15345	898567.467855713221	3294.9917969679
0	15354	899568.528608868058	2727.6325166222
0	15380	901356.338385006005	3753.3659594497
0	15388	901740.738817826466	1688.2364247777
0	15422	903754.172559454502	6842.6584926963
0	15434	904714.966961106466	2874.8125883541
0	15439	904835.238093228602	4466.7207137835
0	15453	907202.933498614684	4063.0080971209
0	15538	909665.507538281753	2499.1232314744
0	15553	910137.092565503189	2599.1220745057
0	15573	910802.989070753899	3122.5449472136
0	15585	911115.522913761295	2197.5398142322
0	15593	911510.21349144505	3185.3653424842
0	15608	912457.815523213686	4266.9955391986
0	15613	912464.148608351211	2650.4022417708
0	15622	913078.907449514318	5415.1980230901
0	15635	913454.386841376986	5414.1910945243
0	15640	913680.389543010126	6182.9469366802
0	15652	914175.161145637708	10796.567816976
0	15711	916817.750749190272	6982.1101599145
0	15725	917209.550205205503	7146.162369044
0	15733	917463.964547676681	1967.3828685758
0	15759	919117.387873069101	6431.3683740059
0	15764	919317.417096636975	3912.8933671764
0	15776	920474.412247276914	3965.1563511604
0	15787	921648.804962696313	7075.5618378985
0	15792	921697.043045493195	4241.8596476786
0	15801	922320.99760996908	4742.968228952
0	15810	923351.597542976758	9299.4579059822
0	15828	925133.102729761352	4851.9078917402
0	15852	925892.917068013564	1819.6537599317
0	15876	927862.122550347625	12120.279753203
0	15907	928659.045626941625	3332.361081499
0	15943	930366.496836972363	4792.0637288586
0	15951	930942.854501237046	2645.9956192188
0	15960	931778.886668157701	4943.2956256552
0	15965	931970.523169853239	4106.5257478118
0	15971	932022.765938119786	3992.2150856645
0	15979	932708.950535503113	4971.889506011
0	15989	935016.195298712401	6479.9862264397
0	16036	938064.725515465111	9245.4626777809
0	16053	939574.141780211192	3936.3576730569
0	16086	940809.749805057989	3209.9780571812
0	16092	941129.670849157743	1670.0658416245
0	16106	941795.883857143251	1961.8504165165
0	16153	943827.784590035863	3821.1617894214
0	16158	943914.584295864464	2365.6807440357
0	16183	944609.983925687274	7323.3538680468
0	16195	945939.168918478979	4220.3378096299
0	16203	945983.292936292726	3746.4239720275
0	16212	946124.30316807399	3182.048683006
0	16217	946596.017110372956	4232.7653600346
0	16260	949105.165907019233	11099.971718446
0	16268	949946.93735201959	3191.3989160581
1	1368	72188.459314594394	1252.1897368949
1	1373	72246.292768520173	943.79845480572
1	1378	72721.689385862824	1361.9922795391
1	1384	73106.756847374478	1727.2948190108
1	1397	73975.399822050201	255.96764506206
1	1409	74964.568998245598	894.20953849297
1	1415	75009.629976302888	515.74071316939
1	1435	75887.516590230865	674.99455708926
1	1475	76931.527929710322	208.0890098345
1	1506	78191.563776680167	0
1	1514	78783.128586456373	341.44683193084
1	1523	79212.577773040536	0
1	1540	80073.415413539065	0
1	1556	80863.791390620104	0
1	1597	81899.178274297396	0
1	1614	82483.965506116907	0
1	1622	82635.211916128055	0
1	1648	83505.426606069405	479.0257568728
1	1664	83904.220497485753	235.33720649265
1	1676	84068.926688980957	182.01748536532
1	1687	84498.785766068664	526.16261400627
1	1692	84524.293563279689	74.468603146833
1	1720	85779.696901879494	915.5352293922
1	1733	87180.260399739589	2200.6467499808
1	1741	87377.805769607441	1661.3662945096
1	1756	88620.523715069409	1289.0511825212
1	1762	89124.661250628046	1359.2495094064
1	1767	89209.184430552195	1169.2586412049
1	1797	90770.648128638855	104.34910002339
1	1840	91913.283147164269	679.22038962714
1	1845	91927.505780898826	456.13255035173
1	1854	92592.494176365916	1057.059275958
1	1859	92725.213803269261	1045.1004576803
1	1892	94086.37569028784	1198.4304209259
1	1900	94288.915326806859	802.40208072812
1	1911	94993.446299398645	1438.8028336604
1	1923	95354.885039442956	294.62464514083
1	1951	96620.850722821607	1.262087817215
1	1988	97482.242995219639	35.443440023234
1	2025	98661.251171978539	313.22262253302
1	2047	99595.066678115173	234.65148553854
1	2056	100302.59327295462	144.64914348637
1	2082	102405.359537900357	0
1	2091	103402.369181953975	0
1	2099	103711.753194743123	0
1	2116	104438.212558222058	0
1	2125	105200.42635579803	426.15102353476
1	2133	105589.098996957321	0
1	2167	106575.694589381718	607.43470626904
1	2181	106950.669107189458	810.52839180384
1	2187	107292.816550811211	663.05417905109
1	2192	107417.998235042451	721.87733273399
1	2230	108976.626936596695	181.29829270736
1	2244	109274.375712464057	40.895337983352
1	2291	111548.915824921122	0
1	2300	112437.444873366397	0
1	2309	113597.103553894193	0
1	2336	116031.532643574923	0
1	2362	118965.95554031012	0
1	2381	121235.442814154514	0
1	2390	122363.249085477344	0
1	2399	123485.996875332823	0
1	2408	124082.318512545819	0
1	2417	125750.80537329864	0
1	2435	127095.048096910054	0
1	2468	128995.940690789541	0
1	2477	129684.921820261221	0
1	2495	131042.771019505292	816.3249986287
1	2509	131274.90102831829	231.95571182482
1	2520	131506.670966262069	317.67992171307
1	2528	131747.826533116856	507.93845414991
1	2537	132453.362894984647	1036.6463752961
1	2559	133242.287106704432	44.376954418891
1	2574	134450.966175611142	898.4086481404
1	2579	134476.690633496019	688.26243379931
1	2588	135075.719209222158	155.54135401711
1	2621	136743.040959665905	27.033045310743
1	2683	140343.136100925705	22.275017434952
1	2691	140702.061254401747	321.46526939052
1	2700	141266.094219717029	431.61782138363
1	2709	142030.202869460992	294.51289484969
1	2730	142994.473359569403	0
1	2739	143605.717013846612	0
1	2791	147607.736616183797	0
1	2800	148169.741313613509	0
1	2808	148807.056427086945	0
1	2817	149079.984950786492	158.59179983819
1	2833	149797.098512060829	0
1	2850	150627.25816749789	0
1	2865	151104.482650967647	164.53052534224
1	2873	151536.016491911128	53.127228101447
1	2910	154467.671223084696	0
1	2935	155966.751503365636	0
1	2944	156600.513864875225	439.52221986358
1	2964	157525.336130423498	51.462343513967
1	2986	158745.602203802331	0
1	2995	159494.115031683815	0
1	3004	160603.115873359412	0
1	3023	163175.679656226334	0
1	3039	163973.428562830031	374.64063639204
1	3074	166747.517995691745	0
1	3084	168041.188720267162	0
1	3093	169573.01860303903	0
1	3110	170145.734449795185	75.098228852923
1	3118	170364.535595632645	213.74332309352
1	3127	171103.640513897998	0
1	3135	171418.357153011799	0
1	3186	174429.573320964822	0
1	3194	174900.787758609874	0
1	3203	175183.874248017079	65.850708826183
1	3220	176600.047187788661	358.09600560971
1	3269	179733.262412137149	188.60817329694
1	3275	180345.280602110137	650.20560410841
1	3305	181626.486998777577	0
1	3313	181849.782374987834	77.898397504901
1	3330	182643.840324385835	0
1	3340	184594.702255670624	0
1	3348	184716.992475335078	24.258061955832
1	3357	185214.616950157997	0
1	3366	186066.4232821747	0
1	3409	189551.19730399022	0
1	3418	190067.218788462334	0
1	3426	190286.750358195277	0
1	3468	192778.71255843534	0
1	3483	193836.617641633253	846.74627695473
1	3489	194463.305933379103	1263.3374458696
1	3494	194587.562699993796	804.21658238977
1	3502	194764.98647830301	22.73733519914
1	3510	194962.650763957829	170.95001197261
1	3519	195157.684775015158	0
1	3561	197492.083107844711	130.35571111783
1	3586	198191.902336561295	0
1	3611	199812.888871983095	84.027071617036
1	3620	200827.920516529409	884.37667186289
1	3629	201107.614279932839	161.95306540441
1	3672	204862.52871471653	450.79780640499
1	3697	207525.934459466113	1628.4265436672
1	3706	208771.68988094885	2502.6509977391
1	3715	209082.067330097305	2492.4979362196
1	3720	209163.043709636729	1113.5447762975
1	3725	209492.599424266554	474.25289800166
1	3750	210496.234131609618	0
1	3771	211326.752466424118	646.3077514545
1	3783	212286.413960324525	1553.0681838513
1	3791	212533.366542739915	1772.5135244967
1	3800	213112.147923423613	2229.8334160767
1	3808	213136.245247689691	1969.730204965
1	3870	215629.44257806977	174.56643271865
1	3902	218197.297519976089	0
1	3920	220879.803015591113	0
1	3929	221538.700844719167	0
1	3937	221973.091121786536	0
1	3954	222359.045968778141	40.844801917319
1	3963	223344.495289871823	0
1	3972	224470.233528512519	91.498571487331
1	3980	224692.52996515617	135.76721863705
1	4014	226543.016222099401	0
1	4031	227957.190418889481	0
1	4040	228110.372391978839	0
1	4056	228859.286237727273	0
1	4065	229304.466288570402	0
1	4073	229750.148969664679	0
1	4081	229800.29691221717	35.213432050529
1	4130	232153.779026303376	91.657010789324
1	4148	232757.534222994857	0
1	4157	233136.793322490058	84.014698717562
1	4172	234616.434332767017	493.84104664179
1	4218	238593.027101204957	0
1	4227	239091.380705915083	0
1	4238	239876.703544676025	535.83667449602
1	4243	239898.8125188128	519.47549007763
1	4252	240238.827898554482	0
1	4285	241480.684696608391	419.07007115285
1	4302	242441.441525449864	410.57467390419
1	4327	243779.549779356105	0
1	4346	246077.585881351064	0
1	4374	247385.248581932974	486.4914511834
1	4385	247864.124293572975	249.13124612416
1	4394	248279.416391784711	443.75298488243
1	4402	248627.756399456991	702.26218578444
1	4413	248771.205155715186	436.23060612133
1	4421	248868.170250940332	108.2459157047
1	4430	249081.404475285938	291.6465171036
1	4479	251415.860408826798	0
1	4496	252225.836086409726	0
1	4521	253716.505855579678	5.004647111228
1	4547	255589.159996903329	0
1	4556	256699.234386376396	0
1	4565	257078.413208858015	0
1	4582	258767.116777282075	0
1	4591	259067.676994217617	0
1	4608	259794.091654239736	304.76123705161
1	4617	260195.460916260531	502.95753546029
1	4622	260297.942006712211	572.00839109706
1	4686	266280.175766847067	411.14128046655
1	4695	267428.487931990158	0
1	4704	268075.914218048721	282.12591485226
1	4712	268353.487075638916	21.802627685812
1	4728	268603.030586479335	0
1	4745	269173.337502865301	0
1	4753	269580.568532929675	0
1	4779	271819.292193581737	0
1	4814	274100.501221966689	117.35066810871
1	4831	275041.682629885618	0
1	4839	275452.326315723158	0
1	4847	275618.04447092213	0
1	4864	276544.886992640027	0
1	4881	277032.0681702834	0
1	4899	278629.877310869877	1417.9414134709
1	4904	278638.104935664501	873.08413442626
1	4909	278665.038200638447	171.42029089712
1	4948	280429.219713165738	0
1	4976	281331.881137256642	186.70691457994
1	4987	281688.599944120762	352.20148817918
1	4999	282662.966480660477	1233.5047814467
1	5026	283995.80046221345	633.07346639287
1	5052	285077.78926015254	313.61553608384
1	5074	286674.610984050234	0
1	5083	287873.880903053373	0
1	5101	289372.354562800169	0
1	5116	290568.290714111868	806.7865271359
1	5124	290872.692590798309	947.98824661039
1	5133	291238.205849536896	922.4948695756
1	5138	291378.760285200284	659.27841806427
1	5169	292259.507359396626	392.53269464588
1	5184	293258.145930057471	1288.9595122794
1	5189	293370.680284104659	816.34077781227
1	5194	293383.693931669214	147.77495759768
1	5227	295116.825326013383	0
1	5261	297585.808396516132	0
1	5281	298546.835755421866	247.37657356943
1	5294	298822.85190866055	0
1	5303	299108.879663650552	136.98048271151
1	5314	299623.101648159335	122.78350467742
1	5345	301137.167508571464	0
1	5353	301653.796172031185	0
1	5362	302060.35061868944	51.62060605745
1	5379	303107.435928450272	93.047945805646
1	5396	304384.755487037269	0
1	5404	304677.661799561994	0
1	5424	305756.732793984801	88.072788392617
1	5442	307179.981779271329	569.87838464723
1	5456	308816.256840888132	0
1	5473	309270.195087827425	0
1	5510	311399.4543285661	462.70058804525
1	5532	312238.007025004474	0
1	5549	313246.751224160819	0
1	5557	313645.227689030935	28.735038001017
1	5565	313997.988924546861	0
1	5584	315407.713085987679	1341.1604136427
1	5611	316965.539174413054	1586.447102098
1	5620	317505.163275271871	1997.1585579716
1	5625	317868.576497287595	2111.5433491356
1	5631	318051.418727026307	1510.9914074069
1	5639	318246.426408417586	1326.7268939099
1	5644	318246.533397481058	1009.0514551852
1	5649	318362.09276007828	228.10904251142
1	5665	318681.02098182497	260.66988026628
1	5687	319599.684331664217	258.98552962077
1	5737	321379.470283300556	953.21505179132
1	5745	321468.992758708048	204.60293396251
1	5753	321871.539729548626	432.02451756732
1	5770	322483.146476903529	51.690159017245
1	5819	324773.391436307259	113.84245687417
1	5841	325852.386947473766	0
1	5850	326033.764757369895	0
1	5891	327784.511762931722	0
1	5903	328258.860297734839	368.65230539568
1	5926	330115.907129644921	0
1	5954	334911.897653356473	0
1	5964	336349.454958274517	0
1	5972	336710.177064058329	0
1	6011	340021.446309181109	92.86355467444
1	6016	340238.423161364489	283.30211781576
1	6024	340433.949649383719	113.16844761175
1	6050	342441.766731537712	154.65661612093
1	6058	342957.944154628093	0
1	6067	343106.632822332836	0
1	6099	344447.252331836509	665.80700571433
1	6107	345000.931657431441	1213.1992711191
1	6116	345835.52751951219	1868.6665495802
1	6121	345877.922836799478	1887.8057035775
1	6127	346301.645073284569	1794.9503922833
1	6138	346924.325331283233	1192.5739310864
1	6147	347092.84429657073	746.67704190207
1	6155	347319.839320700034	594.70992991698
1	6178	348109.256578696424	486.34013946531
1	6183	348326.530762901735	367.56234411862
1	6228	350693.5490030664	1457.357823517
1	6247	352071.600285601101	576.48062026737
1	6252	352147.953298808101	328.21024144469
1	6257	352156.658834258535	311.66839490125
1	6298	354808.063728036117	132.09367221049
1	6311	354884.737257680806	17.508205228317
1	6334	355932.085191448298	305.27160681967
1	6385	357479.279900040771	0
1	6403	359254.187728919213	0
1	6412	360614.541957037262	0
1	6429	361470.433198919812	0
1	6447	362432.913337071058	439.39348839185
1	6452	362449.455207481976	397.31041792938
1	6471	363359.980252267487	14.553668329249
1	6515	367385.547521753741	0
1	6524	368038.122072272058	0
1	6538	368404.139146379841	263.90131704242
1	6543	368488.145326021309	90.693700046135
1	6556	368740.263089349408	0
1	6573	369655.485038375319	0
1	6581	369851.573703082168	0
1	6609	370511.460241245404	13.298118657323
1	6622	370761.41282506708	0
1	6631	371552.548903205823	0
1	6648	372484.780288224735	0
1	6665	373038.42551315062	0
1	6673	373456.425756886602	164.88775269182
1	6681	373789.321218389741	0
1	6695	373976.229830401261	105.22734615268
1	6718	374760.816508987326	202.50127964214
1	6727	375296.196290190369	682.70941455902
1	6746	375699.160348766928	239.47194484851
1	6758	376544.325287979719	409.27418427779
1	6788	377698.772210027763	438.08496261
1	6800	378224.785415913844	14.871978062829
1	6814	378773.043308855187	461.39573111279
1	6819	378861.323756361081	126.46311706586
1	6860	380180.364229301606	21.82719154964
1	6868	380720.334164596219	259.24821071106
1	6890	381769.038070793085	236.6766098581
1	6923	383355.776042388872	456.84432423861
1	6963	385631.772040658258	445.789744634
1	6969	386189.690122916521	614.3971878477
1	6985	386820.522636932002	296.70749504739
1	6990	386920.30050907319	184.86509113609
1	7002	387450.693523904794	256.24250712597
1	7010	387640.985661904964	264.18914274101
1	7026	387967.270811578774	40.422939380503
1	7057	389837.959068710286	0
1	7066	390060.014865284181	0
1	7119	395473.511350936457	0
1	7127	395591.898465587624	0
1	7155	399233.897726828634	0
1	7163	399917.454245390212	0
1	7172	400302.318585113245	0
1	7198	402077.926457631567	269.67787217074
1	7215	403644.163810704807	0
1	7232	404284.93505816267	71.640785790857
1	7257	405822.10735267018	0
1	7276	407751.920704943022	1786.1690168233
1	7281	407771.613266888852	1558.5315144945
1	7289	407884.643049970972	1538.5538497175
1	7298	408197.348332603234	1000.8313038406
1	7303	408230.503036139188	186.92518766416
1	7318	409028.07252379188	440.87809157764
1	7367	412246.579727914106	1655.1086509253
1	7372	412268.886309016581	1619.4383059231
1	7377	412481.726119469515	1166.8742721607
1	7382	412558.407780286492	521.45473410092
1	7413	414180.237822470697	312.17157602603
1	7432	414726.877818644423	27.173148031822
1	7437	414808.028521478407	92.374945481351
1	7477	417163.101099295769	648.94147662487
1	7485	417340.686289882858	145.23495586471
1	7493	417868.676341454848	0
1	7505	418146.193514284895	166.45800943632
1	7513	418410.23470804587	231.53267692181
1	7538	419959.997771277856	612.39046096119
1	7558	420461.148109436785	389.36415618429
1	7566	420593.228527379539	436.56769139136
1	7571	421006.569338865795	659.1833487538
1	7594	422221.778908901352	0
1	7602	422394.144121212662	0
1	7619	423200.67479624307	0
1	7669	425478.449483413792	0
1	7694	426670.054795070382	0
1	7720	428917.872146861408	0
1	7729	429567.431032538659	522.14086258586
1	7737	429786.723630841312	0
1	7766	431060.532210200825	37.096563192808
1	7777	431815.153604708587	515.14897156085
1	7785	431906.740246340903	8.611524723985
1	7832	436043.011309592586	0
1	7848	436599.695740881131	0
1	7866	438180.178373130981	0
1	7874	438824.297944589115	0
1	7884	440385.534653254831	0
1	7902	442725.472541177112	0
1	7922	443771.727725609565	254.28668783298
1	7934	444546.429971205346	877.37454337842
1	7939	444978.372037964004	813.10890222135
1	7987	447470.138988587007	0
1	7996	448416.803798090143	0
1	8005	449287.187563937695	0
1	8024	452083.607850563101	0
1	8050	454542.95787124214	0
1	8067	455884.618283386655	86.83902197965
1	8076	456094.29283075234	0
1	8101	457228.082501438692	0
1	8110	458597.455644459043	0
1	8127	459733.548970649473	0
1	8135	459906.097321366038	95.952680234336
1	8152	460897.125234463354	0
1	8169	461327.243629331694	0
1	8205	462951.331134694879	109.84272127122
1	8211	463127.008224382273	256.24467573927
1	8235	463943.049096090812	438.14763469655
1	8244	464453.840259422571	0
1	8262	466156.694218010212	0
1	8287	467392.629160961791	0
1	8298	467991.205673817738	218.01458794319
1	8304	468427.041884413615	585.14761566364
1	8339	471259.230658860036	71.261265962547
1	8359	475125.827140934941	0
1	8367	475609.291452483209	0
1	8375	475835.303767335905	183.04770771955
1	8392	476198.15428343498	0
1	8407	477157.661515629134	410.98882155822
1	8415	477670.82891358204	646.40599208399
1	8423	477925.417916437093	625.83547134153
1	8444	479133.69912454236	826.9343384084
1	8458	479355.445425584323	769.56248266771
1	8469	479529.129553227927	250.50629875741
1	8477	479572.042677976252	258.68770664025
1	8483	480365.782097294291	1050.7076390273
1	8498	481539.92608157565	2145.4346785479
1	8503	481693.797583228547	279.21597698038
1	8531	482503.407811273446	256.36171868981
1	8554	483032.24022245639	180.09872638802
1	8562	483275.830691285135	409.9935640419
1	8567	483412.18566088867	324.56993623698
1	8618	486414.108709079339	87.40261552281
1	8626	486942.341966010171	398.78876940624
1	8668	487758.574101324729	113.47725540653
1	8703	491782.114958305968	0
1	8729	493627.951004925789	0
1	8746	494720.723517748056	0
1	8755	495174.890837555397	0
1	8780	496725.191066033116	0
1	8806	498314.503179142267	0
1	8815	499271.481212283191	0
1	8824	500194.601670889034	0
1	8832	500777.188474693245	0
1	8849	501493.128398172083	0
1	8891	503510.480183734543	0
1	8899	503746.253238610914	0
1	8908	504533.975500079972	0
1	8934	506503.534462809991	0
1	8946	510647.666971920209	0
1	8964	512407.837475297832	0
1	8972	512725.410824629018	4.813038046316
1	8981	513160.907294093376	0
1	8989	513455.619604997826	34.05117506826
1	9013	514000.447072432426	170.32622618798
1	9040	516544.099543583402	0
1	9065	517830.942634460375	0
1	9085	521023.86008672016	0
1	9093	521211.196137181664	0
1	9102	522839.270470402964	0
1	9110	522901.084944348165	53.150628427466
1	9119	523594.107338175181	0
1	9131	524448.419055951117	135.57618116302
1	9170	526903.678271619724	0
1	9179	527021.999294536009	25.909244001621
1	9194	528171.750155918903	713.26746108958
1	9222	530051.197615394865	0
1	9233	530360.404732493867	112.90456498783
1	9241	530766.33848922973	278.67893185042
1	9266	531450.126114688792	11.939560578629
1	9277	531832.188194355146	302.11925631743
1	9313	533334.810318617618	0
1	9327	533817.650852929985	400.8946805785
1	9336	534025.370677129651	597.45199056098
1	9341	534116.468576688521	569.16486355882
1	9346	534340.135633322995	327.73323695733
1	9354	534804.368472395079	0
1	9383	535528.042402275012	281.32668686626
1	9400	536360.915570731936	718.93362349535
1	9415	537361.835044373389	913.96992777167
1	9423	537838.961210856311	830.0942602757
1	9429	538161.844875256538	343.93806664083
1	9487	540962.590379375839	40.722392403239
1	9504	541460.066645313042	308.63863228836
1	9517	543773.096417727332	1427.3679669996
1	9522	543847.283210301045	822.29013002527
1	9545	544690.860835862022	626.28900415316
1	9554	545045.80228258346	542.89628240649
1	9559	545413.269416494965	523.79413205791
1	9572	545486.351383126894	37.436694908062
1	9585	545870.844502911538	80.290369986126
1	9616	547102.45123128707	436.72412846245
1	9624	547470.121928975036	483.73697001405
1	9646	548502.906889901376	57.67520765274
1	9681	549863.909887180461	347.94032972963
1	9690	550249.810670721564	71.807531118085
1	9706	550959.270866392176	0
1	9740	552355.468422620341	0
1	9783	555661.242135570053	0
1	9804	557149.156117145092	1373.471162611
1	9809	557236.026706938116	724.49522907793
1	9822	559443.653272540343	1138.109917578
1	9827	559498.277114010206	967.30249062429
1	9862	562500.017458566666	116.23794324058
1	9896	564119.925709950063	305.46436572187
1	9904	564451.170177447151	0
1	9912	564918.073527763507	0
1	9930	566073.316423345164	0
1	9965	569922.03089262219	0
1	9974	570157.859313552074	40.460651502665
1	9994	574632.816071586339	0
1	10021	577094.971634291682	219.53898474339
1	10029	577281.083929752716	0
1	10038	578357.885534690843	0
1	10049	578787.60484884203	422.96071901395
1	10055	579186.675562472901	672.03155678841
1	10089	580440.599052979136	253.40442187481
1	10094	580769.445260693259	537.57672520695
1	10107	582098.277149548039	534.41310477657
1	10115	582502.426252602181	45.382276995979
1	10137	583812.367594803737	10.173298574986
1	10151	584127.532570442088	145.9550186559
1	10164	584348.705445876237	94.432899199742
1	10172	584716.268048053482	0
1	10199	586261.565060805803	481.63788611847
1	10204	586835.219229504598	863.26270936859
1	10213	587193.985460223878	1057.1405898532
1	10218	587415.002241699959	570.26776662871
1	10231	587885.113813094098	0
1	10260	588404.910669856584	50.364784275838
1	10274	589613.219388625997	472.90212744115
1	10295	590558.903429356672	218.29634615915
1	10329	592091.883937244259	353.86700362101
1	10334	592138.041972832816	144.26069869961
1	10342	592693.997225281331	90.866239843451
1	10359	593191.319023192492	421.69254905531
1	10396	594129.13287199564	85.55888869408
1	10431	595635.244029890187	0
1	10440	596514.690074064076	0
1	10473	597483.522631756138	0
1	10490	598478.719788241832	0
1	10515	601269.63033595812	1057.1374461391
1	10520	601536.431202062608	678.98017830449
1	10542	602522.449092069385	181.97848480884
1	10551	603157.22498234621	0
1	10576	604142.969517739906	0
1	10593	605622.538281201685	0
1	10608	606072.546749927585	307.29643778384
1	10613	606723.503844561484	908.67736782985
1	10654	610026.384050013364	271.68148413574
1	10662	610886.042842501169	0
1	10672	612759.272612344193	0
1	10681	613275.122733793375	0
1	10706	614570.936618567594	0
1	10714	614750.030741922058	38.010264435792
1	10724	616014.2576833201	377.71167527074
1	10740	616553.381105320884	0
1	10749	617284.782629788397	0
1	10776	617998.798895630728	101.35747922669
1	10782	618041.911598584823	98.691599077366
1	10804	618406.110769970106	111.66421558231
1	10829	619603.21543763037	555.14361287028
1	10856	620782.316258189378	0
1	10864	620853.973809932802	0
1	10873	621289.423671273461	0
1	10893	622361.08234591978	562.35862798095
1	10898	622632.299508218731	563.63648422638
1	10915	623098.452391326628	69.850169304828
1	10932	624354.221599632951	165.7531012486
1	10959	626098.999616075518	1065.0209298575
1	10964	626333.956930953141	1243.3263050828
1	10969	626362.78121401547	648.01007653711
1	10986	626802.721129540996	140.89300502194
1	11034	630539.271889622388	0
1	11048	630995.166051704844	296.216419119
1	11076	632677.889611292608	0
1	11110	634483.801283512536	0
1	11127	635475.422714052245	0
1	11135	635888.774026802272	0
1	11164	640474.195889676952	0
1	11172	640653.393772388345	150.66838983663
1	11210	646177.36127215883	0
1	11225	647055.944149043744	387.15835878434
1	11230	647142.332273978205	273.99962454808
1	11235	647200.843884348065	228.83388597783
1	11280	652053.416113811389	0
1	11288	652831.458822112098	413.28015559976
1	11297	653225.528477031027	0
1	11306	654783.322394089559	0
1	11318	655562.830547000403	679.40420088123
1	11341	658328.385092800426	3004.2266180583
1	11346	658823.333198904986	3034.3278030384
1	11354	658971.325650559659	1630.5310045738
1	11363	659085.7610524788	1692.5694710304
1	11368	659115.296554123779	1652.4382816755
1	11382	659648.971792782378	799.09652875453
1	11387	659949.754530066858	330.26169269416
1	11431	661443.123053272355	133.2031623562
1	11492	664713.994217676141	0
1	11503	664877.443170768994	22.330253757758
1	11520	665567.732598825755	80.671722692989
1	11543	667207.227743078201	771.70116847747
1	11552	668391.531116025143	0
1	11560	668567.6612798827	65.979661363962
1	11577	669539.026463242429	306.12894235841
1	11586	670071.305185670973	0
1	11611	671364.952159177812	0
1	11628	672754.63841296867	99.64569382945
1	11636	672835.293744016723	0
1	11670	674607.270110672765	0
1	11689	677035.683136676893	0
1	11697	677801.741276919324	0
1	11706	678090.639147206605	0
1	11737	679375.238040078373	202.60909106637
1	11754	680284.477367676518	258.96404120454
1	11773	681182.293974257878	0
1	11792	681768.559847735473	167.7898048273
1	11806	682506.843958321504	0
1	11823	683073.233004746166	0
1	11831	683207.682912892423	0
1	11873	685789.958395972025	0
1	11882	686405.778512902527	0
1	11901	689810.316364455688	0
1	11909	689945.13891247983	0
1	11945	693504.872168526194	0
1	11962	694583.596433333359	0
1	11971	695509.958500417574	0
1	11979	695715.207517633619	0
1	11988	696672.060290464311	250.31972810381
1	12005	697118.997906054025	0
1	12030	698361.679386754931	0
1	12056	700594.140622628398	0
1	12068	701787.589367178755	180.68921346664
1	12085	702446.721534007004	200.00228006681
1	12093	702681.27181041998	84.793270040093
1	12125	705216.909110977486	0
1	12136	705649.141486740798	349.77756590998
1	12141	705728.300111345415	253.70293070194
1	12158	706677.973483031085	0
1	12184	708626.294955089869	472.34954168032
1	12201	709663.030705651467	0
1	12228	712153.30288790456	0
1	12240	713693.839572633549	1487.3090456409
1	12245	713892.316341215258	1433.4815194628
1	12282	718771.842297552322	0
1	12290	719005.751121899544	60.150158551784
1	12299	719620.022840256102	333.90174584095
1	12309	721190.859113728257	0
1	12336	723671.615890377134	500.67168785143
1	12371	727078.573602568982	0
1	12399	728602.27815502331	277.94891248596
1	12404	728961.972193886764	524.60506859595
1	12425	730960.345049840017	891.79867127406
1	12431	731461.301590152509	1164.158384093
1	12468	736502.236323563015	0
1	12483	737352.061338760592	652.41471483652
1	12488	737678.779834722362	762.44584841256
1	12493	737921.804517451243	990.56899122226
1	12502	738192.378214381776	0
1	12544	740214.062782323956	38.954880771826
1	12572	744717.536220063424	0
1	12582	746286.715560510778	0
1	12600	748308.559325084396	0
1	12615	749185.791939420771	646.06277318496
1	12620	749608.905162413692	586.1012183104
1	12628	749723.868414333761	73.377710330537
1	12642	750319.329600910275	0
1	12667	751280.055123912952	127.68537360773
1	12684	752085.648689567385	0
1	12716	753037.657018064823	511.17064124163
1	12724	753136.804739973944	413.05160584667
1	12729	753610.490093822687	826.66022881421
1	12737	753995.047732452588	1012.1387354427
1	12743	754208.956194734212	1153.3966669555
1	12765	755664.310326016276	343.27578380066
1	12770	755708.758248980642	57.671483492376
1	12805	757711.750445052906	1220.2668450192
1	12810	757784.7418293466	1120.4013128062
1	12825	758661.695000468406	1226.9914433981
1	12834	759021.051346904517	1086.1145908146
1	12842	759107.831473463705	545.40833213223
1	12909	761716.635106056699	90.834057058418
1	12949	769571.831279099541	0
1	12960	769804.215274366858	209.39613531483
1	12965	769916.907143417392	113.69453760878
1	13004	776295.721706877325	0
1	13013	777589.089129460486	0
1	13031	779448.234935486022	0
1	13040	780225.574666985579	0
1	13056	780902.934301672069	0
1	13065	781265.075732031129	0
1	13101	785264.358780673101	0
1	13120	788184.779349276382	0
1	13139	788714.039403037559	60.862631308358
1	13153	789751.801207740183	0
1	13161	789809.122418037545	43.269771379394
1	13170	790100.172968698236	0
1	13191	792462.414924749694	1108.6140339203
1	13196	792549.905716829905	774.95688986249
1	13204	792557.125498762806	0.831130755185
1	13227	793091.641657228333	252.81154275501
1	13235	793380.137115505444	452.56900735812
1	13257	794109.134090569154	155.54041319231
1	13285	795838.509912308054	250.21251565809
1	13304	796846.831941911946	0
1	13329	797898.41652428805	0
1	13338	798397.276905231024	0
1	13355	799309.760351791088	0
1	13375	800763.944015927251	449.40710116385
1	13383	800857.555563315635	35.640496522059
1	13418	803205.607712783354	494.24583456955
1	13423	803606.83499611316	594.50279425927
1	13436	805058.458626607404	981.30852080609
1	13444	805141.163682352813	922.99485864079
1	13456	806194.4593691006	386.98241759046
1	13490	807420.491620083823	837.82172310779
1	13495	807653.947497769949	936.39957564142
1	13509	807940.835400129529	1156.2516986403
1	13515	808138.966990757915	1096.3167258272
1	13523	808303.031970727559	393.82601341892
1	13565	809481.408107380688	0
1	13583	811860.31054313176	0
1	13595	812198.461343215329	239.81120717608
1	13633	813529.801389194783	284.00506010193
1	13644	813766.393689319595	205.58992986009
1	13665	815140.937887134991	81.855328102141
1	13673	815573.992401527447	462.778547252
1	13678	815635.281201703744	183.17285262615
1	13695	816434.396786456986	221.20614755186
1	13708	816599.644481868359	0
1	13741	819101.001590970856	573.80267263372
1	13754	819273.711846765672	47.78341853901
1	13767	819783.400250990118	0
1	13793	821388.241337909373	102.27619879546
1	13801	821660.240418697495	0
1	13831	823486.97965325286	1469.0091722425
1	13836	823604.006167291487	1342.0973784846
1	13841	823710.493739401055	1309.3522120431
1	13849	823872.880172940048	616.08384644125
1	13858	824336.096458746615	903.43745320708
1	13873	825079.44649835668	717.97282434101
1	13878	825123.033055898434	151.51562196627
1	13892	825900.359814166038	75.757358802279
1	13964	828919.332539886876	639.21248989697
1	13970	829297.875770588863	831.10583630884
1	13989	830687.586896543415	223.123861036
1	14010	832912.375294913314	37.487339434026
1	14037	833357.448700353023	0
1	14054	834779.427629802591	0
1	14072	836091.881532187231	0
1	14092	837573.05152911407	480.60912253419
1	14117	838422.562238253325	61.343535694456
1	14132	840463.792526108752	0
1	14143	840791.665182324332	320.91594853193
1	14149	841054.213183829438	268.06185128913
1	14166	842021.810738278773	0
1	14174	842458.245493752506	0
1	14188	842851.459385815687	327.84113991077
1	14200	843169.182769024565	246.20684102043
1	14232	844770.283550749575	0
1	14241	845245.955034871166	382.10882450613
1	14260	845778.556734163978	30.621203395239
1	14266	846112.214367851875	361.67902075472
1	14286	846909.018214698964	472.10205217255
1	14295	847144.4028697419	542.55081247417
1	14333	848591.743673963936	302.74565485227
1	14357	849632.333956049298	150.9521859135
1	14372	850783.000240273764	1097.0639235633
1	14378	851138.59559575745	1309.1899505165
1	14417	853865.372737904026	0
1	14449	855811.837711788803	286.61401092561
1	14455	856122.717754308594	356.47501058879
1	14463	856687.474968099555	909.64381285481
1	14480	857836.044504819012	23.68298660744
1	14489	858025.293760210923	178.56976383608
1	14502	858239.014105619462	0
1	14522	859862.354915742747	479.99275421391
1	14528	860189.914413908232	661.92079591695
1	14539	860359.367083098452	154.41720294909
1	14547	860568.6334854114	285.15424216222
1	14552	860639.984789778133	145.98536088085
1	14563	860932.969414768205	241.19751414124
1	14602	862545.378910673087	0
1	14652	864978.966545056537	61.978976666291
1	14670	866782.936285242417	0
1	14679	867521.837726787022	0
1	14689	869112.544700657369	0
1	14697	869994.085983312873	0
1	14717	870536.761005543367	211.08480711163
1	14730	870890.388755042785	0
1	14739	871305.015132791396	0
1	14750	871490.262474673666	162.91375514413
1	14763	871925.63344354816	0
1	14772	872337.049529044825	0
1	14800	873425.941959644412	22.805822561154
1	14812	874032.250896849585	120.56674687309
1	14860	876217.279861710434	771.03516279209
1	14868	876851.009843038616	117.60949219212
1	14885	877801.863241306203	256.87556894876
1	14908	879084.007824320243	401.43261586717
1	14919	879851.369223001182	982.23832264846
1	14925	880033.00743590195	409.48542743823
1	14930	880047.359746001188	391.59129854328
1	14941	880220.020002098216	114.90249063125
1	14971	881246.251505547287	161.64961077079
1	14979	881293.576989964608	40.963763535727
1	14997	882013.992997284363	0
1	15017	882594.483948631621	299.05839930837
1	15022	882655.599390247957	305.2976724098
1	15039	883025.332672718903	30.716213433914
1	15059	884461.174668313589	401.05440306642
1	15115	886885.722793651118	74.49692400316
1	15124	887653.091511894871	835.47552574811
1	15132	888011.803435753638	695.92261395708
1	15169	890206.418486919611	264.07257701455
1	15177	890479.112917291597	245.79130651891
1	15185	890856.597789015459	0.411849263521
1	15217	893038.787693162863	0
1	15225	893838.337256771601	691.17449762439
1	15259	895148.512198983552	0
1	15270	895654.900900907248	382.42484216189
1	15275	895718.74895537278	116.20136045276
1	15284	896840.896092245864	0
1	15292	896911.514066758217	0
1	15321	897694.437323678587	91.464898122264
1	15360	900052.502393048742	0
1	15368	900615.967818903431	247.45043945829
1	15393	901840.154372752398	0
1	15403	903139.925401493794	0
1	15411	903378.593328661978	0
1	15455	907202.933498614684	36.549191807308
1	15463	907497.442606329921	0
1	15477	907732.178197445563	194.20770644804
1	15486	908118.988631531384	455.27920510712
1	15500	908511.922096313665	831.47797277333
1	15511	908968.709199326733	928.51345247403
1	15516	909004.578782087232	813.75879807215
1	15522	909052.193033529114	727.34488456828
1	15530	909288.072136356549	370.08903682748
1	15555	910137.092565503189	323.34619892278
1	15560	910250.094530705214	414.45394142943
1	15565	910329.592917548293	266.20508138679
1	15624	913078.907449514318	392.8879504511
1	15654	914175.161145637708	123.02150864318
1	15662	914573.243124797799	0
1	15671	915404.523729460576	0
1	15682	915689.855931222193	193.27425212134
1	15690	915858.022675217522	116.17987807321
1	15713	916817.750749190272	308.49485307375
1	15735	917463.964547676681	8.781149862098
1	15743	917715.232464874771	137.20308385773
1	15778	920474.412247276914	193.21740925578
1	15816	924073.263308081815	0
1	15833	925326.68454544259	0
1	15841	925646.842069036682	72.408960922927
1	15858	926835.591042502481	0
1	15878	927862.122550347625	125.0615208555
1	15886	927885.511816229014	21.514394187538
1	15909	928659.045626941625	628.49477448638
1	15917	928987.9531227283	691.09424071001
1	15923	929019.656259919824	483.4471876471
1	15928	929246.437142827533	427.17430514328
1	15995	935522.238291302474	0
1	16003	935637.784107154336	0
1	16013	937286.630057640497	0
1	16024	937637.262471216348	37.490723339567
1	16038	938064.725515465111	59.531326891746
1	16055	939574.141780211192	114.53677267795
1	16063	939834.033440626773	0
1	16075	940439.62237216071	432.99957154622
1	16108	941795.883857143251	246.98030531445
1	16113	941845.779867026302	126.94875817724
1	16122	942236.868964265222	0
1	16130	942744.173620844708	380.92187050633
1	16138	942942.254485068006	0
1	16163	943984.594753007652	0
1	16172	944265.480666132777	0
1	16222	946755.538435961464	0
1	16238	948622.179066811569	1071.1548338272
1	16246	948934.176990960846	362.47762185387
1	16251	948967.401304524478	335.66930189464
2	1368	72188.459314594394	3
2	1373	72246.292768520173	2
2	1378	72721.689385862824	1
2	1384	73106.756847374478	0
2	1392	73719.432176988144	1
2	1397	73975.399822050201	0
2	1401	74070.359459752627	1
2	1404	74493.889263133499	2
2	1409	74964.568998245598	1
2	1415	75009.629976302888	0
2	1418	75212.522033141603	1
2	1435	75887.516590230865	0
2	1467	76723.438919875822	1
2	1475	76931.527929710322	0
2	1504	78191.563776680167	1
2	1506	78191.563776680167	0
2	1509	78441.681754525538	1
2	1514	78783.128586456373	0
2	1521	79212.577773040536	1
2	1523	79212.577773040536	0
2	1538	80073.415413539065	1
2	1540	80073.415413539065	0
2	1554	80863.791390620104	1
2	1556	80863.791390620104	0
2	1595	81899.178274297396	1
2	1597	81899.178274297396	0
2	1612	82483.965506116907	1
2	1614	82483.965506116907	0
2	1620	82635.211916128055	1
2	1622	82635.211916128055	0
2	1634	83026.400849196609	1
2	1648	83505.426606069405	0
2	1656	83668.883290993103	1
2	1659	83886.909203615635	2
2	1664	83904.220497485753	1
2	1670	83972.623152062396	2
2	1676	84068.926688980957	1
2	1682	84449.824960132856	2
2	1687	84498.785766068664	1
2	1692	84524.293563279689	0
2	1705	84864.161672487293	1
2	1711	84979.613649758818	2
2	1715	85716.439475097817	3
2	1720	85779.696901879494	2
2	1733	87180.260399739589	1
2	1736	87331.472532548193	2
2	1741	87377.805769607441	1
2	1744	87765.411741221597	2
2	1748	88039.925789347277	3
2	1756	88620.523715069409	2
2	1762	89124.661250628046	1
2	1767	89209.184430552195	0
2	1792	90666.299028615465	1
2	1797	90770.648128638855	0
2	1826	91234.062757537133	1
2	1829	91471.3732305471	2
2	1832	91535.434900407948	3
2	1835	91680.113345588939	4
2	1840	91913.283147164269	3
2	1845	91927.505780898826	2
2	1854	92592.494176365916	1
2	1859	92725.213803269261	0
2	1870	92887.945269361987	1
2	1883	93486.513246078741	2
2	1886	93554.643465738226	3
2	1892	94086.37569028784	2
2	1900	94288.915326806859	1
2	1911	94993.446299398645	0
2	1915	95060.260394302122	1
2	1923	95354.885039442956	0
2	1946	96619.588635004392	1
2	1951	96620.850722821607	0
2	1983	97446.799555196405	1
2	1988	97482.242995219639	0
2	2020	98348.028549445515	1
2	2025	98661.251171978539	0
2	2042	99360.415192576628	1
2	2047	99595.066678115173	0
2	2051	100157.944129468254	1
2	2056	100302.59327295462	0
2	2080	102405.359537900357	1
2	2082	102405.359537900357	0
2	2089	103402.369181953975	1
2	2091	103402.369181953975	0
2	2097	103711.753194743123	1
2	2099	103711.753194743123	0
2	2114	104438.212558222058	1
2	2116	104438.212558222058	0
2	2119	104774.275332263272	1
2	2125	105200.42635579803	0
2	2131	105589.098996957321	1
2	2133	105589.098996957321	0
2	2155	105968.259883112683	1
2	2162	106140.140715385615	2
2	2167	106575.694589381718	1
2	2170	106629.762371760118	2
2	2176	106696.120902308458	3
2	2181	106950.669107189458	2
2	2187	107292.816550811211	1
2	2192	107417.998235042451	0
2	2225	108795.328643889335	1
2	2230	108976.626936596695	0
2	2239	109233.480374480705	1
2	2244	109274.375712464057	0
2	2289	111548.915824921122	1
2	2291	111548.915824921122	0
2	2298	112437.444873366397	1
2	2300	112437.444873366397	0
2	2307	113597.103553894193	1
2	2309	113597.103553894193	0
2	2334	116031.532643574923	1
2	2336	116031.532643574923	0
2	2360	118965.95554031012	1
2	2362	118965.95554031012	0
2	2379	121235.442814154514	1
2	2381	121235.442814154514	0
2	2388	122363.249085477344	1
2	2390	122363.249085477344	0
2	2397	123485.996875332823	1
2	2399	123485.996875332823	0
2	2406	124082.318512545819	1
2	2408	124082.318512545819	0
2	2415	125750.80537329864	1
2	2417	125750.80537329864	0
2	2433	127095.048096910054	1
2	2435	127095.048096910054	0
2	2466	128995.940690789541	1
2	2468	128995.940690789541	0
2	2475	129684.921820261221	1
2	2477	129684.921820261221	0
2	2489	130226.446020876589	1
2	2495	131042.771019505292	0
2	2498	131042.945316493474	1
2	2501	131188.991044549001	2
2	2504	131239.88807896695	3
2	2509	131274.90102831829	2
2	2515	131416.716519688539	3
2	2520	131506.670966262069	2
2	2528	131747.826533116856	1
2	2537	132453.362894984647	0
2	2554	133197.910152285541	1
2	2559	133242.287106704432	0
2	2562	133552.557527470747	1
2	2565	133788.428199696712	2
2	2574	134450.966175611142	1
2	2579	134476.690633496019	0
2	2582	134920.177855205044	1
2	2588	135075.719209222158	0
2	2616	136716.007914355162	1
2	2621	136743.040959665905	0
2	2678	140320.861083490753	1
2	2683	140343.136100925705	0
2	2686	140380.595985011223	1
2	2691	140702.061254401747	0
2	2694	140834.476398333394	1
2	2700	141266.094219717029	0
2	2703	141735.689974611301	1
2	2709	142030.202869460992	0
2	2728	142994.473359569403	1
2	2730	142994.473359569403	0
2	2737	143605.717013846612	1
2	2739	143605.717013846612	0
2	2789	147607.736616183797	1
2	2791	147607.736616183797	0
2	2798	148169.741313613509	1
2	2800	148169.741313613509	0
2	2806	148807.056427086945	1
2	2808	148807.056427086945	0
2	2811	148921.393150948305	1
2	2817	149079.984950786492	0
2	2831	149797.098512060829	1
2	2833	149797.098512060829	0
2	2848	150627.25816749789	1
2	2850	150627.25816749789	0
2	2859	150939.952125625409	1
2	2865	151104.482650967647	0
2	2868	151482.889263809681	1
2	2873	151536.016491911128	0
2	2908	154467.671223084696	1
2	2910	154467.671223084696	0
2	2933	155966.751503365636	1
2	2935	155966.751503365636	0
2	2939	156160.991645011643	1
2	2944	156600.513864875225	0
2	2956	157473.873786909531	1
2	2964	157525.336130423498	0
2	2984	158745.602203802331	1
2	2986	158745.602203802331	0
2	2993	159494.115031683815	1
2	2995	159494.115031683815	0
2	3002	160603.115873359412	1
2	3004	160603.115873359412	0
2	3021	163175.679656226334	1
2	3023	163175.679656226334	0
2	3034	163598.787926437992	1
2	3039	163973.428562830031	0
2	3072	166747.517995691745	1
2	3074	166747.517995691745	0
2	3082	168041.188720267162	1
2	3084	168041.188720267162	0
2	3091	169573.01860303903	1
2	3093	169573.01860303903	0
2	3105	170070.636220942262	1
2	3110	170145.734449795185	0
2	3113	170150.792272539123	1
2	3118	170364.535595632645	0
2	3125	171103.640513897998	1
2	3127	171103.640513897998	0
2	3133	171418.357153011799	1
2	3135	171418.357153011799	0
2	3184	174429.573320964822	1
2	3186	174429.573320964822	0
2	3192	174900.787758609874	1
2	3194	174900.787758609874	0
2	3198	175118.023539190896	1
2	3203	175183.874248017079	0
2	3215	176241.951182178949	1
2	3220	176600.047187788661	0
2	3261	179544.654238840205	1
2	3264	179695.074998001727	2
2	3269	179733.262412137149	1
2	3275	180345.280602110137	0
2	3303	181626.486998777577	1
2	3305	181626.486998777577	0
2	3308	181771.883977482933	1
2	3313	181849.782374987834	0
2	3328	182643.840324385835	1
2	3330	182643.840324385835	0
2	3338	184594.702255670624	1
2	3340	184594.702255670624	0
2	3343	184692.734413379246	1
2	3348	184716.992475335078	0
2	3355	185214.616950157997	1
2	3357	185214.616950157997	0
2	3364	186066.4232821747	1
2	3366	186066.4232821747	0
2	3407	189551.19730399022	1
2	3409	189551.19730399022	0
2	3416	190067.218788462334	1
2	3418	190067.218788462334	0
2	3424	190286.750358195277	1
2	3426	190286.750358195277	0
2	3466	192778.71255843534	1
2	3468	192778.71255843534	0
2	3471	192989.871364678523	1
2	3475	193199.9684875095	2
2	3478	193783.34611760403	3
2	3483	193836.617641633253	2
2	3489	194463.305933379103	1
2	3494	194587.562699993796	0
2	3497	194742.24914310387	1
2	3502	194764.98647830301	0
2	3505	194791.700751985219	1
2	3510	194962.650763957829	0
2	3517	195157.684775015158	1
2	3519	195157.684775015158	0
2	3556	197361.727396726876	1
2	3561	197492.083107844711	0
2	3584	198191.902336561295	1
2	3586	198191.902336561295	0
2	3606	199728.861800366059	1
[...]
7	10602	606042.455683386576	1
7	10606	606072.546749927585	2
7	10611	606723.503844561484	3
7	10616	607014.479245581168	2
7	10620	607245.556689034749	3
7	10629	607540.31471972533	2
7	10633	608999.877051247828	1
7	10657	610410.216405047425	2
7	10665	610948.034718694425	3
7	10676	613014.559979022443	4
7	10684	613420.688773903546	5
7	10686	613476.787877434736	4
7	10695	614401.011952959022	3
7	10712	614750.030741922058	4
7	10722	616014.2576833201	5
7	10727	616185.876149683045	6
7	10729	616359.546027901204	5
7	10743	616964.434503512255	6
7	10751	617388.765403964756	5
7	10755	617424.8174919605	6
7	10759	617662.552150870033	5
7	10780	618041.911598584823	6
7	10784	618047.883610555984	5
7	10787	618129.232570535933	4
7	10790	618205.270720240964	3
7	10794	618219.671776334655	4
7	10806	618610.862773727397	3
7	10810	618642.298533422787	4
7	10823	619062.211439311141	3
7	10832	619753.416170897357	4
7	10842	620389.570675989197	3
7	10859	620797.506850013767	4
7	10867	620874.696532230719	5
7	10875	621534.161425008987	4
7	10879	621687.745986376169	5
7	10896	622632.299508218731	6
7	10901	622794.849316027047	7
7	10903	622885.773195471857	6
7	10917	623203.357151895697	5
7	10921	623483.876690501395	6
7	10934	624411.905761823286	5
7	10938	624939.913794233094	6
7	10953	626041.555185216327	5
7	10962	626333.956930953141	6
7	10967	626362.78121401547	7
7	10971	626544.370249886583	6
7	10974	626559.141837148021	5
7	10977	626624.230779778245	4
7	10984	626802.721129540996	5
7	10988	626974.161496410909	4
7	10992	626987.538877240135	5
7	11007	628004.081440857343	4
7	11036	630673.24783651841	3
7	11042	630723.078092308459	2
7	11046	630995.166051704844	3
7	11052	631131.906826672471	4
7	11061	631485.825868881419	3
7	11080	633099.040389113019	4
7	11082	633301.236374509602	3
7	11090	633664.400802822025	2
7	11099	634364.736692027319	1
7	11114	635152.48464382283	2
7	11116	635276.152530096703	1
7	11130	635516.203174122362	2
7	11139	636030.158861251	3
7	11141	636543.990153307485	2
7	11150	637180.122618715414	1
7	11170	640653.393772388345	2
7	11175	640941.193872341261	3
7	11178	641588.408826646858	2
7	11187	642654.796616407155	1
7	11193	643016.200920089919	0
7	11223	647055.944149043744	1
7	11228	647142.332273978205	2
7	11233	647200.843884348065	3
7	11237	647413.644660534878	2
7	11241	647490.701085890711	3
7	11245	647904.280720577302	2
7	11257	648396.572145395663	1
7	11266	649988.748246546254	0
7	11286	652831.458822112098	1
7	11291	652914.707376867143	2
7	11300	653322.589775354329	3
7	11316	655562.830547000403	4
7	11320	655724.508229036285	3
7	11339	658328.385092800426	4
7	11344	658823.333198904986	5
7	11352	658971.325650559659	6
7	11357	659054.45478858901	5
7	11361	659085.7610524788	6
7	11366	659115.296554123779	7
7	11370	659252.773943079521	6
7	11373	659455.348296579359	5
7	11380	659648.971792782378	6
7	11385	659949.754530066858	7
7	11390	659997.572058385261	8
7	11405	660534.796066915652	7
7	11419	661223.923504644694	6
7	11422	661306.072244707365	5
7	11433	661602.619914249111	4
7	11436	661778.051253680988	3
7	11440	661822.372891153568	4
7	11450	662083.132323951114	3
7	11469	663267.254959388645	2
7	11477	663594.602709363005	1
7	11494	664792.221532623673	0
7	11501	664877.443170768994	1
7	11506	664957.65136604036	2
7	11511	665476.011061586785	1
7	11523	665590.508561292443	2
7	11531	666327.745980478912	1
7	11546	667615.944322805346	2
7	11558	668567.6612798827	3
7	11564	669131.461533584892	4
7	11566	669204.188320492665	3
7	11580	669969.82685189706	4
7	11589	670118.026701770549	5
7	11591	670313.425074637462	4
7	11596	670435.04830663288	3
7	11614	671525.592424516107	4
7	11617	672361.276800567991	3
7	11631	672802.689374595226	4
7	11640	673298.396466153657	5
7	11642	673348.599600186984	4
7	11647	673624.81242782371	3
7	11655	673879.396613137224	2
7	11673	674951.289527283509	3
7	11676	675544.250836589618	2
7	11692	677203.141309742241	3
7	11700	677952.195685582176	4
7	11709	678115.266426575239	5
7	11711	678275.456632242975	4
7	11716	678473.974600276957	3
7	11724	678858.908667575383	2
7	11728	679137.919194137766	1
7	11740	679690.5944076004	2
7	11748	680110.827290717123	1
7	11757	680761.610495520023	2
7	11775	681530.53694956504	1
7	11779	681585.003095059995	2
7	11786	681746.936603571033	1
7	11796	682110.125180489835	2
7	11809	682550.131181595218	3
7	11811	682730.932055671294	2
7	11826	683086.16339639761	3
7	11833	683354.093916010551	2
7	11836	683362.679219318759	1
7	11840	683409.901622857624	2
7	11852	683634.939723531159	1
7	11862	685484.346540459282	0
7	11876	685981.723731463163	1
7	11885	686665.777880185873	2
7	11890	689311.420293930967	1
7	11904	689908.41934041505	2
7	11911	689993.934965954397	1
7	11916	690519.486436081901	2
7	11920	690615.73288192121	1
7	11933	692898.071474807497	0
7	11948	693629.322440354482	1
7	11951	694220.566312740027	0
7	11965	694687.735656349077	1
7	11974	695595.480546536596	2
7	11986	696672.060290464311	3
7	11990	696759.376492163963	2
7	11994	696923.717885612466	3
7	12008	697430.666809952668	4
7	12010	697520.860140490459	3
7	12018	697916.507925838182	2
7	12033	698461.766123875208	3
7	12036	699347.751092729132	2
7	12044	699688.810456580542	1
7	12058	700887.105741304626	0
7	12066	701787.589367178755	1
7	12072	702095.242196843802	2
7	12079	702278.569086221801	1
7	12091	702681.27181041998	2
7	12097	703368.702572960625	3
7	12105	704169.598303887037	2
7	12113	704821.688313127302	1
7	12134	705649.141486740798	2
7	12139	705728.300111345415	3
7	12144	705860.164098180665	4
7	12146	706013.721545554778	3
7	12161	706812.109623801908	4
7	12164	707280.423789788368	3
7	12173	708014.375349972051	2
7	12187	708651.924269572359	3
7	12190	709032.176310170044	2
7	12204	709669.116875820518	3
7	12207	710106.666935796452	2
7	12215	710671.550768495819	1
7	12238	713693.839572633549	2
7	12243	713892.316341215258	3
7	12249	714246.081736638727	4
7	12251	714302.520526190201	3
7	12259	714984.921754497529	2
7	12270	717604.979004504574	1
7	12288	719005.751121899544	2
7	12297	719620.022840256102	3
7	12303	720504.321687041382	4
7	12311	721314.139663984305	3
7	12315	722423.33095757882	2
7	12319	722560.518138424812	3
7	12323	722760.228598423168	2
7	12330	723531.760306499958	1
7	12340	724029.175512718679	2
7	12358	725529.014214846966	1
7	12374	727395.437177890595	2
7	12376	727720.310992520382	1
7	12385	728299.842841982663	0
7	12402	728961.972193886764	1
7	12408	729088.250385096812	2
7	12410	729889.410955743667	1
7	12429	731461.301590152509	2
7	12434	731776.125591521092	3
7	12436	731859.535963084453	2
7	12445	732993.978877011087	1
7	12456	735242.978617613081	0
7	12481	737352.061338760592	1
7	12486	737678.779834722362	2
7	12491	737921.804517451243	3
7	12497	738139.852789373214	4
7	12505	738388.697372521741	5
7	12507	738978.329976005184	4
7	12513	739268.885120904038	3
7	12516	739314.211168314691	2
7	12533	740162.54503098747	1
7	12546	740345.57445706733	0
7	12551	741124.158588843411	1
7	12560	743902.890414848751	0
7	12575	744737.869147964339	1
7	12584	746355.944015067671	0
7	12588	746371.505661177411	1
7	12605	748763.779244879671	0
7	12613	749185.791939420771	1
7	12618	749608.905162413692	2
7	12626	749723.868414333761	3
7	12631	749954.231373077317	4
7	12645	750426.440711887348	5
7	12647	750710.704973063862	4
7	12656	751137.839121609466	3
7	12670	751775.744762726463	4
7	12672	751872.244366068197	3
7	12687	752112.050235920928	4
7	12689	752482.861358744643	3
7	12700	752743.003476234827	2
7	12706	752919.692754953596	1
7	12722	753136.804739973944	2
7	12727	753610.490093822687	3
7	12731	753682.893415131525	2
7	12735	753995.047732452588	3
7	12741	754208.956194734212	4
7	12746	754213.436702247093	5
7	12768	755708.758248980642	6
7	12773	756031.328128038648	5
7	12777	756130.621984473896	6
7	12786	756375.152256601184	5
7	12796	757079.283702292836	4
7	12808	757784.7418293466	5
7	12816	758171.710977932556	4
7	12823	758661.695000468406	5
7	12827	758833.08715859237	4
7	12832	759021.051346904517	5
7	12836	759043.950172722519	4
7	12840	759107.831473463705	5
7	12845	759262.703535253452	6
7	12849	759360.68987784011	5
7	12853	760218.291791748496	4
7	12856	760248.547564247098	3
7	12880	761221.112897045231	2
7	12913	762198.01719494006	3
7	12915	762277.219748319178	2
7	12925	764245.105950910904	1
7	12934	765326.18873825158	0
7	12958	769804.215274366858	1
7	12963	769916.907143417392	2
7	12967	769971.446493209446	1
7	12972	770227.360596106813	2
7	12976	770369.650273025252	1
7	12988	771270.129203820509	0
7	13008	777231.333509795841	1
7	13016	777748.381224301466	2
7	13018	777898.861970323249	1
7	13034	779472.522534534814	2
7	13043	780317.647615675146	3
7	13045	780536.826922339911	2
7	13060	781036.933589785491	3
7	13068	781487.625019726544	4
7	13070	781720.546383481378	3
7	13079	782649.951502999387	2
7	13088	783404.636963618667	1
7	13104	785378.110994751527	2
7	13107	786021.491309159794	1
7	13123	788261.163342209592	2
7	13125	788449.63131924904	1
7	13130	788524.044355023639	0
7	13142	788881.936900805399	1
7	13159	789809.122418037545	2
7	13164	789816.216163574996	3
7	13173	790601.917883602353	4
7	13175	790844.979092806883	3
7	13194	792549.905716829905	4
7	13202	792557.125498762806	5
7	13206	792567.849411330548	4
7	13210	792707.918329316667	5
7	13214	792816.049609562085	4
7	13229	793335.525207952769	3
7	13233	793380.137115505444	4
7	13238	793598.434221305694	5
7	13251	794077.613575901109	4
7	13260	794248.724477189532	5
7	13268	795408.372047905697	4
7	13276	795590.397284532701	3
7	13279	795770.229940973153	2
7	13288	795990.625468063354	3
7	13306	796897.082799476561	2
7	13309	796953.889492032064	1
7	13314	797269.44058064189	2
7	13332	798013.276026363771	3
7	13341	798421.691975683402	4
7	13344	799035.905010591173	3
7	13358	799378.092168199616	4
7	13361	800076.093032369055	3
7	13366	800092.153039894242	2
7	13381	800857.555563315635	3
7	13387	801261.125414436399	4
7	13391	801280.515810764399	3
7	13394	801309.382797814859	2
7	13421	803606.83499611316	3
7	13434	805058.458626607404	4
7	13438	805114.467636795772	3
7	13442	805141.163682352813	4
7	13450	806177.48435246481	3
7	13454	806194.4593691006	4
7	13459	806444.684973941464	5
7	13474	806728.822730214274	4
7	13484	807078.75386910797	3
7	13493	807653.947497769949	4
7	13497	807843.137820839347	3
7	13503	807925.217971129743	2
7	13507	807940.835400129529	3
7	13513	808138.966990757915	4
7	13517	808178.821904315191	3
7	13521	808303.031970727559	4
7	13526	808463.906938575069	5
7	13551	809048.232304063239	4
7	13568	809598.512044566283	5
7	13571	810273.275740855211	4
7	13589	812135.97302119232	3
7	13593	812198.461343215329	4
7	13597	812424.384342275266	3
7	13600	812822.251160464587	2
7	13604	812826.823005996451	3
7	13622	813111.684181098024	2
7	13638	813668.200089707165	1
7	13642	813766.393689319595	2
7	13648	814110.595469798832	3
7	13652	814543.407580212074	2
7	13671	815573.992401527447	3
7	13676	815635.281201703744	4
7	13681	815668.495564493444	5
7	13686	816070.470140620762	4
7	13698	816469.735794247417	5
7	13711	816638.872840114123	6
7	13715	818155.046671647002	5
7	13723	818329.643505270527	4
7	13728	818355.451486420974	3
7	13731	818378.927171007276	2
7	13744	819121.465684973257	3
7	13757	819555.622715251628	4
7	13770	819844.04137526435	5
7	13773	820092.715918648227	4
7	13782	821214.656242658083	3
7	13796	821446.374772137022	4
7	13804	821691.340054950672	5
7	13806	822003.372433920371	4
7	13834	823604.006167291487	5
7	13839	823710.493739401055	6
7	13843	823860.816132230915	5
7	13847	823872.880172940048	6
7	13851	823962.824243793251	5
7	13856	824336.096458746615	6
7	13863	824528.008363047636	5
7	13871	825079.44649835668	6
7	13876	825123.033055898434	7
7	13880	825283.377849842127	6
7	13883	825576.559859912131	5
7	13890	825900.359814166038	6
7	13895	825923.37419692401	7
7	13904	826012.283735856324	6
7	13913	826248.084137309687	5
7	13921	826975.775453697261	4
7	13931	828111.937587755297	3
7	13952	828354.087426843194	2
7	13958	828566.755763204434	1
7	13968	829297.875770588863	2
7	13973	829476.469352235282	3
7	13993	832122.059673470581	2
7	13996	832233.704214222674	1
7	14000	832831.000004443274	2
7	14013	832977.477722045384	3
7	14026	833217.743562101234	2
7	14039	833499.238151408987	1
7	14044	834543.019811791239	2
7	14057	835424.647735236026	1
7	14061	835458.609655819918	2
7	14075	836746.107849597349	3
7	14077	836753.003681402126	2
7	14083	837019.974653261031	1
7	14095	837950.062796008882	2
7	14099	837963.624027787761	1
7	14108	838232.170095902006	0
7	14120	838477.50312266796	1
7	14141	840791.665182324332	2
7	14147	841054.213183829438	3
7	14152	841056.256315054572	4
7	14154	841090.854473570958	3
7	14169	842116.889083170288	4
7	14179	842722.864511224631	3
7	14182	842847.144920608785	2
7	14186	842851.459385815687	3
7	14190	842852.012349043913	2
7	14198	843169.182769024565	3
7	14203	843300.776774910298	4
7	14220	843656.069544255152	3
7	14239	845245.955034871166	4
7	14244	845634.625177740063	5
7	14246	845735.995271468046	4
7	14264	846112.214367851875	5
7	14271	846487.195929231752	4
7	14274	846540.182606145044	3
7	14280	846683.050084858816	2
7	14284	846909.018214698964	3
7	14288	847004.726615627129	2
7	14293	847144.4028697419	3
7	14298	847180.269030698518	4
7	14307	847792.584951574751	3
7	14324	848294.638901491127	2
7	14327	848508.273516403996	1
7	14336	848614.92152244177	2
7	14365	849965.497100028982	1
7	14370	850783.000240273764	2
7	14376	851138.59559575745	3
7	14380	851203.155031662187	2
7	14384	851312.856702638433	3
7	14396	851684.109633722497	2
7	14405	852167.788289558727	1
7	14420	853906.014501251073	2
7	14423	854054.39833765411	1
7	14432	855499.479318443058	0
7	14453	856122.717754308594	1
7	14457	856349.293031076781	0
7	14461	856687.474968099555	1
7	14467	857517.622712703631	2
7	14474	857815.583204452814	1
7	14487	858025.293760210923	2
7	14492	858101.032082300326	3
7	14505	858571.346199844289	4
7	14508	859241.607656037215	3
7	14526	860189.914413908232	4
7	14537	860359.367083098452	5
7	14545	860568.6334854114	6
7	14550	860639.984789778133	7
7	14557	860812.506914558741	6
7	14561	860932.969414768205	7
7	14567	861106.688434255428	8
7	14574	861614.500620194511	7
7	14582	861719.238706294569	6
7	14587	861909.736135541163	5
7	14605	862776.175504131639	6
7	14608	863098.082369705565	5
7	14616	863813.647318662507	4
7	14621	863837.362572480098	3
7	14633	864029.076827588765	2
7	14641	864584.520335207059	1
7	14656	865075.088949287166	2
7	14658	865736.033697419048	1
7	14673	866892.275854588004	2
7	14682	867989.019666912574	3
7	14692	869313.840187603099	4
7	14700	870252.383262981504	3
7	14704	870315.357182329929	4
7	14711	870533.422587895701	3
7	14720	870864.049101565496	4
7	14733	870910.150777997445	5
7	14744	871402.89533213632	4
7	14748	871490.262474673666	5
7	14753	871792.125412315626	6
7	14766	871950.623777778673	7
7	14774	872434.544594246613	6
7	14777	872850.442703280941	5
7	14781	873229.634101350028	4
7	14785	873377.006590476749	5
7	14802	873655.509407539632	4
7	14810	874032.250896849585	5
7	14814	874136.392309327244	4
7	14818	874277.798545718694	5
7	14827	874503.56140471928	4
7	14835	874634.856276681712	3
7	14838	874683.265450604274	2
7	14850	875523.4250146177	1
7	14853	875986.146176276435	0
7	14866	876851.009843038616	1
7	14872	877076.379655576974	2
7	14879	877574.177057447828	1
7	14889	878096.897396956802	2
7	14917	879851.369223001182	3
7	14923	880033.00743590195	4
7	14928	880047.359746001188	5
7	14935	880165.149919673969	4
7	14939	880220.020002098216	5
7	14944	880661.727568578303	6
7	14948	880700.704949735543	5
7	14962	881083.448010987104	4
7	14977	881293.576989964608	5
7	14982	881376.489148674832	6
7	15001	882069.309683072593	7
7	15003	882116.557516251706	6
7	15020	882655.599390247957	7
7	15025	882732.660109558706	8
7	15027	882952.795321926388	7
7	15042	883216.625763687007	8
7	15044	883373.827240023222	7
7	15049	883408.309356383635	6
7	15061	884632.489925040406	5
7	15064	884692.860464661816	4
7	15067	884703.485223095838	3
7	15071	884955.273371423211	4
7	15075	884996.307225679673	3
7	15084	885354.622893350272	2
7	15087	885506.169444950497	1
7	15122	887653.091511894871	2
7	15126	887661.574588310854	1
7	15130	888011.803435753638	2
7	15136	888178.554184011339	3
7	15151	889050.86478878209	2
7	15154	889153.755700034915	1
7	15175	890479.112917291597	2
7	15183	890856.597789015459	3
7	15188	890867.996265705135	4
7	15193	891260.433520450068	3
7	15204	892004.950720916894	2
7	15223	893838.337256771601	3
7	15227	893996.059300065356	2
7	15232	894105.113280457596	3
7	15236	894361.998825859388	2
7	15247	894826.631368568024	1
7	15268	895654.900900907248	2
7	15273	895718.74895537278	3
7	15279	896329.001350198896	4
7	15287	896910.498900430711	5
7	15295	896947.749025228543	6
7	15298	897038.669034343673	5
7	15303	897283.661987902114	4
7	15306	897343.839969330614	3
7	15309	897377.470244694868	2
7	15312	897432.327476101889	1
7	15324	897791.031955333559	2
7	15348	899508.43640305501	1
7	15366	900615.967818903431	2
7	15371	900681.007281296084	3
7	15374	901207.501368699835	2
7	15382	901503.686051900918	1
7	15396	901886.060321948323	2
7	15406	903230.517215262073	3
7	15413	903400.603374842201	2
7	15417	903474.334167978874	3
7	15425	904620.666114091011	2
7	15430	904714.227215419849	1
7	15443	906642.805734148006	0
7	15458	907369.032562065763	1
7	15475	907732.178197445563	2
7	15484	908118.988631531384	3
7	15491	908208.045539409875	2
7	15498	908511.922096313665	3
7	15502	908757.090300383322	2
7	15509	908968.709199326733	3
7	15514	909004.578782087232	4
7	15520	909052.193033529114	5
7	15524	909226.648054079346	4
7	15528	909288.072136356549	5
7	15533	909447.854029630278	6
7	15558	910250.094530705214	7
7	15563	910329.592917548293	8
7	15568	910702.6026354496	9
7	15575	911007.164949381836	8
7	15581	911079.085543762745	7
7	15589	911387.408251991226	6
7	15597	911589.877795524471	5
7	15600	911619.936372898164	4
7	15604	912118.942859249096	3
7	15627	913090.262543543405	4
7	15631	913451.906678518006	3
7	15643	914018.639406690049	2
7	15657	914259.738461180986	3
7	15665	914667.440948880761	4
7	15676	915685.159047904454	3
7	15680	915689.855931222193	4
7	15688	915858.022675217522	5
7	15693	915986.903665609433	6
7	15698	916126.313718750342	5
7	15701	916211.471395069644	4
7	15707	916622.846279166332	3
7	15715	916819.474223549864	2
7	15719	916900.265979504015	3
7	15741	917715.232464874771	4
7	15745	917722.261378581359	3
7	15750	918095.230501225716	4
7	15754	918305.863586253149	3
7	15768	919822.838783728285	2
7	15781	920579.674143178097	3
7	15795	922275.748751644849	2
7	15804	923204.511960565897	1
7	15819	924083.823045218859	2
7	15821	924935.670811373867	1
7	15839	925646.842069036682	2
7	15843	925842.041414302418	1
7	15847	925875.036177823877	2
7	15861	927034.948380593689	1
7	15865	927685.391981491141	2
7	15872	927793.457072577067	1
7	15884	927885.511816229014	2
7	15889	927990.686409222864	3
7	15903	928540.665905519621	2
7	15915	928987.9531227283	3
7	15921	929019.656259919824	4
7	15926	929246.437142827533	5
7	15930	929846.537917713905	4
7	15934	930354.123300295853	3
7	15938	930360.904551007142	4
7	15947	930860.999457425182	3
7	15956	931524.599905189537	2
7	15973	932451.843654050031	1
7	15983	934766.980317914972	0
7	15998	935630.808576638253	1
7	16006	935843.165857213048	2
7	16015	937471.644530866598	1
7	16022	937637.262471216348	2
7	16027	937946.177087270579	3
7	16041	938323.359509333831	4
7	16043	938915.949439656266	3
7	16058	939577.755402234337	4
7	16065	939936.900129630001	3
7	16073	940439.62237216071	4
7	16077	940627.169260338918	3
7	16081	940649.300284443576	4
7	16094	941431.488300167362	3
7	16111	941845.779867026302	4
7	16116	941972.062294731148	5
7	16128	942744.173620844708	6
7	16133	942748.330163907084	7
7	16142	943099.16807676677	8
7	16144	943402.911185836282	7
7	16149	943624.952536637033	6
7	16167	944234.882557961497	7
7	16174	944437.672144872933	6
7	16178	944556.506951936473	7
7	16185	944777.9243894154	6
7	16191	945460.816469162588	5
7	16199	945958.563026949913	4
7	16207	946005.505895640693	3
7	16228	947802.058686425183	2
7	16236	948622.179066811569	3
7	16244	948934.176990960846	4
7	16249	948967.401304524478	5
7	16255	949046.904349715611	6
7	16262	949681.118638271634	5
7	16271	950107.353391621891	4
7	16279	950386.838371032626	3
