version 2
run QueueMeasurement-62-20170109-14:19:25-6495
attr configname QueueMeasurement
attr datetime 20170109-14:19:25
attr experiment QueueMeasurement
attr inifile queueStudy.ini
attr iterationvars ""
attr iterationvars2 $repetition=62
attr measurement ""
attr network controltower.SimNetwork
attr processid 6495
attr repetition 62
attr replication #62
attr resultdir results
attr runnumber 62
attr seedset 62
param SimNetwork.a.parkingLot.parkingDelay exponential(45min)
param SimNetwork.a.runway.landingTime exponential(5min)
param SimNetwork.a.runway.takeoffTime exponential(5min)
param SimNetwork.a.runway.throughputCheckInterval 16.667min
param SimNetwork.wg.interArrivalTime exponential(16.667min)

vector 5  SimNetwork.a.runway  landedThroughput:vector  ETV
attr source  landedThroughputSignal
vector 6  SimNetwork.a.runway  tookoffThroughput:vector  ETV
attr source  tookoffThroughputSignal
vector 0  SimNetwork.wg  responseTime:vector  ETV
attr source  responseTimeSignal
vector 2  SimNetwork.a.landingQueue  queueLength:vector  ETV
attr source  queueLengthSignal
vector 1  SimNetwork.a.landingQueue  queueTime:vector  ETV
attr source  queueTimeSignal
vector 7  SimNetwork.a.parkingLot  parkingOccupancy:vector  ETV
attr source  parkingOccupancy
vector 4  SimNetwork.a.takeoffQueue  queueLength:vector  ETV
attr source  queueLengthSignal
vector 3  SimNetwork.a.takeoffQueue  queueTime:vector  ETV
attr source  queueTimeSignal
0	1271	72068.658449284761	4231.1728827093
0	1287	72711.948412252956	3569.3083116403
0	1312	73925.306913517203	7376.3739666075
0	1321	74932.099921921572	3955.391851794
0	1330	75682.217942781769	2356.8725895625
0	1358	79058.940514835603	1714.412398901
0	1377	79839.156644219067	7455.7323284364
0	1409	82292.769927287495	2746.2419800768
0	1439	85526.904983021166	1811.2838518139
0	1444	85563.511547802893	6191.1211557077
0	1459	86227.492660308553	5433.2184884384
0	1472	86717.092836278075	9026.162760779
0	1477	86849.546230968655	13268.163198911
0	1486	87697.735369514339	7793.8987866738
0	1496	89378.612029510814	4719.7356041347
0	1530	91115.244678569709	1584.3570921903
0	1538	91652.474168392665	1788.9223100008
0	1592	96021.463088110331	9932.9374498148
0	1622	97556.491496472665	4566.3482868575
0	1630	97835.853044515316	3875.4724942651
0	1635	97924.758176996442	3384.0039237114
0	1644	98643.192807487295	2741.3824064375
0	1658	99432.688078758497	4686.6676964074
0	1669	99879.899328894805	3720.7356564225
0	1675	100221.173158172181	4702.9815982993
0	1716	103638.491815703085	1205.4457280555
0	1747	105102.679693603824	2963.6652974343
0	1752	105424.577206741041	6911.070262975
0	1761	106182.783231839318	2598.3326199282
0	1781	107889.366348119213	5256.7896861777
0	1786	107936.690710616158	3992.5341139029
0	1807	109629.018513353472	4963.5226727358
0	1812	109673.584853157284	18949.181680267
0	1861	115954.048377679267	4855.3206292065
0	1886	116678.35523301798	5457.8136128354
0	1895	117116.95015710653	5185.7905771212
0	1900	117228.569588023317	8210.6313696575
0	1909	118666.364839632447	3971.0904138085
0	1918	119006.851745299744	3120.2174470353
0	1951	120894.383245429277	13382.618317003
0	1991	126445.655227477512	6753.1434952325
0	2017	127536.022257023911	11412.630804584
0	2022	127565.280659976075	7323.9468240591
0	2047	128886.423339706378	5999.3690592963
0	2056	129387.48793832099	5531.3038964837
0	2064	129471.200111729069	10161.56036866
0	2084	130744.702875074754	4371.778764317
0	2108	130997.145442693672	2956.7285257224
0	2117	131179.815283072424	1242.1216704115
0	2131	132244.760297448203	7158.85373161
0	2140	133893.413947251888	8411.688228233
0	2149	134336.217072234933	3438.5221242275
0	2191	136942.89007144329	5830.2100208766
0	2219	137879.070591657117	2956.0937695848
0	2227	137967.901849827323	9893.4748816344
0	2232	137997.245548309388	1968.687700066
0	2241	138070.985136542295	937.8709563372
0	2252	138239.29352061073	7500.042031988
0	2294	140173.438324050954	1991.1772973903
0	2320	141397.173332587862	5426.0695741801
0	2325	141520.572613195188	4160.7227416093
0	2333	141855.890035414991	3288.4611613612
0	2344	142142.541850065072	7159.7969464436
0	2349	142256.706591143943	2827.7730845357
0	2358	143469.656256963489	3330.9222628708
0	2366	143922.996377821314	4587.4665129366
0	2410	147428.798186497142	3070.892046793
0	2420	149295.911609855379	2896.9620388459
0	2428	149908.094721038683	8248.0746955008
0	2441	151459.918099765145	4893.3648568764
0	2516	156167.14511304226	4745.4765489107
0	2521	156255.469834178098	3519.9940322131
0	2526	156342.438551456172	4353.4464662226
0	2531	156411.867096451476	2906.1171022864
0	2543	157178.882687135598	4842.3912332878
0	2560	158203.248072987636	4231.0375900138
0	2569	159361.429583759949	4918.5786789894
0	2640	163577.228335152038	5369.6559769006
0	2648	163858.255991662709	4365.7514870365
0	2660	164065.281018473361	4095.4971728848
0	2691	166555.656795620885	4525.0316692221
0	2699	166850.099658961231	10186.00434931
0	2705	167048.196469153229	4682.5271145436
0	2710	167065.055029393725	6886.9476568849
0	2752	168669.09090054742	4612.5373112752
0	2762	168925.456962393816	1052.5991994101
0	2767	168990.152730644498	21958.310948382
0	2776	169063.993989457687	3673.7252469536
0	2801	170141.381314887305	2995.4845207819
0	2810	171675.786752974466	2560.4205799481
0	2839	173101.744911569974	8712.6373644843
0	2883	174581.451856172652	2562.1900112496
0	2888	174860.963926895801	2168.8904272235
0	2893	174965.177875632565	15128.333627027
0	2906	176075.970665565383	7830.9646262573
0	2914	176239.637304168238	3176.3413358772
0	2928	177191.623201516449	3855.4009265583
0	2969	180455.117389092116	6449.2614717522
0	2974	180477.466647561706	12022.814548024
0	2982	180705.750388804418	3501.5956533891
0	3010	181755.978415646638	1209.6808650677
0	3022	182141.585741841876	8647.4827832305
0	3027	182555.431380796422	6396.0482214025
0	3038	182882.041484139748	4314.0852505202
0	3049	183423.381573570668	5522.9043443384
0	3060	183753.588406829923	14156.367816577
0	3133	186260.640625729905	2767.7969826122
0	3146	186564.566204944562	2602.938135497
0	3151	186587.664022994755	2504.4363930425
0	3159	186783.072820886622	4064.5099546054
0	3164	186832.373662806845	2929.8611949595
0	3169	186849.972707369199	2976.3613353693
0	3217	191344.942397253032	5216.5911930821
0	3222	191419.468313927854	6937.6608768739
0	3230	191712.20562188865	10472.647869046
0	3267	193446.570514104615	4289.9058674332
0	3280	193671.722518145847	1213.2734410948
0	3290	195375.995153964411	7068.1554775462
0	3301	195878.25614777811	3091.9526482583
0	3315	196489.02555339078	9002.9627695572
0	3332	197227.868275944773	3893.7896315882
0	3346	197758.334300651223	7505.0382061073
0	3396	199656.927110169059	4148.8807168154
0	3401	199869.779236399819	2463.3142804927
0	3422	200471.096984574496	8167.7674397001
0	3449	201007.888499806716	17501.136234816
0	3454	201215.481466200613	2455.1198032562
0	3462	201533.821609828458	4866.4028040001
0	3467	201692.66440504237	3828.3199490871
0	3475	201821.588701231423	2996.985366588
0	3481	202191.656122244929	2047.4316481017
0	3489	202625.143022176317	5181.8803781788
0	3499	204686.803685153002	4423.7684698704
0	3525	206771.697209668915	1607.3542804252
0	3535	208346.786812511081	7790.0575436537
0	3562	211517.687349157278	2745.3491937631
0	3571	212016.716923231325	6746.8915594701
0	3691	220267.964071654647	9668.3659404448
0	3723	221424.260211924367	7578.1620399245
0	3731	221782.509017122447	8602.3468821032
0	3759	222778.998440788705	9053.0585207512
0	3768	223564.671669233827	5786.336714473
0	3776	223871.69730508494	7138.1381881903
0	3796	224729.216970323091	5241.0764444285
0	3816	225852.9497712666	11057.742306207
0	3833	226323.341648491542	5058.9185127285
0	3847	226547.362449407373	10846.618747986
0	3861	227124.48071834948	11520.380006254
0	3874	227732.175355653726	8821.8999012903
0	3888	228137.09721163242	6538.9056247069
0	3893	228328.159574224575	6390.0711798981
0	3901	228774.463838337502	14090.160557976
0	3916	229433.773942009404	5614.2674024813
0	3943	230554.626526045054	11011.681653791
0	3948	230564.566940423537	6364.3998472509
0	3956	230675.114619757362	10676.378160833
0	3961	230695.43546071754	4235.1806049394
0	3973	231284.93597670657	5451.712447925
0	3983	231494.874808207841	4539.3281002968
0	3988	231889.864474019733	2644.2545858905
0	3993	231985.773940753744	2667.6776956715
0	3999	232030.501144807513	4497.8110235789
0	4016	233064.184554044779	2340.000878158
0	4027	233785.866164881116	4368.2152321321
0	4049	234401.749616450487	2160.5896987513
0	4067	236091.219381849531	2238.1878496605
0	4084	237421.865793115099	4185.826472216
0	4109	238978.593791121631	2294.5413770516
0	4130	240340.661471325875	2833.9427311674
0	4135	240736.498528970858	5761.5538024169
0	4144	241727.286300010641	4025.5894623548
0	4170	243044.942796286591	957.30849353409
0	4203	244507.552992538695	4879.9775192204
0	4212	245020.063764260461	1933.488816509
0	4221	246549.752946061957	4048.534843605
0	4230	247772.239762916588	3764.2187117149
0	4264	249110.373012092334	4940.4506518578
0	4289	250833.642024216505	2642.3851610953
0	4317	251484.947526307704	638.57466460981
0	4322	251635.651297992857	1404.3254223537
0	4334	252275.072016389674	2111.324523302
0	4355	254285.180668370409	5825.9455927036
0	4373	254499.645076456179	6604.9196787218
0	4399	256133.356909955672	1333.3483974063
0	4423	256741.396922706949	3244.4528379864
0	4435	257243.565408002394	6376.8133560115
0	4447	258099.10197075258	1916.5671325986
0	4464	259525.424692760609	7490.7348723588
0	4469	259576.757501985578	6324.5949980662
0	4474	259790.504607035319	4087.3547088535
0	4491	260418.599577944702	3837.6002972169
0	4510	263054.719401338402	5215.2455869376
0	4518	263809.011155059976	3823.9750297918
0	4546	267257.642127734213	1950.9367375971
0	4559	269039.137427822957	7115.1572737863
0	4585	271674.147604052537	2798.9384038359
0	4622	276771.898932305006	5212.8459675649
0	4644	277797.503097086954	2003.6457231697
0	4653	278052.821596845708	5570.7490580077
0	4671	280455.931886851599	10543.472098785
0	4688	281895.223945280634	7024.6017784181
0	4697	282123.050721156128	4850.5033927004
0	4726	284132.535572068349	3524.9299056073
0	4731	284207.380943598075	5414.3048934372
0	4740	285609.337144377272	19234.805295938
0	4758	287900.013147485515	4944.7327797987
0	4786	291929.066093115792	4984.0081214915
0	4820	293643.459695930437	2523.1155589143
0	4832	294742.273017812147	2720.3169170852
0	4841	295148.52897509528	1875.7185397198
0	4854	295842.493212789033	12556.431492731
0	4866	296627.363765438422	7382.2991638751
0	4871	296709.061514372323	3225.5438557692
0	4888	297618.407542898936	2704.4876171063
0	4923	300457.807737614219	2031.4335021515
0	4944	302878.1936096575	4300.0887282944
0	4958	303443.684739841689	3919.4026608713
0	4983	304090.653613146265	6666.8213864193
0	5003	305264.624478663812	1583.5699072351
0	5028	306505.967596136794	5766.4919146161
0	5033	306548.187448231691	2693.2119579967
0	5041	306726.860330021736	3857.3982436377
0	5060	309922.760208960275	4747.904503756
0	5077	310213.295081467934	945.87687500205
0	5121	316522.843979709206	12358.779837147
0	5132	317131.094965108064	3739.9911086762
0	5290	324931.992585549613	12995.410464303
0	5306	325218.930953896931	7890.353233291
0	5323	325372.857701764648	19788.841003258
0	5358	326923.973886434529	9321.0751006042
0	5367	327359.215705784696	8498.0366342327
0	5372	327378.422853345454	8951.1381325192
0	5377	327482.873618733675	12712.442736098
0	5382	327700.112160715202	11265.943694068
0	5387	327945.178083073199	9817.2808055739
0	5396	328439.12354802033	9569.9679515414
0	5401	328480.257110242398	10035.41663083
0	5410	329275.456091753467	19307.501271009
0	5426	329923.77300877511	7014.8153123379
0	5432	330085.519782921257	8042.2056428392
0	5443	330736.301920165797	6037.3453181813
0	5454	331428.243977145405	9813.9894755459
0	5462	331613.559253099985	6394.3482437408
0	5467	331683.253595511131	12277.752187308
0	5472	331747.299095299013	12118.197479684
0	5477	331807.778240574176	6442.8315287837
0	5482	331884.730282624302	2648.0666214443
0	5491	332346.446678794413	7001.2518646133
0	5550	335156.812612036699	1957.3848293999
0	5559	336147.439363119652	5973.4699452212
0	5576	336886.773484396516	2799.7797072035
0	5606	337852.756539323727	11564.24827593
0	5614	337958.212925797807	4732.5629199748
0	5620	338037.92317055189	5344.8455182168
0	5628	338256.888487199966	13442.432553706
0	5636	338488.288992128608	2217.6301453439
0	5641	338779.275221186755	5679.2342903971
0	5650	339894.180801931385	20801.172659789
0	5694	343524.939502615672	6546.541771959
0	5702	343719.766068458666	6674.5362965534
0	5710	343837.239146699856	1440.5767277932
0	5729	346380.480952475987	3346.9721323704
0	5751	349966.40154612847	7735.9293703907
0	5763	350087.428287168432	8381.1693900019
0	5773	350547.673039356807	16138.970032679
0	5810	352815.859743004959	8946.8333474717
0	5826	354271.732348697325	4203.6748122991
0	5836	354451.490624622027	2778.4933720818
0	5844	354936.894400909767	7384.3734763235
0	5869	355808.150580599329	1296.8070991159
0	5890	357386.235653565681	6693.3458682326
0	5903	357863.485450065554	6117.1380203837
0	5912	358787.296087584348	4982.0524195112
0	5918	359057.61626304704	3885.5506449661
0	5962	365740.154341532925	10194.071682385
0	5971	366341.176765874635	6402.9129033941
0	5990	367551.651220999661	10280.635552188
0	6003	369459.436822721281	5621.7810660156
0	6009	370295.054398038431	4030.9103096584
0	6030	372794.434960471512	6239.394913253
0	6044	374000.144493305016	11525.930918208
0	6057	375260.358820043683	3307.8914780673
0	6072	377332.744437333922	4588.3923885043
0	6112	379265.077562493937	4293.4927853046
0	6139	380813.656122176997	2284.7945420904
0	6154	381453.165234897289	2453.8135886658
0	6159	381617.380422044041	2507.1210508158
0	6164	381859.194349757239	4008.288251605
0	6214	383658.255304377598	5588.2815431264
0	6231	384504.516336055926	2644.0456497199
0	6240	385491.30770153046	3410.919463888
0	6252	386606.620399000922	7229.6861023551
0	6272	387133.563434949526	4530.6110574593
0	6277	387253.929106727124	4477.1086052579
0	6282	387612.280924581796	3929.1186704744
0	6308	389545.502385111311	1837.692496248
0	6318	391036.270110984903	4701.3965954937
0	6341	392474.456653776389	10424.199309855
0	6375	394021.237621395339	5254.634558168
0	6383	394312.382734117133	2638.906869626
0	6388	394363.986604619108	2126.0174323687
0	6393	394621.176398979193	2396.0260768026
0	6448	398111.948423028925	5171.1028455554
0	6453	398345.054653534937	3525.8494142541
0	6481	399827.931720419047	3992.7220161514
0	6490	400013.07255355361	5194.7146672201
0	6495	400137.425612543239	3630.8377515552
0	6520	401159.679685820603	2728.2722918334
0	6528	401589.661344926277	5330.51042502
0	6548	403003.628713674408	3960.7328311394
0	6586	405709.013525507258	5566.3104882086
0	6611	406839.649206604001	6575.8854712187
0	6632	407317.20124500241	4346.2716472042
0	6678	409435.556300405885	6099.381757285
0	6683	409673.521090563854	4351.5249685653
0	6688	409726.611532182521	4017.1234289433
0	6696	409924.505682829403	6476.8054227414
0	6722	410840.87806024732	2364.7133507967
0	6737	410965.406776799694	3830.2160042682
0	6757	411911.15358019387	3025.7346114055
0	6770	413265.445929521586	2518.0273603471
0	6775	413381.318822417017	11198.204129152
0	6783	413402.434610786879	6376.7301854778
0	6808	414580.903820828957	7279.081612062
0	6819	414868.61712594013	3502.6145037085
0	6824	414975.562320312508	1579.5827580701
0	6829	414978.62631299933	4792.920737547
0	6875	417510.434039793302	3752.540996743
0	6888	417890.255913624626	7188.610802654
0	6897	418520.050275404592	11372.536883537
0	6922	419134.586099215395	3183.6228790183
0	6946	419738.887583311072	1160.4312623221
0	6958	420869.277540272413	3641.7934160752
0	6963	420927.171627720857	5932.117680888
0	6975	421832.003553204999	3129.8202767903
0	6992	422942.769491271114	3523.4776604671
0	6998	423142.857777479988	7026.7072780883
0	7056	429071.102986838354	11634.247981967
0	7074	429698.982037628399	10239.653181439
0	7079	429780.994348516398	7997.8047778929
0	7084	429794.868673334317	2500.1003997239
0	7093	430421.77141838047	7010.4131774158
0	7109	430916.564886048607	2197.6779115858
0	7121	431401.075473688672	2749.7299593633
0	7137	434077.964601016181	7212.4167533853
0	7148	434962.949334901822	4246.5693525782
0	7162	435520.403959162893	10739.426979134
0	7181	438042.543441339115	6979.7672867935
0	7227	441157.487302531076	2599.805326853
0	7238	441572.487266356222	6786.6513094517
0	7248	441718.125754085724	3503.8509996797
0	7269	443161.131735055532	4484.8824530617
0	7274	443641.662274995751	3677.4329933177
0	7296	446148.65777321331	4655.7593624595
0	7304	446305.28032896298	10281.253134588
0	7312	446763.165428754588	5004.4041466836
0	7342	447612.539598913834	865.50928682645
0	7373	448664.117342068803	1571.5865448508
0	7406	449476.79514442577	1195.6825204662
0	7416	449714.797305101106	5203.8602234811
0	7428	450358.144710728866	1527.0574441871
0	7442	451091.259067039959	3109.9391917015
0	7453	451900.342067788797	3379.9301082378
0	7459	452108.370383039524	4904.2562090677
0	7467	452552.130213520357	4875.2312985104
0	7475	452728.689106887383	3599.9670468036
0	7541	459012.79660626039	8714.4897583328
0	7546	459049.837126549875	3849.0094130086
0	7555	460484.28527605832	4369.2759089113
0	7597	461950.940365783153	5244.6031029113
0	7603	462178.586575167595	4902.574442559
0	7608	462586.946353642993	5674.4181244472
0	7613	462648.091489982616	7342.5349736969
0	7643	465334.299405460301	4786.1049073862
0	7648	465706.723415562702	4862.1747086681
0	7681	468318.752082847639	1661.909451055
0	7698	469069.165599427566	7763.7616106057
0	7703	469164.295583592257	4715.1233329456
0	7708	469621.682458946198	5535.5772102466
0	7726	471455.774876464466	3644.3250195606
0	7734	471860.310467995252	4644.2704955348
0	7757	475492.59073154051	4943.7616947429
0	7780	477933.604365247193	4920.9106366185
0	7789	478092.611834714409	2798.7884784471
0	7814	479178.962339827577	805.15223859518
0	7841	482925.534324441609	4300.6377609352
0	7850	483405.942174400897	1508.9519773597
0	7871	485988.397732666373	9406.337610365
0	7897	487252.578377663212	5309.4608895939
0	7902	487846.000305463334	4175.2140053406
0	7932	490365.77335482188	4152.8908982738
0	7937	490381.430341274238	5296.5977526677
0	7946	491363.584757522085	2280.5713694671
0	7982	495350.10387943897	6123.3922001251
0	7991	496414.813074813446	3911.5728483689
0	8070	500358.580932001438	3532.2022803997
0	8078	500543.150614656038	7807.9929601926
0	8091	500906.157309068696	3064.1071555082
0	8126	502491.187737410642	4107.9544819251
0	8131	502511.648467373069	2107.2251201491
0	8142	502970.927995257375	5513.2021315154
0	8169	504280.163070626082	12253.828264216
0	8191	505112.133412982783	3911.1190777707
0	8215	505732.408913696327	6483.4443653841
0	8229	506038.027981776489	5967.8043891805
0	8234	506068.172203330617	4780.9456822161
0	8242	506135.736056930603	7310.4222523647
0	8247	506669.587169979356	7859.1986112487
0	8255	507004.204252770403	1872.2148500158
0	8261	507042.240716792781	3486.3313885332
0	8266	507395.274686911917	2353.6346207154
0	8277	507809.205620940924	4895.3693807787
0	8307	508880.995352923483	5051.5406987836
0	8317	510531.636418629416	5098.8413924329
0	8329	511730.757368075668	3335.185967591
0	8360	513446.148195844939	5733.3283076301
0	8369	514556.620682421792	5990.9644799972
0	8377	514796.524233281961	3462.031536044
0	8399	517445.917434153198	4559.5083724217
0	8421	518250.491725144572	5293.8036354933
0	8437	518591.148115556818	549.17046773923
0	8455	520178.466085397174	3669.5482010947
0	8480	521753.457703812485	3407.7795108819
0	8506	523350.081959781995	2237.2180822761
0	8514	523833.545084323921	4242.5674463318
0	8523	524175.047693154496	2827.6508588956
0	8541	526731.331426826889	4694.157074932
0	8551	528515.127027694753	5671.05950565
0	8560	529277.431339193505	12244.795355055
0	8604	533902.12412310768	1743.9197881649
0	8634	535502.05689661073	3335.2634976456
0	8661	536904.536153128498	4068.2329746065
0	8666	536905.283537767065	10662.028108554
0	8672	537151.892729565922	1890.4986537388
0	8680	537898.050773487026	6811.0165658704
0	8689	538391.540884680097	3061.770457996
0	8706	539698.066978922381	5624.7379855519
0	8724	541057.025168870261	5618.5703571848
0	8766	543049.385928876027	2384.5514688094
0	8774	543443.027424573419	1835.5426552823
0	8827	546478.033019659876	8012.8290368763
0	8852	547727.238692718805	5535.4359413626
0	8863	548261.210430394728	4765.8298766017
0	8880	548647.193696150071	7570.8240122336
0	8900	548881.969239751648	4579.4165474741
0	8909	549046.50886595373	7402.4389027884
0	8922	549550.452849919544	4482.9361918119
0	8940	550553.848936582025	4150.4477847095
0	8955	550692.318762530473	3045.1335981735
0	8960	550806.792826491789	4772.0329796915
0	8972	551285.211959624967	2686.3951913331
0	8977	551390.297862430242	3110.3795345194
0	8986	552257.600937051298	3360.040646979
0	8991	552400.26455033917	4016.9691982663
0	9009	554875.990610824064	5038.6935037771
0	9022	556064.496159928445	6235.6163303344
0	9068	559477.337559273589	5309.7123535589
0	9079	560055.650478500036	4102.5497157983
0	9100	562130.180445439252	5172.8722018909
0	9121	562894.269323463338	2627.7111064946
0	9137	564324.696802692179	6612.2040995679
0	9151	565163.344519381863	5751.5828322981
0	9177	567435.144564822219	2931.995124659
0	9185	567739.826143978182	9150.4598893664
0	9191	568321.34412474217	5009.9754879216
0	9200	569237.641375280555	6816.7143661199
0	9208	569629.190266156894	7982.7934227473
0	9237	574381.91183236011	7742.7512860843
0	9271	576077.647767214537	5037.347014601
0	9279	576354.205572487555	1235.1408339511
0	9297	578511.085085352733	4981.1027639873
0	9323	580276.351032793962	5059.4101644959
0	9380	583870.346580499325	8427.4454178114
0	9431	587192.430800872336	5227.6392696222
0	9439	587704.878852277831	9863.8399526451
0	9453	588185.97930269589	5452.8446765333
0	9458	588328.87001882772	7880.9934807585
0	9463	588340.527444897861	5420.7260966648
0	9471	588692.955550844653	9588.5828435184
0	9476	588736.549121150957	4600.0327911814
0	9481	588796.521945582423	7191.2234396172
0	9496	589437.388551381302	5001.5577607411
0	9512	590021.633314399237	11096.659256332
0	9517	590328.508468226088	6789.4783401483
0	9525	590787.2324054007	3442.3986733475
0	9616	594909.557767127494	6102.2060597736
0	9621	594994.791147348531	5899.8410537374
0	9627	595170.530755754378	3369.5646058731
0	9632	595181.138852261619	3296.0849984689
0	9637	595478.10087636997	4138.3982753413
0	9646	596133.620410441545	4379.7445734369
0	9670	596996.714371473652	4313.3661809645
0	9688	598422.463696013867	5781.5181244798
0	9707	598841.651448641789	3251.5527560772
0	9729	599427.090064999734	2905.3046482266
0	9737	599567.534879557464	2591.8486295694
0	9750	599654.447111811914	1397.371896913
0	9785	602160.68190789878	3452.1625845952
0	9809	603960.952922494533	4502.1925311458
0	9856	605642.729926683078	13572.581935905
0	9861	605696.915404507827	6685.8325269102
0	9866	605733.317291736758	5906.2498917934
0	9877	605873.422289885297	2091.6412368766
0	9883	606175.681324296279	5428.8165051195
0	9888	606197.967724384885	14378.457451178
0	9896	606320.705868203919	3356.47490788
0	9915	606762.129724978223	2893.6541556133
0	9934	607329.144489025123	1110.6908899434
0	9943	608435.612203731469	6840.221174398
0	9951	608834.777640996175	4090.0124564975
0	9976	614591.976419504191	8027.4712303674
0	9981	614840.447524387939	10665.694467501
0	10009	618022.683003106804	1866.728505561
0	10024	619134.162301262263	5968.2225823363
0	10059	620324.899189683636	1177.7167219585
0	10071	621222.918896887727	3430.0287324549
0	10076	621414.800012269069	14867.62056041
0	10094	623561.0074814205	4385.4995229601
0	10102	623806.271849083423	5012.0665157226
0	10132	629161.304672822474	5826.0313265075
0	10149	629895.897020653037	11348.256896632
0	10166	631030.923077263572	6846.5252337049
0	10177	631612.915323083224	2287.1792357913
0	10194	632863.194954597309	3134.1689506562
0	10214	633761.754709658936	2605.969882761
0	10245	635734.546060259614	2026.3561621947
0	10267	636639.53469689146	2936.8100814344
0	10332	639524.353451538307	5390.5565650161
0	10337	639700.689968410302	1634.3323563579
0	10342	639908.507475986554	1808.3974283249
0	10360	640748.616408104753	5242.6391215134
0	10365	640963.416592722559	2586.2996125484
0	10371	641016.864433382771	8314.1998147757
0	10376	641047.34301033288	3132.6669263262
0	10387	641226.705759123386	5466.2460745188
0	10400	641482.400266384191	2595.021845256
0	10442	645565.699606302146	4370.8899954962
0	10456	646500.878736544671	4823.8017987163
0	10490	648269.974404580379	2947.2941325006
0	10498	648348.047529883797	5952.2684016221
0	10503	648468.536215382698	1946.527931411
0	10514	649002.87573407822	10380.369792096
0	10523	649208.221800061607	2949.5726091132
0	10528	649453.444601985952	6607.8094224333
0	10565	651705.881395259979	27376.683183739
0	10588	653378.310314873743	5959.0635065584
0	10596	653569.943880774738	2475.0410438236
0	10651	656872.153681930273	7418.3011263143
0	10656	656969.652164969363	3384.4810349095
0	10665	657285.486927094388	3699.685267969
0	10670	657289.837810499731	6475.1977412421
0	10675	657612.276593048033	4016.8290541834
0	10683	657852.476411823276	5378.7065691521
0	10688	657903.80761872965	6220.7964484112
0	10707	660658.407898049814	6403.7408640403
0	10742	663308.973625532021	2212.1596750252
0	10783	664885.025506837098	3726.759327318
0	10795	665606.46362824134	4542.309655926
0	10826	667830.190499303977	3601.645691189
0	10835	668166.397675879314	4585.4467186491
0	10843	668296.663515601755	3061.1835255375
0	10863	669363.86199706762	3051.9470102736
0	10876	670007.135937227021	5895.3562121645
0	10889	671177.090162990195	12209.631779796
0	10894	671273.279676940639	4975.4483037113
0	10903	672200.62677389642	3310.753717141
0	10927	674770.227019520561	5440.7518864746
0	10987	678258.863887611197	4032.9814339478
0	10992	678372.038431636328	14812.35458957
0	11000	678753.727705445854	5737.0824196359
0	11014	679128.300047087085	3061.8064085191
0	11022	679232.957611303134	2281.2977352179
0	11062	681329.620018820979	6717.9555034745
0	11082	682135.080391364009	3504.6912821843
0	11092	682253.702338131168	6360.9632912467
0	11097	682310.449969689469	2990.1749646224
0	11128	683882.009629355704	4283.8155639229
0	11142	684776.357427915621	2382.0863386857
0	11154	685197.208965208584	8920.0486416484
0	11164	685574.548121369963	4487.7308360287
0	11218	688270.86287875594	4440.3757812913
0	11223	688323.960078128651	8651.0135578839
0	11254	690107.598121914716	3741.281094066
0	11328	693145.897618894347	7303.4511595606
0	11333	693202.759229180401	10694.630287507
0	11341	693314.037067026244	11465.58425643
0	11349	693399.300514935455	8520.0767085916
0	11354	693419.378757134892	7402.4074821163
0	11359	693464.922648599132	1196.3721043857
0	11364	693478.082656635876	3534.9142456258
0	11372	693698.203513143249	4206.3935248445
0	11393	695521.368367904067	3847.4756978937
0	11401	695726.615147092891	4936.4054990947
0	11422	697281.400681972772	7994.9212406633
0	11439	698403.981096461185	6580.9361987148
0	11444	698543.559096940199	7884.575150266
0	11449	698593.853495328574	3042.5711041782
0	11457	698691.558863605747	5845.2128306871
0	11495	700718.700392434986	6231.8075133851
0	11585	704317.231715467098	4084.7751208124
0	11590	704730.042315559407	18421.551848217
0	11595	704732.127069961449	4389.723633147
0	11606	704982.430563911237	17735.485371291
0	11615	705414.36019608697	3550.5668322281
0	11620	705487.632682792049	4531.6000348278
0	11626	706277.727397115586	5779.3740385652
0	11641	707025.256140558643	4720.1268885162
0	11649	707376.693811359133	8005.0177930849
0	11668	708188.740947719043	8927.7960772524
0	11673	708317.875346845844	7556.302658555
0	11678	708490.280517186797	11894.891999632
0	11683	708497.976995735629	7843.9420021611
0	11726	711884.409456020157	4537.5372113647
0	11735	712648.529680359285	3699.4958800331
0	11744	713589.899491486709	6159.5085756384
0	11766	715081.628488877124	12369.239013059
0	11817	716990.174640677721	6472.5217164609
0	11823	717051.298019353404	6487.9233768144
0	11831	717260.884005251314	8401.7163665312
0	11883	720141.134411279409	4376.1239265517
0	11897	720691.149657105328	4185.9670409153
0	11908	721155.185176405267	6105.515459246
0	11913	721169.309902372108	5155.8670320847
0	11918	721315.620912547432	6583.0302038098
0	11923	721381.854921010776	6409.2063246373
0	11941	722135.32982059195	3860.5037548788
0	11976	723495.147876307506	3796.6524087581
0	11990	723921.317226630443	6812.0175419746
0	12030	725075.540288543742	3300.6313139172
0	12038	725609.755907389066	5280.4004858086
0	12049	726227.515121053002	4156.8937969501
0	12054	726257.994012612421	8105.9242961573
0	12059	726394.507293086747	4047.7179836466
0	12064	726595.099607634492	3075.6670314887
0	12069	726814.223528233202	5150.158014857
0	12087	728753.441358558233	4603.2436861799
0	12095	729002.612019939376	3459.3586076174
0	12120	731457.558006972986	6932.9808399524
0	12165	733081.507753926538	3306.0267774949
0	12184	734183.979641018898	3789.2261409515
0	12189	734230.972933306868	7149.9115364139
0	12197	734617.200100683025	2760.6176763124
0	12206	735440.823805262838	2749.2632366348
0	12215	736749.703826577479	5860.7240637494
0	12253	739340.61623651158	5964.5365988424
0	12258	739519.538954971299	1703.9912543644
0	12290	740428.827220385016	8888.6020746709
0	12322	741926.250971238006	3484.6620815645
0	12328	742056.04005117823	4998.9315219114
0	12333	742520.675345436911	2309.8704238287
0	12348	743404.1478664728	3583.5577200775
0	12391	746208.888470579402	5968.1286343993
0	12399	746618.551939140271	6286.9038392858
0	12409	746758.518283808842	3515.5059025766
0	12434	747636.388381369399	3770.8881544647
0	12443	748294.473534456769	8099.1366041025
0	12455	749073.382712237888	3990.2412705109
0	12460	749118.873683405511	2860.9537081571
0	12476	749372.421027032606	2103.5208975301
0	12496	750647.426241709399	7174.5186170161
0	12501	750733.028447146868	3593.5782650543
0	12521	751755.096148290907	2340.4337553581
0	12583	754024.5473761979	2371.1518252413
0	12591	754250.41319665425	2977.5461741996
0	12666	756589.203677941153	4586.0356029257
0	12677	756875.823910724117	4306.2165094491
0	12716	759745.133067412794	10451.470566135
0	12725	760088.809109924825	6888.2740086042
0	12743	760636.016117521384	7370.7570349531
0	12748	760692.948360119116	6174.9041419439
0	12753	760860.660550886036	6227.8414645495
0	12764	760972.598301009025	5405.3348670356
0	12786	761783.911592268251	7680.9328002336
0	12794	761958.925169014127	7393.4714757443
0	12819	762978.204552419076	9728.8051907874
0	12845	764236.072849215199	9226.5518505656
0	12850	764356.554530244237	8006.6057994882
0	12855	764477.308059596228	6899.2817543061
0	12860	764847.607246470623	4690.8867553043
0	12868	764928.479489830625	4994.4557174238
0	12915	767641.625418149732	6731.969246616
0	12946	769306.830840969531	8415.4837749425
0	12951	769606.505823436386	7470.4108851078
0	12956	769616.837537180529	6835.6285610111
0	12964	769968.063209788941	6501.02006138
0	12973	770016.594586547693	13345.300094475
0	12981	770271.625359680308	5379.8781626074
0	13014	771108.459325318287	9302.0976831046
0	13019	771310.206793719378	6184.6365188914
0	13024	771707.091549228619	4381.4605550201
0	13029	771746.124985855343	1493.1947150179
0	13034	771755.369176686523	6824.1110789635
0	13053	773206.460713193639	2921.0260322378
0	13086	774512.725323976614	5716.9023915675
0	13091	774971.824109290387	7499.4477947548
0	13097	775109.876875387158	4577.1678236696
0	13102	775175.176552150485	1982.6114376074
0	13162	778919.558384116822	5687.4161106826
0	13173	779158.509442906853	3419.4475874015
0	13181	779202.841028645674	3500.6524680823
0	13203	780216.63782520708	4019.3817273829
0	13219	780389.124158780152	4557.4943958115
0	13231	781819.273390655189	3241.6511668164
0	13237	782140.136861100051	4633.6315722868
0	13245	782639.172266575415	3457.4333376476
0	13258	784159.839366930871	4879.0313640575
0	13263	784226.117879436101	11441.107540126
0	13282	787434.646241026446	7183.1365541437
0	13308	789314.834491515219	1362.197273526
0	13327	792175.56643874563	6456.9238087467
0	13354	794055.570835280832	4575.0414593895
0	13409	796991.56332396978	4263.0440477906
0	13418	797289.359022058	8416.6739203866
0	13426	797343.418387340148	2907.7401216945
0	13431	797836.337872634136	4537.8263046771
0	13437	798032.743022649633	3040.0862562075
0	13462	801452.45776149092	5432.0338185901
0	13475	801969.944740274525	8422.4118791666
0	13493	802851.711672657213	8823.0009516655
0	13522	803754.56205762265	4132.6489945668
0	13542	804899.333574068603	2372.3531503117
0	13559	805506.861270776385	4376.1896377542
0	13591	807151.053112885997	2676.6209695599
0	13609	807483.219449698177	4562.3899335884
0	13614	807582.357892479942	5129.2670975534
0	13626	808146.729478910994	6023.8543417016
0	13665	809725.990999065756	4888.0976795115
0	13680	809950.810993212644	4807.5243479364
0	13701	811084.132632877756	2530.6928384144
0	13730	812262.948812058444	2980.1293961866
0	13755	813055.071099779793	5163.5517624415
0	13763	813203.467823069456	6578.8332146086
0	13776	813737.320938731163	4030.0634689359
0	13781	813743.199151658293	5025.8928433135
0	13796	814055.292281121624	3879.575928056
0	13819	816279.2325285174	9164.7706879765
0	13830	816908.708038405346	9993.4151445433
0	13846	817986.887745442176	5793.4343113139
0	13855	818142.788582617836	5949.8764072054
0	13865	818199.566417363992	7130.4097986316
0	13873	818562.988142074328	4079.4229941156
0	13890	819651.33524675992	5771.951435924
0	13910	820279.896686020837	7123.7980233166
0	13918	820438.960623415203	1137.9785821363
0	13940	821878.550934690459	5279.8106180593
0	13949	822208.824735696636	5443.0453698683
0	13982	823192.366202451456	2523.5261072726
0	13990	823680.837837501897	3370.8148473947
0	14005	824540.85378027212	2043.160508235
0	14067	827625.989084732618	9576.4578231191
0	14073	828641.096488839856	5870.1193265313
0	14078	828695.596437415325	4654.4165761874
0	14083	828860.681851940361	2186.030744641
0	14092	829252.974168679085	6253.4025840351
0	14101	830419.475148838189	10622.833412131
0	14110	831633.952212166941	7279.5573121958
0	14118	831963.445159952887	5183.8154979464
0	14136	833154.002753084005	8449.9494256711
0	14157	835121.684805088366	2834.1684844609
0	14162	835153.355628305832	8076.7396499884
0	14192	841404.294430935988	4306.4132110453
0	14205	843259.467645433987	9720.4751312067
0	14219	844332.566946199318	5826.7234613229
0	14244	845822.450143525833	1477.1475397406
0	14278	847950.919505677751	892.03958592165
0	14295	848486.989815025976	5598.9049895787
0	14307	849369.103175964128	2622.5867873825
0	14312	849518.814064851164	4985.1966062729
0	14322	851298.359427845037	3955.1759709943
0	14366	855480.419675578537	7200.9110191099
0	14375	856343.032271674819	3016.8157458688
0	14387	857263.434836036136	3741.9852567628
0	14392	857328.271516798257	2997.9297773999
0	14503	863920.454592106701	3656.5030753794
0	14520	865007.109842839604	5518.4216899705
0	14534	865465.542613931747	10472.330609784
0	14539	865480.64801644868	6118.6169261759
0	14544	865495.38554803434	2069.7873513554
0	14555	865734.152314959193	5038.8493956087
0	14560	865836.825038308783	7047.4284975428
0	14569	867006.767003529494	4690.0767398081
0	14588	868269.933860249715	7878.8663605638
0	14640	869715.806561981488	8601.825050917
0	14678	870953.898617513339	9072.5902640544
0	14683	870993.028322277713	3142.490473116
0	14695	871292.910976402629	2678.8509589583
0	14703	871527.015095043239	2671.6229449085
0	14730	873754.411643921312	3729.3734914303
0	14768	876100.983013545861	15476.786130901
0	14773	876549.959785812492	11882.586553815
0	14784	876952.230282631016	7006.3206625545
0	14798	877202.623359544958	9023.8382775113
0	14803	877233.300964215606	7991.8946215944
0	14808	877690.71055215951	6287.606173763
0	14813	877790.995296525543	8277.8128144475
0	14818	877807.497384706646	5663.9041356204
0	14823	877841.254599669254	14729.419327821
0	14829	878237.389453668518	7640.7060834437
0	14837	878497.822152400267	5453.3492016796
0	14882	880247.826027298786	1444.813206563
0	14887	880312.203048331279	1067.1483692302
0	14922	883189.417105077116	4392.8532303502
0	14930	883310.811760137878	7870.2596394424
0	14953	884768.300391700953	3130.074848934
0	14967	885290.501131630104	8646.2288401624
0	14975	885548.256668423232	4003.3390684945
0	15003	886810.832007165396	4817.2417836707
0	15017	887299.548224027903	7955.9513933814
0	15036	887758.716861899712	2146.6041203065
0	15046	887808.395675531221	1039.2706243134
0	15061	888610.717144861179	4197.8922386945
0	15095	890729.871870610696	3488.2874878304
0	15110	891106.923301394555	3557.1897947532
0	15121	892312.228738716104	4184.4581402115
0	15126	892331.734922288063	8296.1946125141
0	15131	892661.519860353596	7129.1675664532
0	15158	895639.815342442945	5598.8711139404
0	15180	898171.28969702147	9810.6418475372
0	15202	899370.487521687739	1442.496170737
0	15238	900858.226116739406	9942.4573822135
0	15247	901190.802504863154	6685.8419300982
0	15252	901373.744892061007	7829.4974012267
0	15289	903403.973385204382	4805.7684913064
0	15294	903555.188723225012	6615.5935470292
0	15303	904024.248253787512	3653.2215429778
0	15315	905109.528982288664	3019.7324487207
0	15323	905970.957237874154	3387.8678487937
0	15329	906117.756809887422	5849.1609272773
0	15346	907365.899942660637	7984.9751563961
0	15389	910276.478079471297	1471.9646364444
0	15397	910789.846179951925	1282.0249036863
0	15410	912309.735801827814	5349.7683367612
0	15415	912640.055074281855	4337.5655807915
0	15448	915896.013279457133	13184.120390755
0	15473	919527.726355648101	4368.4633702356
0	15487	920342.465480698317	6468.7244834743
0	15510	921446.49738061986	11653.975319751
0	15516	922042.864594100634	6705.4844646206
0	15524	922490.145179621639	3251.8638858318
0	15547	924778.696251892425	4195.45134497
0	15576	926307.660387005304	4087.3129761604
0	15592	926700.437346887883	2461.9873015106
0	15607	928757.528982378031	3109.0923572978
0	15616	929090.691943714245	15992.576805558
0	15652	930704.89393352955	5701.7864807702
0	15666	931367.335540028837	4772.3242255162
0	15674	931427.985531402508	1398.3352162501
0	15682	931782.655233378983	2578.1316758252
0	15691	932293.752447550639	6079.0518835614
0	15710	932842.826784669369	3157.6242997465
0	15715	932911.635034592385	2240.2868759527
0	15751	936499.598146672027	3399.8106142894
0	15797	939354.468424521542	5935.163754549
0	15830	940442.077499994633	3543.9442767047
0	15835	940460.920514057134	1772.4333646233
0	15843	940922.444452613412	1063.4051202535
0	15875	942914.316197317274	9222.6228939904
0	15881	943042.045691007379	5019.104260709
0	15886	943339.644190205338	4093.8199295198
0	15903	944600.358785523532	3641.2815731947
0	15934	945853.252762649124	7204.2268289996
0	15939	945869.124037002385	4758.8543610844
0	15944	945905.695722894155	2381.5981509966
0	16023	948945.285948104941	16600.838409025
0	16029	949049.636235276189	4388.2975153086
0	16034	949403.908047130498	1933.7286310801
0	16039	949528.360944886361	2488.3616202763
0	16050	949917.756067629126	2357.2435687726
0	16056	950043.033306123035	2757.1335112203
0	16061	950193.358780926338	2279.1919293736
1	1276	72383.424315782697	0
1	1293	73325.345353219245	0
1	1301	73595.779453399907	14.396421342511
1	1337	77344.528115934632	0
1	1345	77798.888872406224	107.95879690711
1	1363	79372.390392095217	0
1	1379	79839.156644219067	292.62869700839
1	1388	80553.489527510604	649.65294467011
1	1396	80941.28177447645	147.00760260629
1	1415	83715.621131207235	0
1	1424	84658.87642537609	0
1	1461	86227.492660308553	138.96702201304
1	1501	89530.887586379438	0
1	1509	89882.289281132677	18.737422740762
1	1518	90724.403172890072	0
1	1544	92990.143209615192	0
1	1553	93960.380550250235	0
1	1562	94540.754253285049	0
1	1570	94746.020382351069	0
1	1594	96021.463088110331	503.27152823744
1	1602	96196.973940694943	295.16353964519
1	1607	96402.171668184709	243.00799571243
1	1646	98643.192807487295	129.68586372122
1	1682	102139.014396169519	0
1	1690	102433.046087647626	0
1	1698	102632.576661941545	0
1	1718	103638.491815703085	54.041203791984
1	1730	104561.057056197542	616.90045948427
1	1738	104936.72081729923	271.22497668156
1	1767	107511.76492842619	0
1	1793	109017.938218365794	0
1	1819	111098.727748472811	0
1	1827	111220.541620182545	0
1	1836	112840.127835485839	908.96825550047
1	1846	114695.27442582398	0
1	1863	115954.048377679267	67.41407941483
1	1875	116308.689651969436	185.29819952986
1	1923	119309.639743068953	0
1	1935	120095.813222422979	403.30149017793
1	1943	120305.75557654316	64.421740626186
1	1958	122887.0542804101	0
1	1993	126445.655227477512	2589.4711856402
1	1998	126731.320964642272	1645.4143988041
1	2003	126946.326523655177	1464.6008046363
1	2009	127053.397728871058	680.47361811332
1	2028	128040.416916971266	0
1	2036	128074.426968192908	0
1	2069	129937.693612660942	0
1	2086	130744.702875074754	5.451386452051
1	2094	130897.694948007401	0
1	2119	131179.815283072424	67.135232505736
1	2154	134922.976822072311	0
1	2163	135439.57138326394	456.82647964249
1	2171	135971.10375840773	0
1	2183	136656.363150308706	627.80530206533
1	2197	137133.114180205099	0
1	2205	137512.413489211481	152.56361762559
1	2254	138239.29352061073	57.032493950104
1	2262	138583.913512698445	16.48463864463
1	2271	139335.529864884708	0
1	2279	139428.933506608206	0
1	2296	140173.438324050954	34.704329958237
1	2335	141855.890035414991	195.87000987706
1	2372	144357.906139704183	0
1	2382	146398.949571009511	0
1	2390	146566.553242888768	0
1	2402	147117.897948855781	86.056166593582
1	2443	151459.918099765145	38.249535633592
1	2451	151988.992085233618	0
1	2460	152336.491453847822	0
1	2468	152892.071636894185	156.5958349292
1	2487	154531.04212817536	1025.2921340103
1	2492	154690.790109665017	718.57962669115
1	2501	155859.684920747758	1416.8340159772
1	2545	157178.882687135598	514.78737748422
1	2571	159361.429583759949	1153.8572255085
1	2590	161544.857344044348	2052.3528394181
1	2599	162033.411947460616	2196.5676988548
1	2610	162755.740952154903	2785.9571065663
1	2615	162823.135746606836	2645.028374098
1	2624	163049.747196253483	1019.1220698547
1	2632	163449.562905579506	1083.8935509699
1	2662	164065.281018473361	8.727429201098
1	2674	165510.728165864907	1121.6206187792
1	2683	166391.17093971489	1000.9021972108
1	2715	167145.896794105439	0
1	2723	167872.857762983714	0
1	2732	168245.006039308065	0
1	2754	168669.09090054742	214.43880100947
1	2781	169115.366173026361	0
1	2789	169597.220590252451	0
1	2816	172019.261844923086	0
1	2827	172876.399421980493	184.32592230816
1	2841	173101.744911569974	38.448943278962
1	2855	173506.833187960432	170.6109130023
1	2860	173642.880638306155	148.77767969473
1	2872	174376.369389590774	370.51347225089
1	2916	176239.637304168238	80.254144774308
1	2933	177204.154735415304	0
1	2941	177900.47722923229	0
1	2950	178567.956233619521	0
1	2984	180705.750388804418	159.45283822549
1	2993	181239.557752842412	0
1	3040	182882.041484139748	163.47861785854
1	3062	183753.588406829923	260.7447637122
1	3076	183973.13859321038	466.38632822004
1	3085	184121.791864397227	248.1804923973
1	3096	184627.51598352587	725.00351567853
1	3101	184882.652147204771	921.02407775722
1	3107	185080.858291662152	997.63066170986
1	3112	185213.418276431084	731.61083937712
1	3135	186260.640625729905	132.28942155895
1	3175	187486.06278383362	0
1	3184	188307.839676418173	0
1	3196	189611.592835681887	454.92818901051
1	3205	190514.412688459677	261.11659391578
1	3236	192303.329544874363	0
1	3251	193078.650230624966	620.20115357391
1	3256	193112.33531683792	326.03181731808
1	3269	193446.570514104615	112.49186974807
1	3303	195878.25614777811	370.20975442446
1	3320	196667.418805828389	0
1	3348	197758.334300651223	351.86934474409
1	3357	198394.713314348879	951.45067035135
1	3365	198540.694184230979	676.34972827566
1	3380	199384.022756145463	623.66109320109
1	3388	199562.400591485789	737.79725684234
1	3424	200471.096984574496	326.87251043124
1	3429	200482.283805899171	219.24859061652
1	3437	200590.803854272688	34.074585415311
1	3505	205164.342929243719	0
1	3513	205822.821097362883	552.99573360163
1	3540	208772.338155394192	0
1	3550	210599.598131209826	0
1	3577	213180.162135019207	0
1	3585	213725.939920037509	0
1	3593	213846.098171999832	0
1	3602	214684.30328036129	0
1	3611	215425.558405596843	630.3509405376
1	3622	215669.408098071488	65.307385976378
1	3631	216166.181149820149	465.4374483984
1	3649	217266.435656851582	532.87653995695
1	3658	218667.508502235885	889.17354747508
1	3667	219033.025529236759	122.7500748733
1	3693	220267.964071654647	779.82354576007
1	3698	220394.673818192707	851.72894593822
1	3703	220442.255894682526	443.51943575826
1	3715	221374.019976303068	109.59684054
1	3733	221782.509017122447	184.31743019692
1	3741	221972.03907900408	33.95068467764
1	3778	223871.69730508494	52.190765556847
1	3798	224729.216970323091	529.0498771505
1	3818	225852.9497712666	19.726242485025
1	3849	226547.362449407373	87.107593629214
1	3863	227124.48071834948	168.93401043849
1	3876	227732.175355653726	199.48523442508
1	3918	229433.773942009404	188.16405388017
1	3926	229843.580367506357	525.4841224241
1	3932	230304.021756997518	886.37082424854
1	3975	231284.93597670657	560.75230081977
1	4004	232241.159917699142	0
1	4029	233785.866164881116	549.82684398202
1	4037	233860.996003226841	7.964471037802
1	4054	234974.944726553917	0
1	4072	236684.052414070024	0
1	4089	237506.718740158459	0
1	4097	237701.696837655845	0
1	4115	239627.575473318257	0
1	4150	242087.634302752504	0
1	4158	242501.218102456924	0
1	4175	243086.574947751436	0
1	4184	244008.021051201704	0
1	4195	244300.103211584427	130.1808513499
1	4235	247894.725397734379	0
1	4247	248695.792946459181	504.53608333799
1	4255	248892.868843270152	433.63376760332
1	4270	250163.747493087677	0
1	4278	250254.378613299566	23.052737660448
1	4294	250846.372861697899	0
1	4302	250988.957440166613	122.20538817574
1	4336	252275.072016389674	240.38219598787
1	4357	254285.180668370409	1033.018164451
1	4365	254304.11697962679	807.17289490622
1	4378	254800.008512549324	0
1	4387	255803.007046818235	99.857148636446
1	4404	256182.534838153997	0
1	4415	256660.329840621293	79.330559893515
1	4449	258099.10197075258	259.62815635183
1	4479	259985.036125268128	0
1	4497	261923.980154036688	0
1	4525	265306.705390137153	0
1	4534	266374.531848439434	0
1	4561	269039.137427822957	163.92822760629
1	4569	269912.459788066565	0
1	4587	271674.147604052537	115.0946393124
1	4596	272482.072538838057	0
1	4606	274870.622166862561	0
1	4624	276771.898932305006	978.04155838778
1	4633	277272.547328455722	0
1	4658	278793.076050160921	0
1	4676	280607.605666461071	0
1	4702	282955.280367686844	0
1	4711	283286.06172005828	0
1	4746	286945.057971624249	0
1	4765	289245.064601563279	0
1	4775	291120.34413701614	0
1	4792	292021.956100726918	0
1	4801	293272.810435375522	0
1	4809	293483.517658603171	0
1	4843	295148.52897509528	234.60904930267
1	4877	297423.832226726928	0
1	4894	298426.374235462701	0
1	4903	299426.362358051534	848.25747668839
1	4911	299901.821332176215	377.53925320583
1	4928	300739.475681520739	0
1	4946	302878.1936096575	8.731523273489
1	4963	303681.054571428743	0
1	4975	304033.686132636683	178.71064240167
1	4988	304164.064142562682	0
1	5005	305264.624478663812	89.768773459513
1	5013	305584.016698506767	0
1	5049	309267.418206465883	0
1	5065	309967.95482074445	0
1	5083	311936.58212124663	0
1	5093	313391.103856431884	0
1	5102	314770.430882635886	0
1	5123	316522.843979709206	88.675513062011
1	5137	317328.577720605899	0
1	5145	317660.759065783377	57.860279953012
1	5154	318127.897277499294	0
1	5174	318596.96799982857	169.68327900234
1	5179	318817.901175907634	373.06069649528
1	5200	319574.299733624243	713.12066207223
1	5209	320049.125270822851	1179.9696743439
1	5214	320219.462037220777	1126.453895078
1	5222	320383.18342480627	977.68201660347
1	5244	322904.217346947514	3275.1157313321
1	5256	323054.450589150021	1440.1960875505
1	5261	323106.95832269608	1063.6441826141
1	5266	323671.241576770528	762.28388033337
1	5292	324931.992585549613	233.03598356509
1	5298	325035.284710078536	220.82877658464
1	5325	325372.857701764648	153.64669240548
1	5330	325736.882588562168	391.68777438102
1	5335	325955.286003713925	590.33929192341
1	5347	326532.988987101361	244.4807237078
1	5412	329275.456091753467	38.79243057345
1	5445	330736.301920165797	562.33250226736
1	5496	332693.077652335096	0
1	5505	333100.04093078963	0
1	5513	333199.427782636808	0
1	5521	333616.616607705337	390.96660188233
1	5530	334086.993777193029	0
1	5538	334408.70300667771	0
1	5578	336886.773484396516	616.11463761182
1	5590	337077.854980547767	99.457249891074
1	5595	337129.414819012377	84.185047107127
1	5657	341706.258897166488	0
1	5666	342230.472175737748	0
1	5674	342404.559715264714	7.897296358025
1	5683	343033.508820105547	0
1	5715	343869.026395533241	0
1	5735	347552.520924586288	0
1	5765	350087.428287168432	19.3707507702
1	5778	350692.889785333041	0
1	5787	351672.99725254018	0
1	5802	352668.780695475133	922.43326579332
1	5828	354271.732348697325	466.4886806242
1	5846	354936.894400909767	425.55091942638
1	5855	355172.065618080961	0
1	5871	355808.150580599329	262.06792145093
1	5892	357386.235653565681	115.21998475356
1	5923	359938.263862480495	0
1	5934	362474.213575096667	0
1	5943	363837.655756705678	0
1	5973	366341.176765874635	77.032677494592
1	5982	367472.840565037421	917.80051781893
1	6015	371952.4673419764	0
1	6032	372794.434960471512	50.082911641848
1	6059	375260.358820043683	288.77404285436
1	6077	377850.906098152223	0
1	6086	378069.973761251148	0
1	6094	378528.861580086551	0
1	6114	379265.077562493937	265.72591626244
1	6119	379266.409240126645	156.14986889838
1	6127	379376.934296645828	0
1	6169	381860.47068633604	0
1	6178	382050.257343921176	0
1	6186	382080.388237642475	0
1	6194	382602.952377490204	0
1	6202	382973.263801624139	196.4433001549
1	6219	383683.162254107398	0
1	6254	386606.620399000922	271.74688350973
1	6287	387707.809888863307	0
1	6296	388766.603063227308	0
1	6323	391673.475864491145	0
1	6343	392474.456653776389	249.30633159984
1	6348	392609.76958829476	371.80041604432
1	6363	393139.741372838424	198.89579536485
1	6398	394818.357886333543	0
1	6406	394946.996867093965	127.79162781311
1	6415	395835.518384934822	0.308680667163
1	6424	396259.150919906233	0
1	6432	396506.587860988035	0
1	6458	398431.407393987174	0
1	6467	399042.895882535052	0
1	6500	400142.703037298673	0
1	6508	400266.411216678662	2.647481293317
1	6534	402183.114693264754	0
1	6550	403003.628713674408	32.699115876193
1	6559	403336.174543120911	0
1	6567	403447.700260087962	0
1	6588	405709.013525507258	387.01740350874
1	6600	406282.170653152287	572.68254991308
1	6634	407317.20124500241	291.49681969336
1	6639	407478.951643244867	343.76087071341
1	6645	408224.243765623334	1076.7303737556
1	6659	408981.327208236891	1679.5049994699
1	6665	409106.282582654496	630.11787320385
1	6670	409148.385300320077	262.96633153175
1	6702	410185.705575452299	0
1	6724	410840.87806024732	139.23294927672
1	6729	410844.843037227709	97.424468053269
1	6743	411366.002622231672	0
1	6785	413402.434610786879	6.455048544473
1	6793	413757.893043050305	0
1	6834	414995.05394683288	0
1	6843	415950.963220197109	0
1	6852	416400.019006229995	283.86850683832
1	6861	417227.484124197185	0
1	6877	417510.434039793302	73.579034922306
1	6902	418578.456320988928	0
1	6913	418706.524985044521	4.34170862987
1	6927	419419.291830804055	0
1	6938	419693.603213657568	234.27435746801
1	6977	421832.003553204999	48.813982581468
1	7003	423411.358240964671	0
1	7012	424780.976980029199	0
1	7022	426865.547847630833	0
1	7034	427772.671763140192	477.90348952973
1	7058	429071.102986838354	419.75747251302
1	7063	429184.01485572704	465.12788126426
1	7098	430716.379982323588	0
1	7123	431401.075473688672	338.2993191431
1	7150	434962.949334901822	177.1133779973
1	7168	436024.027194374742	0
1	7186	438214.274754406036	0
1	7197	438844.802953858268	287.12097818015
1	7203	439038.015310123874	361.76602813004
1	7211	439964.229281678063	0
1	7240	441572.487266356222	79.588855602458
1	7253	441758.76128207101	0
1	7280	444510.937081620047	0
1	7314	446763.165428754588	16.135116667209
1	7323	447128.851052247459	36.320255029407
1	7331	447239.434405554953	35.320231583129
1	7347	447676.898915009988	0
1	7355	447981.319875338486	0
1	7375	448664.117342068803	383.0047181092
1	7380	448771.837655017737	251.42569546672
1	7388	448831.087266541734	0
1	7408	449476.79514442577	348.07308434202
1	7430	450358.144710728866	59.837862801294
1	7483	455200.827713541294	0
1	7491	455305.556516285748	0
1	7500	456115.009367146977	0
1	7508	456706.337262871876	0
1	7520	457281.890391542856	369.36216234703
1	7529	458101.569940216329	825.55780760771
1	7560	460548.194498074107	0
1	7572	461076.014350314563	231.46564341995
1	7583	461505.01200206507	199.60801324323
1	7620	464086.105248699611	0
1	7634	464823.308481509475	374.13623086278
1	7654	466656.842631792644	0
1	7663	467216.039972460435	0
1	7683	468318.752082847639	507.30222594378
1	7714	470548.829036797576	0
1	7741	473012.693728628648	0
1	7759	475492.59073154051	198.76737527318
1	7768	476582.060122301337	0
1	7794	478373.810101232398	0
1	7802	478677.892109164954	52.995545658541
1	7821	481896.99019704124	0
1	7830	482102.188907490798	159.07141942145
1	7855	483670.786300122758	0
1	7873	485988.397732666373	903.56514405988
1	7882	486212.882456548038	0
1	7909	489083.013388054964	0
1	7917	489226.71167931383	0
1	7952	492026.334806410448	0
1	7960	492503.240226444574	0
1	7968	492824.827975304988	89.670320841556
1	7996	496826.378651601734	0
1	8005	497457.725863741953	0
1	8014	498059.455035500715	217.40488194026
1	8025	498395.782258574226	12.549003088696
1	8043	499626.312115569374	815.92355683868
1	8048	499864.407277394515	1039.0934728286
1	8057	500188.979522451729	940.01497413954
1	8062	500253.020250133602	182.79665753757
1	8080	500543.150614656038	138.72726743209
1	8097	501201.01433521208	0
1	8105	501452.561690802844	165.33516968832
1	8144	502970.927995257375	57.091755095193
1	8171	504280.163070626082	724.25374236653
1	8176	504352.435794096622	522.98113995677
1	8193	505112.133412982783	70.493346786233
1	8201	505194.68358466207	62.694181907482
1	8217	505732.408913696327	299.61388749982
1	8279	507809.205620940924	96.385732726083
1	8288	508412.223415092882	16.652014608184
1	8296	508565.656202424583	0
1	8331	511730.757368075668	396.26467083773
1	8340	512886.409061731457	0
1	8352	513077.063917855255	120.37582820396
1	8384	516508.917884302514	0
1	8401	517445.917434153198	413.28145001464
1	8410	518041.977647817583	0
1	8426	518345.678192930611	0
1	8443	519590.977637992117	0
1	8461	521112.863877505922	0
1	8469	521347.396834258924	0
1	8486	522037.174351894853	0
1	8494	522844.067522044783	0
1	8530	526243.255429213342	0
1	8567	531087.034207616668	0
1	8576	532158.204334942796	0
1	8584	532411.917565596902	245.12416663175
1	8592	532836.303178521961	0
1	8610	534073.328993370496	0
1	8636	535502.05689661073	240.66282078356
1	8645	536556.730387057731	1226.9599603736
1	8650	536804.164418967076	1365.7096072816
1	8694	538465.203982783613	0
1	8712	540664.83446006659	0
1	8729	541076.369683916442	0
1	8737	541607.484769291154	0
1	8745	541756.251292124394	112.18132895911
1	8754	542191.802751356159	0
1	8779	543495.38055379307	0
1	8788	544302.55269227759	0
1	8797	545067.51665810766	0
1	8829	546478.033019659876	443.27317285958
1	8835	547100.733358420604	697.33220654804
1	8854	547727.238692718805	80.053528361868
1	8882	548647.193696150071	367.27536823922
1	8887	548783.752724835454	400.45737276257
1	8892	548797.569255265984	198.75248697409
1	8911	549046.50886595373	148.94857588144
1	8942	550553.848936582025	724.96910698799
1	8947	550555.280625843415	717.98351879644
1	8998	554167.62520571473	0
1	9024	556064.496159928445	111.39539722672
1	9032	556957.308243548398	0
1	9041	557712.492703124315	0
1	9050	558589.366254611737	0
1	9070	559477.337559273589	65.575872189809
1	9084	560266.558216968727	0
1	9102	562130.180445439252	483.78360202963
1	9110	562420.927009160646	0
1	9139	564324.696802692179	1013.3281658716
1	9153	565163.344519381863	660.19507921868
1	9162	566639.160546275831	0
1	9215	571040.300752613579	0
1	9225	573529.982321365451	0
1	9243	575119.064738536407	0
1	9254	575573.966948582321	357.02608028423
1	9259	575649.045808847141	206.14464615926
1	9285	577841.03889963275	0
1	9302	578924.974058066974	0
1	9311	579352.561818118617	248.18911079239
1	9328	580447.876538069258	0
1	9337	581664.830711368566	59.53220540339
1	9345	581964.791531250169	0
1	9354	582733.134626162579	0
1	9362	582919.801348233019	0
1	9382	583870.346580499325	331.31645242154
1	9397	584498.471759096485	361.95542912697
1	9409	585964.455007459686	1528.6242168195
1	9441	587704.878852277831	360.04512022465
1	9498	589437.388551381302	630.03684402738
1	9503	589821.888425970736	726.93833235963
1	9531	591339.702601028651	0
1	9542	591796.726024039465	42.850187034783
1	9553	591869.845474326775	68.879324445502
1	9561	591923.835790356505	104.32551714985
1	9570	592078.744719651722	193.69086585904
1	9575	592365.822541690282	295.6745509121
1	9586	592852.507294492606	211.56172295858
1	9591	592907.307675841829	223.95948533267
1	9648	596133.620410441545	543.52171787697
1	9656	596521.785416773117	0
1	9672	596996.714371473652	21.028121485582
1	9690	598422.463696013867	165.38848111495
1	9709	598841.651448641789	133.13212533819
1	9718	599144.296790757147	133.21391315957
1	9739	599567.534879557464	108.77448820875
1	9755	599827.067399943375	0
1	9764	600746.864819176817	0
1	9773	601595.391029333455	0
1	9811	603960.952922494533	996.72196217058
1	9816	603964.663290772098	182.88223776345
1	9828	604267.36608772779	398.89051836289
1	9833	604403.871477598238	229.11842071163
1	9848	605231.052455148224	486.28727064957
1	9898	606320.705868203919	102.25226912215
1	9917	606762.129724978223	214.95027311872
1	9923	607041.43176756603	476.92657842922
1	9961	613165.939718925994	0
1	9988	616155.954497545756	0
1	9997	617792.890164432845	0
1	10026	619134.162301262263	586.52217724117
1	10037	619184.543644918647	390.33831155783
1	10042	619504.517709752155	357.33524202697
1	10047	619649.717183804596	474.20922534417
1	10083	623335.273346314979	0
1	10108	624184.397843558681	0
1	10116	624374.602349296756	45.404137776086
1	10151	629895.897020653037	570.16093336107
1	10157	630394.620968444407	665.59496450327
1	10179	631612.915323083224	457.13049618528
1	10196	632863.194954597309	160.53033599028
1	10216	633761.754709658936	59.030094201842
1	10222	634084.361458061434	376.17155999647
1	10230	634230.803050323116	97.006163800886
1	10247	635734.546060259614	228.56877366824
1	10259	636501.405344949957	740.94566034537
1	10273	637914.676084006727	0
1	10282	638066.35761205238	0
1	10293	638348.735849893471	248.62580223181
1	10304	638724.512351975049	347.39537180084
1	10309	638858.210031592592	235.70408961064
1	10318	639235.386092996638	348.00767186848
1	10389	641226.705759123386	31.896148317433
1	10405	641677.076937828365	0
1	10414	642395.779128261692	0
1	10422	642845.63517955263	0
1	10444	645565.699606302146	243.01933422237
1	10458	646500.878736544671	242.22954559627
1	10466	646599.221336111453	77.213052139718
1	10475	647419.246808315389	0
1	10533	649453.852555615926	0
1	10542	650814.640069257675	0
1	10554	651251.063501458479	156.16066450735
1	10567	651705.881395259979	22.87022494151
1	10576	652473.769842671136	0
1	10601	653585.171130059861	0
1	10616	654031.052729169887	445.25107004445
1	10624	654348.238442409036	752.79090354445
1	10632	654639.795035591907	385.12800158242
1	10694	658967.458383194392	0
1	10713	661064.153972315361	0
1	10724	661592.514971409335	495.70102090255
1	10729	661636.873406020556	478.60722650143
1	10747	663559.683842066717	0
1	10755	663658.654360085138	77.703402854931
1	10764	664126.912363904445	15.132638841935
1	10772	664232.843451350777	4.298643235782
1	10797	665606.46362824134	370.98363817712
1	10806	666297.831373229323	0
1	10814	666513.512059963791	201.5970731698
1	10848	668889.873056755444	0
1	10865	669363.86199706762	34.386864021626
1	10909	673016.645285809932	0
1	10929	674770.227019520561	544.34456585713
1	10934	674815.408537420067	203.74402207359
1	10943	675892.739046884453	0
1	10955	676139.516714696008	73.023076128014
1	10963	676438.717766685255	161.55744312507
1	10978	677825.20685630461	873.54698021938
1	11002	678753.727705445854	123.33859626612
1	11027	679320.275005067099	0
1	11035	679598.194065432843	0
1	11047	680473.134076028441	800.18755578366
1	11064	681329.620018820979	242.80273347967
1	11084	682135.080391364009	286.62758076803
1	11102	682394.271089229947	0
1	11114	683229.995800281275	721.86685860807
1	11130	683882.009629355704	51.522531891029
1	11156	685197.208965208584	317.98515886475
1	11169	685842.446459333774	0
1	11187	687005.0135094419	988.0422344233
1	11199	687655.401669695054	1346.9112023525
1	11204	687898.282003217757	1531.964975369
1	11210	688022.01548500864	775.07029238853
1	11256	690107.598121914716	821.11868060522
1	11261	690236.353716617725	744.54372831902
1	11266	690476.728120272293	533.55970926217
1	11277	690865.031308997023	206.04736232284
1	11296	692548.257291369404	1758.0476433712
1	11301	692665.723200463473	991.83053045306
1	11309	692965.638153833887	1142.5932560875
1	11314	692966.424895968948	697.87435175551
1	11320	693073.958366499356	227.6123335807
1	11378	694486.892879049912	0
1	11403	695726.615147092891	175.33275594251
1	11424	697281.400681972772	686.01216441817
1	11463	699260.944870466645	0
1	11471	699371.676018274257	0
1	11497	700718.700392434986	486.24379778032
1	11505	700916.17979745555	573.77636064108
1	11514	701091.137294039153	592.78393548876
1	11519	701145.211058920488	491.17606534593
1	11530	701786.060633499824	1024.4879452089
1	11545	702456.159761092523	1500.1271131283
1	11553	702717.53830989565	853.7449460368
1	11561	702894.869698482609	589.74044644017
1	11567	703030.610052204223	318.22057638562
1	11651	707376.693811359133	29.821566703662
1	11659	707858.47896042179	428.08804457344
1	11688	708859.167638720121	0
1	11697	709169.989745007609	220.95594468145
1	11706	710517.652924216823	0
1	11714	710744.75933681444	181.38469427546
1	11768	715081.628488877124	349.03778013954
1	11773	715180.740971165151	208.09237479172
1	11778	715385.866378759751	336.19666160051
1	11793	716108.265909500326	343.25542477266
1	11798	716277.842687627353	264.39981733995
1	11809	716639.051774441522	133.86915825148
1	11833	717260.884005251314	151.58432059547
1	11842	718152.069716455122	0
1	11863	719395.073843042071	1120.2477773289
1	11874	719776.627430955511	78.131963406088
1	11899	720691.149657105328	361.7942355249
1	11943	722135.32982059195	471.26430721572
1	11948	722229.341362554334	454.43238792777
1	11956	722359.16451731806	288.54319321511
1	11961	722792.570901033502	445.78159159333
1	11992	723921.317226630443	401.88465048463
1	12004	724523.526853576179	373.32918119784
1	12015	724669.90689912647	145.32973210589
1	12040	725609.755907389066	66.502495067115
1	12075	727081.061396892964	0
1	12101	729775.480976431588	0
1	12122	731457.558006972986	1062.8045069056
1	12130	731787.764744899841	898.78498207176
1	12138	731982.422810652956	442.19766493883
1	12144	732078.935597108212	222.35317273762
1	12167	733081.507753926538	389.94718529851
1	12175	733420.860426882913	44.78078921378
1	12221	737057.108529266797	0
1	12229	737815.547700606865	0
1	12238	738441.588889673552	0
1	12263	739820.590146395336	0
1	12292	740428.827220385016	233.49029003073
1	12297	740471.902344745097	261.09742313688
1	12302	740704.542938902335	463.78310272226
1	12308	741021.613292629327	689.96519277489
1	12350	743404.1478664728	161.13548524061
1	12362	744506.436549686217	1033.5289249929
1	12374	745624.923470769866	1759.4232438651
1	12382	745768.083027514863	684.9415857879
1	12401	746618.551939140271	360.63196389185
1	12415	747139.450182092616	0
1	12423	747268.900129502458	0
1	12465	749293.662501277713	0
1	12481	749414.662392932778	0
1	12507	751272.867022454612	0
1	12523	751755.096148290907	101.70059733433
1	12531	752011.967276724501	8.799201709056
1	12540	752569.607401275027	0
1	12549	753200.535101320608	0
1	12560	753320.855899598798	71.456537967139
1	12565	753482.277467448499	217.01838488026
1	12593	754250.41319665425	147.43440461962
1	12610	754736.770268962605	218.72605078743
1	12615	754942.54445865215	377.09076538236
1	12633	755534.98348180198	902.16439546539
1	12641	755845.273068299798	835.75206965015
1	12646	755998.555259259658	431.29182528628
1	12658	756451.103320881668	101.15459012566
1	12679	756875.823910724117	204.52941865176
1	12698	758026.48537754908	448.45907225894
1	12727	760088.809109924825	154.78533751801
1	12735	760220.473159298059	63.752668131693
1	12766	760972.598301009025	81.251234981947
1	12772	761118.368333780546	208.71216224683
1	12796	761958.925169014127	152.56352680045
1	12805	762261.721243841869	125.62630551326
1	12821	762978.204552419076	196.99557624965
1	12833	763519.881613876985	52.838465467997
1	12870	764928.479489830625	36.732292757721
1	12885	765293.965547054843	362.70744933179
1	12900	766946.885108879956	1821.314834052
1	12917	767641.625418149732	315.99442394118
1	12923	768674.294535178961	1201.9182206434
1	12931	768868.980826276341	73.157893867218
1	12983	770271.625359680308	18.695088842878
1	12991	770318.105032207209	32.670351251395
1	12999	770592.406950493493	59.697898775968
1	13055	773206.460713193639	421.45037388323
1	13063	773343.902716749805	151.33760220675
1	13068	773697.260749807475	465.11847637328
1	13107	775702.188560563361	0
1	13115	775819.29556295728	80.233707451895
1	13124	776041.478489378719	209.84872641006
1	13136	777319.444437941768	1122.1883401176
1	13147	777698.003061766729	191.49777295352
1	13164	778919.558384116822	341.93616027802
1	13183	779202.841028645674	21.1020997179
1	13194	779469.72398134753	188.91597847412
1	13208	780251.509686882791	0
1	13269	785718.642629998881	0
1	13287	787952.637217989178	0
1	13296	788872.685101671443	0
1	13313	789480.5293758913	0
1	13332	792728.519276179152	0
1	13356	794055.570835280832	757.05926732384
1	13361	794214.402953811758	666.87009270387
1	13366	794252.320025369294	223.60930437758
1	13381	795217.796132458116	782.11786681251
1	13386	795563.969147490325	571.31238104815
1	13395	796087.669013282889	67.245070382037
1	13443	799621.913063055823	0
1	13464	801452.45776149092	321.78612846873
1	13495	802851.711672657213	728.83653544782
1	13504	803173.32049757075	720.22970264419
1	13509	803459.180848259417	932.20042450251
1	13514	803548.170975936724	627.34145982691
1	13528	804474.432143326071	0
1	13544	804899.333574068603	61.440254514323
1	13561	805506.861270776385	363.57462550012
1	13570	806624.634608460842	0
1	13593	807151.053112885997	235.76021902397
1	13601	807359.648125648133	245.18628510727
1	13628	808146.729478910994	255.21014157266
1	13639	808588.187222130005	34.747427666696
1	13650	808907.577321493355	190.2710131486
1	13667	809725.990999065756	443.17158319389
1	13672	809847.066794986442	139.80932519115
1	13686	810175.716353065581	0
1	13703	811084.132632877756	14.976014145388
1	13732	812262.948812058444	70.036636645994
1	13743	812883.427618586772	689.9741844585
1	13765	813203.467823069456	47.369160365178
1	13798	814055.292281121624	175.90847028567
1	13809	814777.251155951201	293.68600799251
1	13832	816908.708038405346	309.96772177416
1	13838	817030.398476952808	264.6191111245
1	13857	818142.788582617836	93.257321004297
1	13879	819300.982041278933	0
1	13895	819796.641736707066	0
1	13920	820438.960623415203	128.93763330797
1	13931	820953.222364716147	284.38226953732
1	13954	822497.693272037126	0
1	13962	822770.977162308564	0
1	13971	823018.855292982259	19.283708338259
1	14007	824540.85378027212	499.67391904415
1	14016	825104.008371982897	749.6134720118
1	14024	825672.345049222101	968.29172180922
1	14039	826771.492281955334	96.841174655973
1	14051	827097.672153824951	318.04249181844
1	14056	827172.637955120874	96.02197680344
1	14124	832287.516320627508	0
1	14141	833538.992514227298	0
1	14169	837097.881219890729	0
1	14178	838505.8434848764	0
1	14207	843259.467645433987	371.3828199867
1	14224	844345.302603785276	0
1	14232	844663.534849345249	129.91739076698
1	14250	846746.516388581581	0
1	14259	847058.879919756105	0
1	14267	847343.183456850703	0
1	14284	848279.508656468682	0
1	14329	853326.216525806062	0
1	14337	853592.448812040928	70.999232767612
1	14346	854330.341739398328	0
1	14354	854993.212004147826	0
1	14398	858789.396540766019	0
1	14411	860099.679080485858	737.64799021312
1	14422	860601.724787452292	1113.0366345832
1	14430	860675.658494747277	411.70697802003
1	14442	861465.758060510076	1074.6905608242
1	14447	861520.086887380611	895.89000473533
1	14458	861999.376478098198	1304.0735587477
1	14464	862126.205256874371	1012.2237458099
1	14472	862321.994378141255	440.6860246823
1	14480	862571.835483156398	255.14521943503
1	14489	863139.119980534078	27.284708685565
1	14505	863920.454592106701	494.85639542773
1	14522	865007.109842839604	339.73661084178
1	14590	868269.933860249715	419.39601108803
1	14595	868544.241183786016	365.45610175235
1	14606	868904.64007113482	290.58005369054
1	14611	868915.42961652676	60.037466392031
1	14620	869335.240668319093	93.834325697917
1	14642	869715.806561981488	202.62407990346
1	14657	870074.809014335553	128.89939425901
1	14665	870646.007263580833	620.96911108985
1	14670	870782.103666327218	185.42029610241
1	14705	871527.015095043239	123.9107166467
1	14732	873754.411643921312	1610.8183948351
1	14741	874894.714903174067	1850.2419524534
1	14753	875508.139657047526	67.587536352076
1	14786	876952.230282631016	307.95799116332
1	14842	878796.56387472688	0
1	14850	878862.917642135513	59.904821399772
1	14859	879245.054679101109	0
1	14867	879527.269412237192	183.67258159068
1	14893	881544.917599928753	0
1	14908	882218.519218091936	580.29367532495
1	14913	882394.860186549591	401.26996305492
1	14936	884035.540309773958	0
1	14955	884768.300391700953	355.4754855343
1	14977	885548.256668423232	15.904374522789
1	14988	885844.907240554312	232.79449896107
1	15005	886810.832007165396	41.706955947541
1	15019	887299.548224027903	57.96384124757
1	15038	887758.716861899712	208.98335525836
1	15063	888610.717144861179	482.94654635653
1	15068	888664.617916550351	303.97006706612
1	15081	890135.755493168862	94.811264666336
1	15112	891106.923301394555	191.15456686861
1	15137	893544.24749083433	0
1	15146	894504.960574764924	0
1	15164	896939.595176195798	0
1	15182	898171.28969702147	243.29834607071
1	15190	898598.204893897969	0
1	15207	899380.924786264523	0
1	15222	900415.09484677631	146.49896416624
1	15227	900508.816431542353	137.78972073266
1	15258	902089.796533568004	0
1	15266	902583.089389080418	0
1	15281	903238.705998263153	526.8131095612
1	15334	906959.96746506659	0
1	15352	908302.489493490378	0
1	15360	908804.51344302694	0
1	15369	909507.82127626564	0
1	15377	909792.522060869001	0
1	15421	913098.115138156176	0
1	15429	913873.740997223968	0
1	15450	915896.013279457133	736.75029404464
1	15455	915928.688055079248	591.30792559918
1	15475	919527.726355648101	289.44506185825
1	15492	920583.244906922401	0
1	15526	922490.145179621639	269.79776877678
1	15536	924238.450045377308	0
1	15552	925003.107452759365	0
1	15561	925648.436625080196	0
1	15578	926307.660387005304	92.95982301606
1	15594	926700.437346887883	105.42603237522
1	15621	929204.523557553804	0
1	15629	929685.20248492287	0
1	15641	930309.087246679129	279.43693152671
1	15654	930704.89393352955	33.545774889849
1	15696	932344.447539080115	0
1	15721	933099.787532382652	0
1	15729	933419.304669972539	0
1	15737	933691.693303326896	0
1	15756	936898.133223289946	0
1	15769	938244.591790732538	221.65036043414
1	15780	938990.993653762007	341.96772011249
1	15786	939059.567678915103	371.08052948129
1	15799	939354.468424521542	108.64416383602
1	15807	939859.039332359899	0
1	15816	940073.778894999029	0
1	15848	940959.077212328811	0
1	15863	941423.719587037495	313.44991111951
1	15891	943524.09757189752	0
1	15908	944661.338719967593	0
1	15917	945140.934728747214	0
1	15950	946389.614572265756	0
1	15959	947039.99932461003	0
1	15979	947624.028698635526	338.12890373283
1	15984	947819.17243573922	348.99301968886
1	15993	948027.189907130336	466.67740827378
1	15998	948161.192536514381	247.02568496164
1	16012	948595.145700895817	140.04498609466
2	1274	72383.424315782697	1
2	1276	72383.424315782697	0
2	1291	73325.345353219245	1
2	1293	73325.345353219245	0
2	1296	73581.383032057396	1
2	1301	73595.779453399907	0
2	1335	77344.528115934632	1
2	1337	77344.528115934632	0
2	1340	77690.930075499111	1
2	1345	77798.888872406224	0
2	1361	79372.390392095217	1
2	1363	79372.390392095217	0
2	1374	79546.527947210676	1
2	1379	79839.156644219067	0
2	1382	79903.836582840495	1
2	1388	80553.489527510604	0
2	1391	80794.274171870162	1
2	1396	80941.28177447645	0
2	1413	83715.621131207235	1
2	1415	83715.621131207235	0
2	1422	84658.87642537609	1
2	1424	84658.87642537609	0
2	1456	86088.525638295518	1
2	1461	86227.492660308553	0
2	1499	89530.887586379438	1
2	1501	89530.887586379438	0
2	1504	89863.551858391915	1
2	1509	89882.289281132677	0
2	1516	90724.403172890072	1
2	1518	90724.403172890072	0
2	1542	92990.143209615192	1
2	1544	92990.143209615192	0
2	1551	93960.380550250235	1
2	1553	93960.380550250235	0
2	1560	94540.754253285049	1
2	1562	94540.754253285049	0
2	1568	94746.020382351069	1
2	1570	94746.020382351069	0
2	1582	95518.19155987289	1
2	1588	95901.810401049751	2
2	1594	96021.463088110331	1
2	1597	96159.163672472282	2
2	1602	96196.973940694943	1
2	1607	96402.171668184709	0
2	1641	98513.506943766073	1
2	1646	98643.192807487295	0
2	1680	102139.014396169519	1
2	1682	102139.014396169519	0
2	1688	102433.046087647626	1
2	1690	102433.046087647626	0
2	1696	102632.576661941545	1
2	1698	102632.576661941545	0
2	1713	103584.450611911101	1
2	1718	103638.491815703085	0
2	1721	103944.156596713274	1
2	1730	104561.057056197542	0
2	1733	104665.495840617669	1
2	1738	104936.72081729923	0
2	1765	107511.76492842619	1
2	1767	107511.76492842619	0
2	1791	109017.938218365794	1
2	1793	109017.938218365794	0
2	1817	111098.727748472811	1
2	1819	111098.727748472811	0
2	1825	111220.541620182545	1
2	1827	111220.541620182545	0
2	1830	111931.159579985365	1
2	1836	112840.127835485839	0
2	1844	114695.27442582398	1
2	1846	114695.27442582398	0
2	1858	115886.634298264437	1
2	1863	115954.048377679267	0
2	1870	116123.391452439576	1
2	1875	116308.689651969436	0
2	1921	119309.639743068953	1
2	1923	119309.639743068953	0
2	1926	119692.511732245053	1
2	1935	120095.813222422979	0
2	1938	120241.333835916974	1
2	1943	120305.75557654316	0
2	1956	122887.0542804101	1
2	1958	122887.0542804101	0
2	1973	123856.184041837301	1
2	1978	125085.906565838203	2
2	1984	125481.725719018887	3
2	1988	126372.924110757733	4
2	1993	126445.655227477512	3
2	1998	126731.320964642272	2
2	2003	126946.326523655177	1
2	2009	127053.397728871058	0
2	2026	128040.416916971266	1
2	2028	128040.416916971266	0
2	2034	128074.426968192908	1
2	2036	128074.426968192908	0
2	2067	129937.693612660942	1
2	2069	129937.693612660942	0
2	2081	130739.251488622703	1
2	2086	130744.702875074754	0
2	2092	130897.694948007401	1
2	2094	130897.694948007401	0
2	2114	131112.680050566688	1
2	2119	131179.815283072424	0
2	2152	134922.976822072311	1
2	2154	134922.976822072311	0
2	2157	134982.744903621445	1
2	2163	135439.57138326394	0
2	2169	135971.10375840773	1
2	2171	135971.10375840773	0
2	2175	136028.557848243376	1
2	2183	136656.363150308706	0
2	2195	137133.114180205099	1
2	2197	137133.114180205099	0
2	2200	137359.849871585888	1
2	2205	137512.413489211481	0
2	2249	138182.261026660626	1
2	2254	138239.29352061073	0
2	2257	138567.428874053815	1
2	2262	138583.913512698445	0
2	2269	139335.529864884708	1
2	2271	139335.529864884708	0
2	2277	139428.933506608206	1
2	2279	139428.933506608206	0
2	2291	140138.733994092717	1
2	2296	140173.438324050954	0
2	2330	141660.020025537927	1
2	2335	141855.890035414991	0
2	2370	144357.906139704183	1
2	2372	144357.906139704183	0
2	2380	146398.949571009511	1
2	2382	146398.949571009511	0
2	2388	146566.553242888768	1
2	2390	146566.553242888768	0
2	2397	147031.841782262199	1
2	2402	147117.897948855781	0
2	2438	151421.668564131553	1
2	2443	151459.918099765145	0
2	2449	151988.992085233618	1
2	2451	151988.992085233618	0
2	2458	152336.491453847822	1
2	2460	152336.491453847822	0
2	2463	152735.47580196498	1
2	2468	152892.071636894185	0
2	2472	153505.749994165065	1
2	2478	153972.210482973864	2
2	2482	154442.850904770548	3
2	2487	154531.04212817536	2
2	2492	154690.790109665017	1
2	2501	155859.684920747758	0
2	2539	156664.095309651377	1
2	2545	157178.882687135598	0
2	2565	158207.572358251436	1
2	2571	159361.429583759949	0
2	2574	159492.504504626208	1
2	2577	159836.844248605822	2
2	2580	159969.783845588598	3
2	2584	160178.107372508841	4
2	2590	161544.857344044348	3
2	2594	162030.625126398815	4
2	2599	162033.411947460616	3
2	2605	162365.669354609618	4
2	2610	162755.740952154903	3
2	2615	162823.135746606836	2
2	2624	163049.747196253483	1
2	2632	163449.562905579506	0
2	2657	164056.553589272263	1
2	2662	164065.281018473361	0
2	2665	164389.107547085688	1
2	2669	165390.268742504059	2
2	2674	165510.728165864907	1
2	2683	166391.17093971489	0
2	2713	167145.896794105439	1
2	2715	167145.896794105439	0
2	2721	167872.857762983714	1
2	2723	167872.857762983714	0
2	2730	168245.006039308065	1
2	2732	168245.006039308065	0
2	2743	168454.652099537946	1
2	2754	168669.09090054742	0
2	2779	169115.366173026361	1
2	2781	169115.366173026361	0
2	2787	169597.220590252451	1
2	2789	169597.220590252451	0
2	2814	172019.261844923086	1
2	2816	172019.261844923086	0
2	2822	172692.07349967233	1
2	2827	172876.399421980493	0
2	2836	173063.295968291012	1
2	2841	173101.744911569974	0
2	2847	173336.222274958129	1
2	2850	173494.102958611425	2
2	2855	173506.833187960432	1
2	2860	173642.880638306155	0
2	2864	174005.855917339885	1
2	2872	174376.369389590774	0
2	2911	176159.38315939393	1
2	2916	176239.637304168238	0
2	2931	177204.154735415304	1
2	2933	177204.154735415304	0
2	2939	177900.47722923229	1
2	2941	177900.47722923229	0
2	2948	178567.956233619521	1
2	2950	178567.956233619521	0
2	2979	180546.297550578927	1
2	2984	180705.750388804418	0
2	2991	181239.557752842412	1
2	2993	181239.557752842412	0
2	3035	182718.562866281203	1
2	3040	182882.041484139748	0
2	3054	183492.843643117719	1
2	3057	183506.752264990343	2
2	3062	183753.588406829923	1
2	3065	183873.611371999924	2
2	3068	183902.512467847339	3
2	3071	183961.62806944755	4
2	3076	183973.13859321038	3
2	3080	184083.227629952289	4
2	3085	184121.791864397227	3
2	3088	184481.807437053968	4
2	3096	184627.51598352587	3
2	3101	184882.652147204771	2
2	3107	185080.858291662152	1
2	3112	185213.418276431084	0
2	3130	186128.351204170956	1
2	3135	186260.640625729905	0
2	3173	187486.06278383362	1
2	3175	187486.06278383362	0
2	3182	188307.839676418173	1
2	3184	188307.839676418173	0
2	3191	189156.664646671375	1
2	3196	189611.592835681887	0
2	3200	190253.296094543894	1
2	3205	190514.412688459677	0
2	3234	192303.329544874363	1
2	3236	192303.329544874363	0
2	3239	192458.44907705106	1
2	3245	192786.303499519845	2
2	3251	193078.650230624966	1
2	3256	193112.33531683792	0
2	3264	193334.078644356541	1
2	3269	193446.570514104615	0
2	3298	195508.04639335365	1
2	3303	195878.25614777811	0
2	3318	196667.418805828389	1
2	3320	196667.418805828389	0
2	3340	197406.46495590713	1
2	3343	197443.262643997528	2
2	3348	197758.334300651223	1
2	3351	197864.344455955319	2
2	3357	198394.713314348879	1
2	3365	198540.694184230979	0
2	3368	198760.361662944371	1
2	3374	198824.603334643453	2
2	3380	199384.022756145463	1
2	3388	199562.400591485789	0
2	3413	200144.224474143259	1
2	3416	200263.035215282648	2
2	3424	200471.096984574496	1
2	3429	200482.283805899171	0
2	3432	200556.729268857377	1
2	3437	200590.803854272688	0
2	3503	205164.342929243719	1
2	3505	205164.342929243719	0
2	3508	205269.825363761255	1
2	3513	205822.821097362883	0
2	3538	208772.338155394192	1
2	3540	208772.338155394192	0
2	3548	210599.598131209826	1
2	3550	210599.598131209826	0
2	3575	213180.162135019207	1
2	3577	213180.162135019207	0
2	3583	213725.939920037509	1
2	3585	213725.939920037509	0
2	3591	213846.098171999832	1
2	3593	213846.098171999832	0
2	3600	214684.30328036129	1
2	3602	214684.30328036129	0
2	3605	214795.207465059244	1
2	3611	215425.558405596843	0
2	3617	215604.10071209511	1
2	3622	215669.408098071488	0
2	3625	215700.743701421752	1
2	3631	216166.181149820149	0
2	3640	216733.55911689463	1
2	3649	217266.435656851582	0
[...]
7	10417	642400.732107530802	4
7	10427	644308.014928872535	5
7	10429	644911.211912803807	4
7	10435	645271.925271409801	3
7	10447	646002.369327372715	4
7	10464	646599.221336111453	5
7	10469	646800.770360925161	6
7	10477	647817.018292344378	5
7	10482	648029.774941405515	6
7	10486	648264.792221498858	5
7	10494	648295.435529836039	4
7	10505	648742.128712836866	3
7	10510	648950.984132225305	2
7	10519	649092.254195128157	1
7	10536	649739.821256250036	2
7	10545	651057.542660641107	1
7	10552	651251.063501458479	2
7	10557	651569.294046128962	3
7	10570	651992.46884778752	4
7	10579	652622.685230410566	5
7	10581	652870.834317038511	4
7	10590	653523.73996603409	3
7	10609	653844.487046068731	2
7	10614	654031.052729169887	3
7	10622	654348.238442409036	4
7	10626	654456.879166921782	3
7	10630	654639.795035591907	4
7	10635	655725.561435708861	3
7	10639	656047.861822622427	2
7	10643	656430.748232145776	3
7	10647	656808.904565768967	2
7	10661	657259.320212061102	1
7	10679	657771.598616879746	0
7	10698	659214.731754177125	1
7	10701	660446.286667334874	0
7	10722	661592.514971409335	1
7	10727	661636.873406020556	2
7	10732	661767.986575633799	3
7	10735	662909.124174143355	2
7	10753	663658.654360085138	3
7	10762	664126.912363904445	4
7	10770	664232.843451350777	5
7	10775	664447.312815672062	6
7	10777	664614.571785424907	5
7	10786	665102.4735391602	4
7	10801	666204.086286671688	5
7	10812	666513.512059963791	6
7	10818	667142.606224516626	7
7	10820	667823.055251473847	6
7	10829	668070.092232142728	5
7	10837	668168.554882100585	4
7	10851	668973.61904229984	5
7	10854	669023.077940345992	4
7	10867	669595.04464271239	3
7	10871	669814.156378610108	4
7	10879	670673.277372671677	3
7	10884	670676.814739972374	2
7	10896	671673.176376042153	1
7	10912	673180.577524181355	2
7	10914	673896.388518264389	1
7	10932	674815.408537420067	2
7	10938	675077.979226277798	3
7	10946	676017.739164430415	2
7	10953	676139.516714696008	3
7	10961	676438.717766685255	4
7	10965	676444.378076930071	3
7	10972	677757.978757486885	2
7	10976	677825.20685630461	3
7	10982	678127.511514288703	4
7	11004	678759.148843229087	3
7	11009	679080.010318132673	4
7	11016	679218.609382943609	3
7	11030	679485.985849839355	4
7	11040	679823.311475201932	3
7	11045	680473.134076028441	4
7	11049	680477.62186460654	3
7	11053	680971.448378973212	4
7	11066	681399.160507539683	3
7	11069	681737.702216541951	2
7	11073	681772.28284680721	3
7	11087	682242.353634696858	4
7	11107	682741.031550753395	3
7	11112	683229.995800281275	4
7	11117	683233.756216852986	5
7	11124	683855.105896706656	4
7	11133	684125.848275202759	3
7	11137	684723.596884165417	4
7	11149	684923.528189562702	3
7	11159	685338.372287331591	4
7	11178	686313.288705720636	3
7	11185	687005.0135094419	4
7	11193	687601.294738948028	3
7	11197	687655.401669695054	4
7	11202	687898.282003217757	5
7	11208	688022.01548500864	6
7	11213	688228.690239420776	7
7	11225	688486.09200305737	6
7	11230	688559.644785634098	5
7	11234	689150.802741652534	4
7	11243	689784.965565203829	3
7	11249	690001.939563099128	2
7	11259	690236.353716617725	3
7	11264	690476.728120272293	4
7	11275	690865.031308997023	5
7	11286	691886.782685713069	4
7	11294	692548.257291369404	5
7	11299	692665.723200463473	6
7	11307	692965.638153833887	7
7	11312	692966.424895968948	8
7	11318	693073.958366499356	9
7	11323	693118.412066399109	10
7	11337	693207.029650171761	9
7	11345	693343.090404644862	8
7	11366	693683.144523080021	7
7	11380	694655.565898379484	6
7	11383	694962.55866492437	5
7	11388	695128.665245655028	6
7	11406	696071.508028443603	5
7	11409	696357.872970917846	4
7	11413	696564.766903289217	5
7	11426	697396.872846913289	4
7	11430	697967.853018143391	5
7	11435	698096.999472852318	4
7	11451	698658.250315186006	3
7	11466	699326.769302259925	4
7	11474	699827.313326641511	5
7	11477	700230.082257194285	4
7	11503	700916.17979745555	5
7	11512	701091.137294039153	6
7	11517	701145.211058920488	7
7	11521	701218.162790078221	6
7	11524	701511.538133087364	5
7	11528	701786.060633499824	6
7	11536	702234.776460225307	5
7	11543	702456.159761092523	6
7	11551	702717.53830989565	7
7	11555	702835.663270141161	6
7	11559	702894.869698482609	7
7	11565	703030.610052204223	8
7	11569	703173.665750212215	7
7	11572	703344.844958624751	6
7	11575	703911.9538797681	5
7	11580	704290.513512471972	6
7	11599	704779.24951064526	5
7	11602	704787.970657005611	4
7	11611	705332.639625838979	3
7	11630	706394.581578948063	2
7	11633	706573.654864323073	1
7	11636	706962.690816724909	0
7	11657	707858.47896042179	1
7	11663	708169.191436095828	2
7	11695	709169.989745007609	3
7	11700	709376.832690231149	4
7	11712	710744.75933681444	5
7	11717	710909.14370283225	6
7	11720	711852.636434021222	5
7	11729	712063.108873772191	4
7	11738	713333.365590393994	3
7	11747	714326.481721325174	2
7	11759	715020.289117743777	1
7	11771	715180.740971165151	2
7	11776	715385.866378759751	3
7	11780	715568.704506140525	2
7	11791	716108.265909500326	3
7	11796	716277.842687627353	4
7	11800	716307.728917343605	3
7	11807	716639.051774441522	4
7	11812	716852.480450965035	5
7	11836	717376.028893322911	6
7	11847	718432.93042835891	5
7	11850	718500.463113563069	4
7	11853	718506.996459229336	3
7	11857	719173.933954736669	2
7	11861	719395.073843042071	3
7	11865	719433.112538512594	2
7	11872	719776.627430955511	3
7	11877	719812.624588068705	4
7	11890	720421.858750761855	3
7	11893	720494.345847246452	2
7	11903	721135.49695381206	3
7	11933	721842.612833450974	2
7	11946	722229.341362554334	3
7	11954	722359.16451731806	4
7	11959	722792.570901033502	5
7	11965	723107.718388625083	6
7	11969	723166.69036120097	5
7	11972	723399.008541113495	4
7	11983	723587.620977613391	3
7	11986	723762.934204499749	2
7	11998	724270.281806974295	1
7	12002	724523.526853576179	2
7	12009	724596.17427292037	1
7	12013	724669.90689912647	2
7	12018	724754.241531651526	3
7	12023	725034.648041614889	2
7	12026	725055.135964116076	1
7	12044	726153.554556893211	2
7	12078	727478.349594594312	3
7	12080	727691.816153040025	2
7	12089	728965.685011280763	1
7	12105	730106.979098523601	2
7	12107	730293.832410639077	1
7	12128	731787.764744899841	2
7	12136	731982.422810652956	3
7	12142	732078.935597108212	4
7	12146	732423.475654978502	3
7	12150	732619.347764509916	4
7	12157	732780.513225055949	3
7	12160	732927.097514998764	2
7	12173	733420.860426882913	3
7	12178	733913.342293260398	4
7	12191	734474.833887506687	3
7	12200	735421.355865423768	2
7	12209	736449.155808562339	1
7	12224	737194.920538719706	2
7	12232	737927.820843747945	3
7	12241	738888.889949320699	4
7	12243	738987.607042623121	3
7	12249	739014.875586680016	2
7	12265	739983.486398795338	1
7	12270	740092.694273310943	2
7	12274	740188.19998754723	1
7	12295	740471.902344745097	2
7	12300	740704.542938902335	3
7	12306	741021.613292629327	4
7	12311	741230.566302877051	5
7	12315	741461.905583508156	4
7	12318	741670.520132357244	3
7	12336	743121.172644752544	2
7	12344	743382.146651298759	1
7	12360	744506.436549686217	2
7	12365	745056.667720937741	1
7	12372	745624.923470769866	2
7	12376	745730.546734604503	1
7	12380	745768.083027514863	2
7	12385	745950.687450393725	3
7	12404	746718.444135223369	4
7	12418	747166.717808944185	5
7	12426	747498.124881412237	6
7	12428	747630.340495409711	5
7	12437	748086.618697683315	4
7	12445	748497.6443797096	3
7	12450	748681.119453161629	2
7	12468	749310.560763356847	3
7	12470	749354.761327676515	2
7	12484	749452.4054500673	3
7	12487	750116.227103619135	2
7	12492	750312.166732366008	1
7	12510	751452.365800380207	2
7	12512	751619.48328385681	1
7	12529	752011.967276724501	2
7	12535	752159.00920557169	3
7	12543	752642.546889279407	4
7	12558	753320.855899598798	5
7	12563	753482.277467448499	6
7	12567	753504.12910660701	5
7	12570	753507.676351452922	4
7	12573	753821.327149855803	3
7	12577	753860.608383450758	4
7	12601	754588.467218055798	3
7	12608	754736.770268962605	4
7	12613	754942.54445865215	5
7	12617	754979.481027284488	4
7	12624	755365.91586813105	3
7	12627	755528.056463880511	2
7	12631	755534.98348180198	3
7	12639	755845.273068299798	4
7	12644	755998.555259259658	5
7	12649	756191.085926435449	4
7	12656	756451.103320881668	5
7	12661	756562.767569371306	6
7	12673	756771.651916026884	5
7	12682	757106.928026162932	4
7	12685	757249.566309372772	3
7	12691	757635.97795209474	2
7	12696	758026.48537754908	3
7	12700	758216.586187840537	2
7	12703	758441.241225352998	1
7	12706	758708.748648181593	0
7	12710	758961.787741588867	1
7	12733	760220.473159298059	2
7	12738	760359.162477251785	3
7	12770	761118.368333780546	4
7	12774	761299.750035297884	3
7	12778	761352.812462664945	4
7	12782	761663.342111949675	3
7	12803	762261.721243841869	4
7	12807	762545.480888365965	3
7	12811	762649.614873488889	4
7	12824	763387.071423295238	3
7	12831	763519.881613876985	4
7	12835	763681.375928107628	3
7	12839	763790.398992515341	4
7	12879	765132.384134705245	3
7	12883	765293.965547054843	4
7	12887	765349.923339704454	3
7	12891	766373.727482834554	2
7	12894	766931.498700829667	1
7	12898	766946.885108879956	2
7	12904	767222.202707986934	3
7	12921	768674.294535178961	4
7	12929	768868.980826276341	5
7	12934	769012.243256665996	6
7	12939	769087.526052069876	5
7	12942	769304.547829498173	4
7	12960	769832.048189163962	3
7	12968	769972.166497500457	2
7	12989	770318.105032207209	3
7	12997	770592.406950493493	4
7	13001	770656.6356588304	3
7	13005	770843.941734014669	4
7	13009	770984.028484628608	3
7	13037	772704.213164649643	2
7	13045	772874.06328016297	1
7	13061	773343.902716749805	2
7	13066	773697.260749807475	3
7	13070	773969.568736534798	2
7	13074	773980.0628996843	3
7	13078	774011.793152903252	2
7	13082	774485.468051224367	1
7	13113	775819.29556295728	2
7	13122	776041.478489378719	3
7	13129	776624.525967676449	2
7	13134	777319.444437941768	3
7	13138	777339.046311752987	2
7	13145	777698.003061766729	3
7	13149	777794.198186742978	2
7	13154	778308.059064336399	3
7	13167	778925.945202053662	4
7	13188	779325.702885313414	3
7	13192	779469.72398134753	4
7	13197	779477.282300052007	5
7	13210	780282.420025056296	4
7	13214	780302.093747553002	5
7	13221	780876.390695679942	4
7	13227	781647.261319059709	3
7	13239	782516.184818079422	2
7	13248	783485.728505522261	1
7	13253	783739.491725291891	0
7	13272	785875.00628717699	1
7	13276	787218.591494808562	0
7	13290	788004.950254610803	1
7	13300	789162.299724966776	2
7	13302	789186.204240752877	1
7	13317	790038.737232287507	2
7	13321	792147.482936426148	1
7	13335	792805.736546417247	2
7	13337	792853.486590800565	1
7	13359	794214.402953811758	2
7	13364	794252.320025369294	3
7	13371	794635.227428385802	2
7	13379	795217.796132458116	3
7	13384	795563.969147490325	4
7	13393	796087.669013282889	5
7	13398	796338.829178640131	6
7	13402	796457.890867401389	5
7	13405	796697.668680029269	4
7	13414	797238.868732052487	3
7	13422	797340.808278817221	2
7	13446	799907.259913845922	3
7	13450	801055.594604411264	2
7	13458	801415.514399993972	1
7	13466	801487.403561133829	0
7	13470	801626.933811204064	1
7	13489	802710.624851763851	0
7	13502	803173.32049757075	1
7	13507	803459.180848259417	2
7	13512	803548.170975936724	3
7	13517	803562.30132659509	4
7	13531	804486.651133979172	5
7	13533	804795.469656758035	4
7	13547	804942.201576459116	5
7	13549	804985.651343261441	4
7	13564	805859.096242148254	5
7	13572	806779.540464008684	4
7	13576	806818.968768907039	5
7	13580	806873.437328364791	4
7	13595	807215.099649754079	3
7	13599	807359.648125648133	4
7	13604	807394.76536194175	5
7	13616	807661.770448278656	4
7	13630	808511.535515817833	3
7	13637	808588.187222130005	4
7	13644	808775.834383009838	3
7	13648	808907.577321493355	4
7	13654	809135.861625148814	5
7	13670	809847.066794986442	6
7	13675	809949.349003645527	7
7	13689	810436.410801570602	8
7	13691	810897.723887054821	7
7	13705	811106.837708771892	6
7	13708	811245.742884463941	5
7	13711	811507.595299503695	4
7	13714	811545.587718158264	3
7	13718	811833.269348969829	4
7	13734	812432.048433705126	3
7	13737	812529.531771498557	2
7	13741	812883.427618586772	3
7	13745	812908.213299277587	2
7	13749	813006.401908092637	3
7	13768	813489.876004842124	4
7	13772	813591.138395241614	3
7	13788	813960.224809002417	2
7	13791	814005.13808919059	1
7	13800	814412.170844048716	0
7	13807	814777.251155951201	1
7	13813	815248.36137136729	2
7	13836	817030.398476952808	3
7	13841	817246.845029343386	4
7	13860	818197.352865769882	5
7	13867	818524.904211158883	4
7	13881	819377.674485665251	3
7	13885	819413.771311911667	4
7	13898	820015.176954203272	5
7	13901	820182.922277705637	4
7	13906	820197.191472020726	3
7	13922	820518.60843900521	2
7	13929	820953.222364716147	3
7	13935	821122.536522006393	4
7	13943	822028.466675819304	3
7	13957	822555.846998504669	4
7	13969	823018.855292982259	5
7	13974	823129.030441840845	6
7	13976	823189.347806838663	5
7	13984	823501.752258530693	4
7	13992	823863.275574041796	3
7	14014	825104.008371982897	4
7	14018	825501.829206446015	3
7	14022	825672.345049222101	4
7	14026	825792.880644501771	3
7	14030	826556.886671367025	2
7	14037	826771.492281955334	3
7	14049	827097.672153824951	4
7	14054	827172.637955120874	5
7	14059	827183.833903769536	6
7	14063	827199.517181542342	5
7	14086	829088.004553090794	4
7	14095	830391.590332935151	3
7	14103	830576.628879708407	2
7	14112	831948.066244453752	1
7	14126	832313.775433740671	0
7	14130	832615.990941793579	1
7	14144	833624.614500596226	2
7	14147	834418.254008079845	1
7	14153	835042.855555450934	0
7	14172	837544.819569536474	1
7	14181	838624.997182643853	2
7	14185	840897.857684173564	1
7	14195	842871.780959629398	0
7	14210	843555.965048357377	1
7	14213	844133.066732321964	0
7	14230	844663.534849345249	1
7	14236	845019.920766119213	2
7	14238	845640.813432994184	1
7	14253	846794.541017696655	2
7	14262	847298.762182822149	3
7	14270	847556.320969842316	4
7	14272	847777.064516162493	3
7	14286	848316.507183187604	2
7	14290	848384.561278251154	3
7	14297	848517.311285385161	2
7	14303	849062.876235787144	1
7	14316	851145.908765383832	0
7	14335	853592.448812040928	1
7	14340	853641.6913601975	2
7	14349	854478.361181305971	3
7	14357	855162.243899541235	2
7	14361	855163.249945511941	3
7	14368	855686.322966274289	2
7	14377	856434.336674695562	1
7	14382	856774.528567941299	0
7	14409	860099.679080485858	1
7	14420	860601.724787452292	2
7	14428	860675.658494747277	3
7	14440	861465.758060510076	4
7	14445	861520.086887380611	5
7	14449	861535.688773090015	4
7	14456	861999.376478098198	5
7	14462	862126.205256874371	6
7	14470	862321.994378141255	7
7	14474	862563.275696341775	6
7	14478	862571.835483156398	7
7	14487	863139.119980534078	8
7	14491	863232.804750797236	7
7	14495	863364.073401427809	8
7	14509	864303.301882065684	9
7	14513	864629.724033465432	8
7	14526	865144.102423909756	9
7	14530	865361.092451362324	8
7	14546	865533.86798495676	7
7	14551	865647.49661873476	6
7	14563	866899.152961843315	5
7	14572	867535.754403625572	4
7	14580	867870.823393071092	3
7	14593	868544.241183786016	4
7	14604	868904.64007113482	5
7	14609	868915.42961652676	6
7	14618	869335.240668319093	7
7	14622	869367.11070005886	6
7	14625	869471.216226932404	5
7	14629	869482.746483589793	6
7	14636	869548.975277823099	5
7	14644	869722.674951834325	4
7	14655	870074.809014335553	5
7	14663	870646.007263580833	6
7	14668	870782.103666327218	7
7	14673	870919.168749742835	8
7	14688	871040.975510472964	7
7	14691	871110.727154465589	6
7	14707	871764.866193483534	5
7	14711	872001.845973102184	6
7	14719	872890.606916256827	5
7	14722	872985.645283980949	4
7	14734	874004.802097972513	3
7	14739	874894.714903174067	4
7	14747	875490.91719111971	3
7	14751	875508.139657047526	4
7	14755	875617.069120784603	3
7	14758	875627.122061227924	2
7	14762	875670.84408881831	3
7	14777	876597.215819114756	2
7	14789	876998.197440637651	3
7	14794	877025.01478362689	2
7	14831	878293.717221241035	1
7	14848	878862.917642135513	2
7	14853	878906.026622412698	3
7	14865	879527.269412237192	4
7	14870	879555.096353473678	5
7	14872	879790.012810169603	4
7	14877	879810.412293094927	3
7	14898	881788.247333858128	2
7	14906	882218.519218091936	3
7	14911	882394.860186549591	4
7	14917	883057.408763119803	5
7	14924	883274.910392836323	4
7	14939	884106.341145593988	5
7	14941	884185.592927557951	4
7	14946	884250.404939711467	3
7	14958	884881.603132482685	4
7	14963	885097.162504310681	3
7	14982	885731.783271681093	2
7	14986	885844.907240554312	3
7	14991	886032.363508905728	2
7	14995	886652.558155827298	3
7	15009	887156.333617492275	4
7	15022	887314.422788347195	5
7	15024	887542.954627972359	4
7	15032	887698.584207110471	3
7	15041	887777.539395429421	4
7	15049	888033.866199889706	3
7	15066	888664.617916550351	4
7	15070	888928.093905130823	3
7	15079	890135.755493168862	4
7	15084	890247.747254133636	5
7	15088	890294.485563557276	4
7	15091	890692.497007198842	3
7	15099	890789.527733901347	2
7	15106	891070.511562022006	1
7	15115	891584.846124807821	2
7	15140	893783.288156785326	3
7	15149	894796.618586124364	4
7	15152	895327.81139150266	3
7	15167	897313.085378725058	2
7	15171	897808.723562163262	3
7	15185	898400.237990019027	4
7	15193	898637.546050095127	5
7	15196	899322.058167081123	4
7	15210	900234.588692643926	3
7	15220	900415.09484677631	4
7	15225	900508.816431542353	5
7	15230	900752.844857866111	6
7	15234	900803.226762038693	5
7	15242	900989.451870543056	4
7	15261	902488.836124882446	5
7	15271	902932.242597909189	4
7	15275	903230.225669732881	3
7	15279	903238.705998263153	4
7	15284	903267.79333037218	5
7	15296	903929.755235193595	4
7	15305	904322.195704457365	3
7	15310	904893.165463881042	2
7	15319	905848.069224688215	1
7	15338	907175.089640936543	2
7	15340	907241.472759476217	1
7	15355	908741.629785134152	2
7	15364	909070.09109993716	3
7	15372	909618.463337700622	4
7	15379	909835.396375079469	3
7	15384	910077.16607685167	4
7	15391	910358.826905017436	3
7	15399	910915.414534783222	2
7	15405	911211.905421610714	1
7	15424	913351.048151996496	2
7	15432	914000.088429649503	3
7	15436	915121.294279049687	2
7	15453	915928.688055079248	3
7	15459	916525.927806909781	4
7	15464	919169.923423286779	3
7	15477	919887.916021661388	2
7	15482	920309.974009171904	3
7	15494	920715.089537928874	2
7	15497	920742.448963581089	1
7	15501	920757.103813695588	2
7	15505	920868.694628844439	1
7	15529	922517.17799906407	2
7	15539	924329.958722990534	3
7	15541	924758.251550442484	2
7	15556	925206.736225627222	3
7	15564	925969.159589472842	4
7	15567	926079.309805895368	3
7	15580	926431.067859969874	2
7	15584	926470.443261453299	3
7	15597	926932.204019759457	4
7	15601	928603.092564735669	3
7	15610	929052.888822118921	2
7	15624	929635.824547073754	3
7	15631	929804.61496607126	2
7	15639	930309.087246679129	3
7	15644	930315.907723532081	4
7	15656	930981.245117322091	3
7	15661	931289.953040443447	4
7	15668	931394.566912174926	3
7	15676	931725.164752704314	2
7	15685	932158.391739832095	1
7	15699	932409.010654052473	2
7	15701	932566.002938273302	1
7	15706	932835.699768609119	0
7	15724	933283.348922487464	1
7	15732	933499.078705363776	2
7	15741	934246.660317652661	3
7	15745	936373.91141401738	2
7	15763	938080.637708096777	1
7	15767	938244.591790732538	2
7	15778	938990.993653762007	3
7	15784	939059.567678915103	4
7	15789	939104.701952244797	5
7	15802	939393.888341931508	6
7	15811	940034.765555482425	7
7	15818	940097.718129182956	6
7	15821	940300.543905175322	5
7	15825	940366.057076131635	6
7	15837	940802.980822125166	5
7	15851	941018.94091173125	4
7	15857	941343.658131618473	3
7	15861	941423.719587037495	4
7	15865	941544.588777997416	3
7	15870	942850.438970115513	4
7	15895	944262.775118432237	5
7	15897	944454.855376827436	4
7	15911	944742.062312559252	5
7	15919	945190.163600229763	4
7	15922	945451.822296015274	3
7	15926	945756.842069590289	4
7	15930	945835.838481816712	3
7	15953	946465.208520725555	4
7	15961	947201.177515029346	3
7	15967	947442.763441697411	2
7	15977	947624.028698635526	3
7	15982	947819.17243573922	4
7	15991	948027.189907130336	5
7	15996	948161.192536514381	6
7	16000	948179.742969284392	5
7	16003	948389.502057332407	4
7	16010	948595.145700895817	5
7	16015	948595.364577311555	6
7	16019	948737.600253476044	5
7	16043	949654.679810848334	4
7	16046	949796.224764619951	3
7	16063	950269.678143656252	2
