file 306491 1483968005                                          
version 2
run QueueMeasurement-129-20170109-14:20:05-6562
attr configname QueueMeasurement
attr datetime 20170109-14:20:05
attr experiment QueueMeasurement
attr inifile queueStudy.ini
attr iterationvars ""
attr iterationvars2 $repetition=129
attr measurement ""
attr network controltower.SimNetwork
attr processid 6562
attr repetition 129
attr replication #129
attr resultdir results
attr runnumber 129
attr seedset 129
param SimNetwork.a.parkingLot.parkingDelay exponential(45min)
param SimNetwork.a.runway.landingTime exponential(5min)
param SimNetwork.a.runway.takeoffTime exponential(5min)
param SimNetwork.a.runway.throughputCheckInterval 16.667min
param SimNetwork.wg.interArrivalTime exponential(16.667min)

vector 5  SimNetwork.a.runway  landedThroughput:vector  ETV
attr source  landedThroughputSignal
vector 6  SimNetwork.a.runway  tookoffThroughput:vector  ETV
attr source  tookoffThroughputSignal
vector 2  SimNetwork.a.landingQueue  queueLength:vector  ETV
attr source  queueLengthSignal
vector 1  SimNetwork.a.landingQueue  queueTime:vector  ETV
attr source  queueTimeSignal
vector 7  SimNetwork.a.parkingLot  parkingOccupancy:vector  ETV
attr source  parkingOccupancy
vector 4  SimNetwork.a.takeoffQueue  queueLength:vector  ETV
attr source  queueLengthSignal
vector 3  SimNetwork.a.takeoffQueue  queueTime:vector  ETV
attr source  queueTimeSignal
vector 0  SimNetwork.wg  responseTime:vector  ETV
attr source  responseTimeSignal
0	1445 39685 1221 16765 78029.581693480177 950120.684846875009 919 272.81131426596 20951.630468924 4977015.8964997 36228931082.321
1	41130 34783 1205 16751 73958.985335130779 949926.89098454374 917 0 3139.225464621 245499.83585887 221073828.18347
2	75913 53734 1203 16751 73958.985335130779 949926.89098454374 1834 0 8 1411 2481
3	129647 35365 1217 16761 77995.608952041082 950013.940122160406 919 0 8998.6858134605 882738.03164719 3074560513.0623
4	165012 53941 1215 16761 77995.608952041082 950013.940122160406 1838 0 16 3301 17771
5	218953 16869 1200 16763 72001.44 950019 879 0 5 917 1909
6	235822 16870 1200 16763 72001.44 950019 879 0 10 918 2214
7	252692 53799 1209 16754 74163.856027849776 949942.509202890031 1836 0 11 5984 25130
