file 294317 1483627121                                          
version 2
run QueueMeasurement-43-20170105-15:38:40-5137
attr configname QueueMeasurement
attr datetime 20170105-15:38:40
attr experiment QueueMeasurement
attr inifile queueStudy.ini
attr iterationvars ""
attr iterationvars2 $repetition=43
attr measurement ""
attr network SimNetwork
attr processid 5137
attr repetition 43
attr replication #43
attr resultdir results
attr runnumber 43
attr seedset 43
param SimNetwork.a.parkingLot.parkingDelay exponential(45min)
param SimNetwork.a.runway.landingTime exponential(5min)
param SimNetwork.a.runway.takeoffTime exponential(5min)
param SimNetwork.a.runway.throughputCheckInterval 16.667min
param SimNetwork.wg.interArrivalTime exponential(16.667min)

vector 5  SimNetwork.a.runway  landedThroughput:vector  ETV
attr source  landedThroughputSignal
vector 6  SimNetwork.a.runway  tookoffThroughput:vector  ETV
attr source  tookoffThroughputSignal
vector 7  SimNetwork.a.parkingLot  parkingOccupancy:vector  ETV
attr source  parkingOccupancy
vector 2  SimNetwork.a.landingQueue  queueLength:vector  ETV
attr source  queueLengthSignal
vector 1  SimNetwork.a.landingQueue  queueTime:vector  ETV
attr source  queueTimeSignal
vector 4  SimNetwork.a.takeoffQueue  queueLength:vector  ETV
attr source  queueLengthSignal
vector 3  SimNetwork.a.takeoffQueue  queueTime:vector  ETV
attr source  queueTimeSignal
vector 0  SimNetwork.wg  responseTime:vector  ETV
attr source  responseTimeSignal
0	1426 38078 956 15916 73435.316731122177 949801.651179486113 883 545.27605508226 22935.208301732 4683407.8977281 32576300805.785
1	39504 33388 936 15905 72531.832106899622 949303.394172597642 882 0 2633.2451209994 209834.24438644 137960140.26124
2	72892 51510 936 15905 72531.832106899622 949303.394172597642 1762 0 4 1259 1769
3	124402 33145 950 15913 73148.252921272111 949679.577932229686 883 0 4710.7573803428 528164.16724147 969703140.32093
4	157547 51593 944 15913 72721.713376364632 949679.577932229686 1763 0 13 2015 6301
5	209140 16801 932 15918 72001.44 950019 879 0 5 884 1794
6	225941 16801 932 15918 72001.44 950019 879 0 7 884 1856
7	242742 51575 934 15910 72531.832106899622 949679.577932229686 1763 0 12 5940 25466
