version 2
run QueueMeasurement-103-20170109-14:19:50-6536
attr configname QueueMeasurement
attr datetime 20170109-14:19:50
attr experiment QueueMeasurement
attr inifile queueStudy.ini
attr iterationvars ""
attr iterationvars2 $repetition=103
attr measurement ""
attr network controltower.SimNetwork
attr processid 6536
attr repetition 103
attr replication #103
attr resultdir results
attr runnumber 103
attr seedset 103
param SimNetwork.a.parkingLot.parkingDelay exponential(45min)
param SimNetwork.a.runway.landingTime exponential(5min)
param SimNetwork.a.runway.takeoffTime exponential(5min)
param SimNetwork.a.runway.throughputCheckInterval 16.667min
param SimNetwork.wg.interArrivalTime exponential(16.667min)

vector 5  SimNetwork.a.runway  landedThroughput:vector  ETV
attr source  landedThroughputSignal
vector 6  SimNetwork.a.runway  tookoffThroughput:vector  ETV
attr source  tookoffThroughputSignal
vector 7  SimNetwork.a.parkingLot  parkingOccupancy:vector  ETV
attr source  parkingOccupancy
vector 4  SimNetwork.a.takeoffQueue  queueLength:vector  ETV
attr source  queueLengthSignal
vector 3  SimNetwork.a.takeoffQueue  queueTime:vector  ETV
attr source  queueTimeSignal
vector 0  SimNetwork.wg  responseTime:vector  ETV
attr source  responseTimeSignal
vector 2  SimNetwork.a.landingQueue  queueLength:vector  ETV
attr source  queueLengthSignal
vector 1  SimNetwork.a.landingQueue  queueTime:vector  ETV
attr source  queueTimeSignal
0	1095	72686.770508725906	5202.4988989016
0	1107	73400.002741389625	5064.4017116966
0	1145	76331.563289534289	2947.6001976179
0	1155	76716.531179454304	14594.650202474
0	1167	77584.524518040528	3752.4072891967
0	1192	78305.28332275725	8990.7485804318
0	1217	79523.811127485803	2048.9153757735
0	1225	79609.582785376627	1929.3604904734
0	1239	80261.68215646793	6707.1720368935
0	1250	80491.705282736003	1771.8752819743
0	1270	81905.431902915538	3831.2260678175
0	1279	82091.094525954695	6737.698022465
0	1289	82205.040687229917	2638.2609249285
0	1331	84131.447091391575	958.55622995119
0	1384	86244.596165595673	2037.8713184407
0	1389	86324.690683643378	3878.8096711879
0	1400	86692.513381650234	3052.2480709553
0	1434	88116.842425027438	3200.3242731109
0	1439	88190.601550005899	5087.9179222565
0	1450	88454.933690248309	6488.2223962346
0	1458	88667.767009387459	2143.236536653
0	1463	88716.716083725367	3260.6895785172
0	1472	89531.039252018579	4186.7727661722
0	1505	92079.934064911646	4664.0508639083
0	1516	92287.062726995266	11942.168532898
0	1524	92541.866371142695	5808.7404135366
0	1534	92801.386993500837	2171.3620127881
0	1546	93123.815496527956	8089.633535029
0	1559	93447.761259528529	2170.6294496986
0	1576	94409.534448301738	1489.5439272598
0	1589	94908.101455625376	2474.3959617486
0	1615	96096.121260806822	2735.3199415219
0	1652	98210.28749172189	2948.0963799837
0	1657	98327.693872404024	2214.3972639127
0	1666	99037.252709681582	2086.0802826147
0	1677	99887.14024976501	5542.4560055353
0	1749	103742.59646771798	2159.8095230026
0	1760	104444.45659640978	2968.9945157929
0	1768	104754.557923703656	9498.6599036204
0	1773	104907.791906571802	3708.4676348134
0	1788	105807.28559162134	8667.6100012977
0	1832	107140.671445134046	7037.6611018606
0	1837	107141.8990183626	7546.7155783591
0	1842	107157.486029887719	4946.9072936797
0	1851	108081.804817306903	3052.3219712142
0	1870	108804.060737704785	2856.4983348917
0	1895	109581.445329984719	4070.1192941009
0	1909	109936.110587071867	4560.6868485292
0	1920	110448.112806663093	2139.1769677143
0	1925	110580.730002922857	7437.3459129713
0	1945	111094.819670147561	2413.6693747734
0	1953	111765.022693193674	2049.9570199372
0	1966	111975.039130740539	5804.1033029541
0	1976	113077.05922074339	4151.2675014874
0	1994	115229.592826196546	4015.8532769925
0	2014	116507.187233589604	5822.6776548456
0	2045	118033.338572985317	2212.6105977532
0	2059	118765.475135124245	3680.9341186202
0	2065	119030.610338174206	2153.5679819571
0	2070	119269.040233095333	2766.0972900388
0	2115	121280.368713137196	3916.6523244415
0	2134	121972.697324142922	2159.375720132
0	2153	122147.357578444093	1825.8808962752
0	2162	123102.086587165647	3269.6803845593
0	2171	124360.121741819711	2845.3596235265
0	2194	125572.135075443339	6171.651756125
0	2204	125983.637510541542	3971.1233973031
0	2216	126698.20900259897	2068.9189893956
0	2221	126864.777270278352	5828.0283072274
0	2248	129571.696386793288	2179.9858150487
0	2276	132872.190841121823	7399.4376847245
0	2292	133121.738690073103	4389.3235235032
0	2300	133328.075408607737	765.27721183422
0	2342	135165.053754348645	4920.7469336985
0	2382	137070.189239727456	3196.8900307124
0	2387	137268.899645822119	2886.7612686313
0	2392	137614.434433434006	3726.4474148447
0	2407	138704.249254196261	5957.2425768919
0	2418	139088.061422075219	2921.6862111392
0	2468	140681.906886676796	2039.1803976972
0	2481	140937.068606847096	5142.3421094683
0	2487	141137.277391741689	4720.6242468769
0	2492	141242.92328853356	1382.8293707067
0	2513	143268.827090595173	3948.8843289311
0	2518	143319.111606119952	3519.1820527271
0	2535	144423.689480750935	3810.0111520451
0	2566	148614.156801349341	7294.3581607295
0	2571	148787.91168602694	9046.9677307218
0	2590	151997.59962111624	5486.5264887206
0	2599	152802.029774289339	9036.6340272882
0	2616	153461.735496583418	7332.3513293456
0	2633	154802.60550299296	5706.3983858143
0	2652	157185.75520867592	3262.886102717
0	2663	157275.907781415348	23309.660470841
0	2705	158582.585474610207	5600.7744081945
0	2719	159041.649397718906	1673.3418035221
0	2732	159950.739881370915	4432.5528182867
0	2743	160086.171432794844	2847.7944224453
0	2751	160651.757597775706	1720.801450054
0	2777	162705.703236599383	2778.9858635448
0	2787	164083.981383356356	6588.195447282
0	2813	166129.326564923478	7714.7540087929
0	2821	166293.071208840816	2207.0414937763
0	2849	167997.970196905877	6298.180873106
0	2855	168134.730239723761	6652.2500422372
0	2880	169157.242395056321	2848.8746652529
0	2888	169506.767261308304	5009.6240044059
0	2897	170057.839522621083	3207.1866969029
0	2937	172825.760876279218	4090.656189226
0	2968	174571.183111742867	3179.7304432494
0	3004	175899.611701381332	6966.007721025
0	3010	176094.441127442323	3271.7787457175
0	3015	176283.703117813416	1922.7549019399
0	3026	176968.931995137204	2238.0934970962
0	3042	178036.033603361174	7729.5493210307
0	3053	179113.48923058734	5433.5147898025
0	3058	179901.229254535303	7571.6308194388
0	3099	182542.894383850447	11974.495241704
0	3121	183039.385490206235	5993.7241703325
0	3126	183124.419195025818	8242.1707482472
0	3179	185975.277219140066	3258.0583002062
0	3188	186267.723233450047	5646.286905842
0	3193	186332.169577202909	5967.9980082576
0	3201	186862.531271808397	2908.6601659518
0	3218	187704.380003183502	2544.6118462653
0	3236	188870.471305590883	3576.3703693042
0	3275	190171.556692270513	4914.8104860527
0	3283	190308.565600382166	3358.6289018981
0	3291	190769.577543324819	2226.0076085909
0	3300	191243.021136083715	2892.9030591122
0	3305	191499.850372470076	2970.6626491253
0	3313	191914.432925710012	7563.780403605
0	3326	193108.762670360774	11448.821873692
0	3363	196122.273816959383	7029.7377583213
0	3371	196532.043266925282	3742.0896795899
0	3389	198146.124739425373	3973.6782054956
0	3401	199101.448228234721	18466.913668096
0	3406	199128.372360037505	3607.6973726915
0	3429	200732.074205207548	7743.1959236594
0	3443	201753.27707935826	4790.544436542
0	3460	202470.302319949411	3260.7818166722
0	3474	203289.021568675784	2400.4149932871
0	3496	206386.626555463376	4036.7671175662
0	3509	206812.181437566338	6286.2972410437
0	3518	207453.276159634237	4037.3953291017
0	3564	210907.345446025622	4550.6182673743
0	3617	212861.213393230835	3874.6437170826
0	3634	214000.642585069237	2738.8813961091
0	3643	214389.924061978647	2819.0004831162
0	3648	214634.800287860302	3015.7053725065
0	3653	214640.943748171943	3528.2632156192
0	3668	215276.011337821119	5399.3772519482
0	3673	215412.199158785884	5916.8102146756
0	3678	215445.991712534565	5882.7950160233
0	3699	217521.046641825322	5100.0877312506
0	3742	220548.309821335846	3834.3202093706
0	3759	220946.065052782492	1306.6764980348
0	3775	221291.272388513872	10740.825145268
0	3780	221304.425283206513	1960.7255567101
0	3814	223588.221104315141	3010.2324483647
0	3823	224412.036216330496	7305.6948759883
0	3832	225608.05770580097	4754.9251072436
0	3847	226121.628672303548	6098.5142116202
0	3860	226506.864225694337	4303.020834539
0	3908	228235.218711985789	1814.4469150856
0	3916	228516.330379990188	7119.8902785012
0	3933	229377.935742590032	6992.318355942
0	3946	229543.127203276349	2985.8405218382
0	3951	229783.123023043851	2488.7677043897
0	3956	229852.178943341089	3749.4746346114
0	3991	232847.676006416844	3673.2843147974
0	4008	233750.854930408389	5957.7414210245
0	4016	233870.113121602351	3263.7902453541
0	4054	235818.574112531825	5836.4154537844
0	4073	236513.798423536598	4681.4087199604
0	4085	237315.391648557859	8928.6060257824
0	4112	238572.153048313399	4571.6004903026
0	4124	239037.04103901144	4079.6365751829
0	4140	239533.552945813149	5468.7763857959
0	4153	239648.688335777593	3632.699371524
0	4158	239734.282338188827	6863.741564135
0	4176	241474.381658334262	4001.0034447888
0	4193	242838.922897946626	4241.2119528285
0	4203	244146.001601548241	7482.8617690643
0	4223	245720.110622721515	9162.4154509181
0	4228	246004.677853606293	5333.9592993198
0	4263	248461.142202500508	9296.9234458415
0	4298	251442.884608831006	6584.7690701093
0	4310	252908.463248620771	3476.5898520314
0	4319	253187.346584607748	5399.4102142782
0	4340	253421.644472322418	6439.7972081794
0	4357	254758.246582336181	4633.1819677301
0	4366	255389.595041694138	13659.392334918
0	4389	256216.577886886274	2982.6846133753
0	4399	256534.419103376256	3388.4542593907
0	4415	258045.321453050478	7472.4684362794
0	4434	258989.527747964627	4983.524516021
0	4445	259376.92059844897	3217.2278129138
0	4451	260247.87430602182	4417.5094672141
0	4463	261035.439152337213	3082.2179168273
0	4468	261340.371681523271	13917.11963435
0	4510	263422.583096797157	4902.5384225181
0	4519	264344.412421083132	1568.3295558447
0	4551	266805.946601815878	4892.7733987819
0	4556	266813.450967118321	3859.904879248
0	4561	266823.72221400287	4129.2134541995
0	4591	269228.607966006066	4037.897805574
0	4605	270617.176430831311	4651.811641742
0	4617	271176.409137991491	4021.3598094541
0	4622	271490.093319148376	3072.0050613711
0	4647	272982.807069074156	3886.2965282915
0	4685	275397.829613945803	1292.8326799718
0	4693	275557.61166260581	2890.1858002291
0	4707	276365.700719024072	3113.6921002736
0	4723	276979.082501244844	1568.3822639483
0	4732	277190.296133616225	5414.845956024
0	4758	279390.010138465112	5063.0547575726
0	4768	281095.35859212908	3354.3774720092
0	4799	282893.537270271258	1544.4230901071
0	4864	285171.108574127019	7226.0227919159
0	4869	285175.286600982093	8803.4064356621
0	4877	285303.596856520749	2205.5378174065
0	4897	286235.937767520745	3119.7726934618
0	4911	287091.925743779853	3891.7803096728
0	4919	287437.685136155258	5520.9411543377
0	4924	287524.529529623549	5015.5611861672
0	4930	288020.516506554783	3451.0027382901
0	4935	288153.538576602166	4303.4559796461
0	4952	289035.133427792193	3817.0815520687
0	4983	290565.714833610945	2233.3328544005
0	4994	291214.863612506314	2010.4419647079
0	5002	291721.817204062988	2225.2129913256
0	5028	295498.919440525203	9359.3970272724
0	5075	299234.205413069584	6668.3254186648
0	5113	300627.338426815413	4746.6435606782
0	5131	301558.660751687385	11131.833205693
0	5163	302494.414121183535	7319.4725887773
0	5168	302773.471867352724	3725.1670914117
0	5173	302971.870589503984	3239.6342263443
0	5185	303335.282679728207	8320.4225660428
0	5193	303640.73881548753	2758.3434758565
0	5198	303699.157830435677	4480.419358334
0	5210	304909.409283980098	6704.1700599264
0	5232	305998.634996201704	3883.1334350274
0	5247	306409.103947166087	2000.7554947257
0	5261	307311.553859385711	6004.6458542037
0	5266	307618.118779596513	8260.2533841261
0	5279	309977.693291326098	8586.0208654537
0	5310	311181.852713000641	5726.0997436103
0	5345	313129.849153398188	3353.4316754484
0	5382	313910.792927919786	3017.0202420255
0	5392	313975.268204114281	7695.1407103138
0	5401	314272.090525689793	1271.4584357969
0	5483	317591.863255821386	5958.3332820767
0	5498	318230.882456373881	5062.8129888018
0	5534	319215.035380305438	6762.8120395779
0	5555	320777.153099975803	6879.7424190313
0	5583	322126.454783482314	6670.809851321
0	5588	322229.608562258642	11833.429488888
0	5599	322523.306814118163	7338.2361738882
0	5645	325403.612956011101	9603.3514151503
0	5650	325423.3974120603	8829.8022551275
0	5668	326336.801487962394	8499.2090422546
0	5690	327162.878777364274	14452.370430186
0	5695	327180.324971703697	10575.095633353
0	5706	327473.537499504954	9801.118515475
0	5744	328395.635384101781	12088.513061376
0	5759	329059.581271062164	13617.622020314
0	5781	330156.723336879298	17141.921213481
0	5794	330378.270148387356	10388.635249799
0	5799	330573.683236395223	9451.0035524652
0	5811	331410.88703223009	13459.707920254
0	5824	331754.555135274273	12183.721459988
0	5842	332671.055933643312	10343.87219983
0	5866	333641.132157886386	10046.913787759
0	5883	334561.812880669605	10132.430501032
0	5973	337102.97383748869	9629.8813817987
0	5981	337341.507951795029	9755.9632947876
0	6004	338654.240456781571	14539.500524955
0	6009	338685.362900707963	11400.439807477
0	6017	338740.367609883276	9348.9367811901
0	6028	339249.182409083547	13209.059309727
0	6036	339548.785862724947	10997.778435192
0	6042	340073.333559853071	14497.431879197
0	6050	340084.10579821442	8291.7829910745
0	6063	340761.839702837677	13141.132644868
0	6077	341199.285234782029	11062.801414489
0	6087	341663.982729167379	9458.7697519398
0	6092	341731.65112074197	7079.2311527893
0	6110	342917.958798870258	8371.8020607142
0	6189	346777.731982640438	12994.035164466
0	6198	347461.0568947778	13859.5215465
0	6219	348611.359293336941	16783.863586904
0	6227	348883.556503441544	13407.696122019
0	6232	348941.674689843967	18018.2831179
0	6238	349080.515969085486	13929.092006433
0	6243	349799.279965408439	13210.044057666
0	6249	350137.862785064258	15559.24937053
0	6254	350163.153008208061	9550.863465405
0	6259	350512.633961300843	10434.838905723
0	6264	350579.60260095426	11889.488726664
0	6270	351069.724877441394	9944.755995781
0	6278	351222.85445951881	9095.7735358755
0	6413	357379.765958799899	11994.319241478
0	6418	357561.368209557665	20430.396557629
0	6423	357585.936715515857	15771.795373142
0	6438	358015.575424618381	14624.597543836
0	6443	358064.336727662415	12964.039224787
0	6448	358150.043384432821	13179.639695621
0	6453	358151.262147216994	22801.790621913
0	6461	358944.20254198915	13521.537187395
0	6473	359527.17554432969	8133.0228781286
0	6483	359976.991341712133	8800.5949740417
0	6489	360067.567017043163	8213.8457719606
0	6510	361288.355054708838	9754.0240229309
0	6532	361967.871373118025	7256.835323235
0	6578	364429.604717409215	10083.792573973
0	6583	364457.989213632303	12642.338901013
0	6588	364810.762015273713	11626.5727016
0	6594	365109.655166457317	21215.361779257
0	6599	365162.217359558224	11581.11390305
0	6607	365522.610309898204	8718.1599327086
0	6612	365648.872286166945	10734.250853618
0	6618	366606.568478070768	10041.031255497
0	6636	367559.019997153131	12175.999529067
0	6675	368005.791347118955	8770.590967311
0	6687	368661.807174223129	15554.003255843
0	6703	369029.15241380439	8046.335992382
0	6715	370173.374650282057	8601.058321483
0	6735	371022.947897600379	9507.1558909026
0	6745	371384.786954007731	8874.9671474018
0	6750	371426.607638776795	8535.9504737918
0	6758	371804.22711460085	4890.4817421132
0	6769	372023.466658865795	4537.5376202702
0	6774	372062.618939279697	4489.6651222451
0	6782	372868.74529013728	6252.332012476
0	6790	372991.104188188481	4982.9729541838
0	6796	373027.242605186226	5015.7498254094
0	6822	375225.084123573544	4659.6960434531
0	6840	376419.650539637861	7271.7317297358
0	6879	378602.641570514718	4647.3000532738
0	6884	378672.780975129416	7189.9848305552
0	6889	378701.065505158906	11354.932261524
0	6898	379336.470668727081	3250.6196097118
0	6907	380886.593412443052	3420.4746247292
0	6918	383354.599186052947	8627.1927279382
0	6944	387346.432200192207	9486.8819051792
0	6954	387645.177806591615	11211.039513845
0	6996	389250.957967041243	1072.302863456
0	7028	391060.424141733456	2201.3555293564
0	7036	391467.313231720807	6663.5949076531
0	7042	392597.276803236886	3975.18059934
0	7048	393022.049333443525	4589.7487831851
0	7081	394774.590166314666	5263.3627190198
0	7107	396726.425076636369	3320.9947364679
0	7116	397308.027561251643	10367.683613005
0	7124	397741.414396184958	2060.2261461663
0	7134	399326.456053787912	5298.0190157861
0	7142	399833.301962130719	9981.8834825516
0	7169	402070.018629356012	8754.615714673
0	7189	403519.465107709508	1854.0832129597
0	7202	403966.037965411373	8059.5390968241
0	7211	404474.691133747446	2129.8565776027
0	7261	406880.80565945518	2241.1897281022
0	7279	407844.676149363327	7065.3085535151
0	7391	411484.760655401888	6448.1524974013
0	7399	411617.281370596094	4365.0479733448
0	7413	412762.642394958863	4881.0955391582
0	7418	412780.211277770082	5358.0780482515
0	7429	412973.902694516394	4255.9368053261
0	7435	413087.328357279483	9771.8935369153
0	7440	413419.714393766211	7630.0624706161
0	7445	413497.197447473201	8716.2844515842
0	7454	414146.211722083337	4076.7556514759
0	7459	414279.7192845325	4752.6238636016
0	7470	414658.96480896417	6426.5381491078
0	7479	415082.927812027646	5151.3145332272
0	7484	415404.67444681167	4501.8066594748
0	7489	415518.420982293518	10762.977337627
0	7494	415765.992243294106	7013.7936614642
0	7532	418921.713223541115	8737.8438906014
0	7555	420133.372714636967	8619.5265093295
0	7572	421105.881140907333	3866.3094093265
0	7590	422965.040356062158	4060.9770892448
0	7613	424175.696724052431	4929.0583880474
0	7641	425899.178732345907	7711.6786819339
0	7647	426092.547414568277	3053.6680420526
0	7652	426231.479962839369	5171.2840600491
0	7657	426294.392726197201	10204.790429704
0	7682	427769.990583870879	2852.8002974852
0	7702	430040.106764881736	7275.9781153693
0	7713	431079.542413990094	4699.5627595962
0	7718	431152.40136404123	7014.3715584907
0	7762	434560.006886360836	3269.3383122642
0	7778	435163.287152033808	6354.1823338833
0	7786	435320.391319275617	3352.6592055099
0	7795	436127.320839008103	2498.9864267571
0	7803	436286.663115815312	3811.2306670598
0	7836	439414.155431587278	2877.493196124
0	7863	440833.14050865567	14120.655345243
0	7872	441320.625261297473	2080.2946458259
0	7884	442124.504125415319	4089.2114171142
0	7898	443933.495537925242	10017.057669266
0	7907	444959.047632063624	5877.8678550138
0	7926	447106.389811656495	5012.8985593737
0	7935	448044.284364102139	7619.7084100493
0	7961	450279.60083982624	571.61441139299
0	7970	451209.440898747408	4617.4537487228
0	7996	453922.180229494412	3698.6531744682
0	8014	455459.753679181307	3475.5194822624
0	8023	456696.93219912124	4812.0876946933
0	8063	461104.736214046268	4288.1838631197
0	8093	462598.998122572104	4374.9411524788
0	8102	463637.905326270901	9311.4291678774
0	8117	464135.264712049139	4152.5318446957
0	8127	464429.977822757044	3226.9032467585
0	8152	465860.060263215681	1040.4203612463
0	8162	467613.728579849988	10584.377636627
0	8196	471559.799468088833	7451.7527202163
0	8206	471832.215842433212	9898.6178494037
0	8216	473397.565751497777	4755.9221414625
0	8248	475211.136162352582	9551.9275629502
0	8258	475290.245073072699	4432.9199505721
0	8266	475579.559734741337	1411.1392177583
0	8275	476658.585897691788	2935.1260862952
0	8293	478756.908817297098	4235.9393945268
0	8320	481481.887364026753	3256.5581563309
0	8366	484466.85927159237	2960.2301574731
0	8371	484516.258834202811	1828.3052080208
0	8398	486099.728613021059	6927.9888177974
0	8408	486834.397573750527	3222.7434184645
0	8414	487289.122764253435	5290.1402427163
0	8430	487911.323693781254	7318.0033271254
0	8450	488387.650399066668	3525.6462382531
0	8458	488750.760432704359	20414.243023136
0	8482	491377.353215241072	2694.2783535427
0	8494	492574.793875627565	5228.2795473227
0	8511	493591.655752997924	7957.2681887692
0	8516	493637.562170399098	5634.8573535319
0	8533	494865.67046382329	2527.3370838344
0	8542	495886.136437359	6077.6026584639
0	8569	498047.609876309808	4065.8707053536
0	8585	500243.287914486498	3697.5550768784
0	8620	501745.765813812212	2263.1866505267
0	8631	501970.945130643592	1553.9228406534
0	8637	502340.05507489366	4655.908538919
0	8666	504797.976007603382	1753.1025831895
0	8671	504879.358201854746	4799.0738220717
0	8689	506096.140324727683	2438.9910120027
0	8706	507027.662426333251	5960.1635572719
0	8753	511574.914009469054	4868.312781176
0	8786	512610.365148997517	1969.0614879442
0	8791	512646.832983238697	1156.8517643767
0	8799	512750.243570048183	1011.8450085511
0	8816	513863.24545028448	2814.6153363281
0	8833	514283.046488115846	2918.1479212329
0	8858	515746.587487810758	3718.1550011878
0	8875	516101.673969919278	1040.2634510149
0	8883	516312.138293331502	3048.3515066104
0	8892	517102.426220662424	8255.5660022591
0	8903	517510.343233060484	3600.6491287634
0	8915	518096.944133760638	13057.460036219
0	8939	518918.876073319967	3097.9107656222
0	8966	519542.728785244484	1788.2605180204
0	8975	520701.493116642689	5422.4010703246
0	9003	521310.567151017361	3766.1058953668
0	9016	521587.381405053212	2570.3311695713
0	9037	523033.779946677726	2249.5368127393
0	9042	523098.470166667208	2214.7923653885
0	9058	523891.552147277075	2825.1088079345
0	9068	525080.398193609806	2774.9747480732
0	9103	528840.811459222275	9962.2324225654
0	9120	529209.887393848043	2855.5783774848
0	9132	530066.542819594723	1462.2215061121
0	9143	530661.131750517399	2455.0049486114
0	9153	530809.630911602561	12412.227744248
0	9162	531257.500899655224	2412.7458417936
0	9180	533614.764568117975	10189.227924016
0	9277	538414.793297684812	8103.8650329796
0	9282	538493.142361426881	4231.6963761563
0	9287	538536.853705743648	4088.9178643275
0	9292	538735.734650116293	5576.4939712465
0	9297	538804.47803943565	3866.3731312237
0	9315	540156.071768079479	4404.1070901275
0	9323	540360.81448664944	4796.7834365995
0	9331	540630.669272465596	4937.5071598238
0	9345	540932.528054002809	4193.6214866132
0	9364	541472.616640948029	1576.3151241344
0	9376	542660.613425514751	8380.8654199062
0	9389	542871.932403247956	2082.183645687
0	9407	544987.71092830214	4163.9263786384
0	9426	547107.013857513819	2711.5543488525
0	9498	551102.544675340552	4449.2604420261
0	9506	551421.829918017551	4089.0451562299
0	9514	551879.070798703668	9606.1244441835
0	9538	553024.40608049377	17599.722338622
0	9604	555859.377147771602	7966.0825512004
0	9609	555930.231865311662	7474.6225043608
0	9614	555998.339204979629	7013.1901518908
0	9620	556254.580288391674	3922.0601695498
0	9625	556998.786121897051	8371.6253848426
0	9631	557162.804851512311	4377.6845593798
0	9636	557562.834066836021	4066.729729958
0	9653	558618.811339135784	4704.4208941748
0	9665	559118.064626509661	9477.1258021211
0	9670	559147.578263915663	6486.1589700971
0	9689	562019.399465180754	4060.298313451
0	9697	562632.771534404705	11125.505850239
0	9706	563352.033511341198	8330.1165805739
0	9732	565802.850465774564	11743.086323981
0	9749	566836.469941300107	2244.5971371318
0	9761	567060.944271014678	3098.953214115
0	9766	567601.631385787304	6691.4004697037
0	9832	571409.749271540629	5510.8107283846
0	9848	571802.937733616183	2803.2739263423
0	9857	572334.287754307853	1405.4496218352
0	9862	572434.575068516902	4704.1006780148
0	9871	573396.264060229032	4754.6907397509
0	9884	573824.950530081198	4903.9552349216
0	9910	575206.694547578902	4759.5464674757
0	9918	575290.957785590599	3888.6315005514
0	9954	576997.630806316016	4454.5867813217
0	9968	577438.728851699411	3346.0060589907
0	9992	579692.713850037773	2777.9349977354
0	9998	580227.347268603562	4787.3220677727
0	10006	580873.641413454261	4880.8910849435
0	10015	581089.788706033954	7205.1548931562
0	10028	581698.867785321623	6028.8116500102
0	10045	582140.758917999376	3737.8314181912
0	10073	583840.767680314725	2962.6828021617
0	10078	583946.138725975796	2210.7777948414
0	10095	584850.96281122041	1729.5572151086
0	10104	585959.197768480269	2637.9168961805
0	10163	588858.136897383192	1885.0689333131
0	10174	588997.745013597237	4926.918024752
0	10180	589044.559007078857	1930.8837525944
0	10199	589634.12502637455	1593.9133078762
0	10222	591558.570831383633	2036.3713475749
0	10256	593091.28642741949	6926.3530212524
0	10264	593537.956195037548	1387.8642866131
0	10272	593777.430932459056	5297.2493230659
0	10284	594327.692533974148	4557.0433892606
0	10292	594632.603479766795	5483.186293477
0	10322	595503.7305230824	3327.1919627333
0	10330	595552.425931849517	2983.3888710481
0	10355	596542.922351373133	1360.3222676924
0	10363	596824.093321790068	1561.3392780513
0	10381	598847.660759817302	3111.2528447995
0	10390	599044.825645752266	4615.6450649215
0	10432	601074.344701460665	3967.330530231
0	10440	601276.353385207447	768.76535713327
0	10461	603022.526002791593	16169.709619808
0	10475	603330.094084917663	2401.1668595239
0	10493	603947.094332422496	4356.2018818547
0	10510	604748.443889548719	5324.3319693083
0	10524	605156.852931118554	2010.5914435076
0	10538	605453.625486744925	1675.3658801036
0	10583	609399.092066934283	7260.4466916614
0	10603	611089.335575047919	8056.2319198368
0	10611	611825.764908925521	15744.337711207
0	10620	612206.418573363883	6778.7948750254
0	10639	612379.795998771926	7707.4030015245
0	10649	612477.567576244633	4840.2404774422
0	10654	612697.514614681811	6103.4219563618
0	10659	612785.745789746054	4495.2264296132
0	10668	613442.904651525019	4021.1964486391
0	10686	615972.368321897355	4069.3848019699
0	10704	617803.402821703379	5453.3446032129
0	10723	620309.226103116871	2754.0044683563
0	10767	624372.980224051619	1648.3196640938
0	10787	625892.2101020359	4593.1519622556
0	10801	626311.760615054183	6724.24476935
0	10810	627070.485421045604	3349.78205942
0	10818	627597.284546978187	12652.468115531
0	10835	628943.994528077515	6494.4923092311
0	10847	629388.280308219391	3987.606201544
0	10881	631972.945000460253	2778.1415371083
0	10895	632951.070909408741	3197.8550269845
0	10924	634964.402993613324	9265.6552127638
0	10930	635014.366940528489	3368.6749342367
0	10938	635102.699021756918	4035.708373285
0	10955	636314.176409747485	7463.056551361
0	10963	637009.917313930057	3341.2565246519
0	10985	639482.309129907274	5975.6479272018
0	10990	639929.160654631555	4361.1468361774
0	11020	642535.665879031734	3839.1576765362
0	11042	643933.415862617314	3851.7204006014
0	11051	644696.8891748737	2219.0041030228
0	11071	648579.886702739233	5633.9840787738
0	11112	652012.386870500558	6490.993427051
0	11131	652577.007713059431	11389.300638113
0	11184	654268.629523060857	1536.1680968027
0	11189	654311.512259189155	1371.5078244866
0	11203	654786.057593493374	3037.3925119018
0	11211	654951.46822749814	5480.7672778867
0	11217	655204.533599843515	1732.1562878632
0	11222	655221.455439024484	3943.221489131
0	11256	657674.207984185398	7334.0138752934
0	11283	659493.94750668179	6666.4123090131
0	11297	660518.659377118297	3786.5344143728
0	11308	660913.850881061163	4544.2662685948
0	11322	661460.812905590757	7850.9854372671
0	11338	661795.409408198902	9989.5569255062
0	11343	661861.712862489152	5171.1211669862
0	11348	661907.563556306574	3565.2492963832
0	11357	662285.716838500989	1499.9391991496
0	11387	665014.793717296863	6250.6425262755
0	11418	666583.210055221919	1896.7081832818
0	11429	667441.091445117193	6179.8571365367
0	11434	667490.498830124506	4350.6850518915
0	11442	667789.606102594422	2460.4746087826
0	11461	670107.186514009763	6640.2579947945
0	11479	672440.491315129402	2768.5237289399
0	11496	673665.148756069593	2936.1371902545
0	11553	678883.179137473389	12348.581420927
0	11577	679613.978385764239	4001.7863667092
0	11595	680358.245866925212	2511.5199099499
0	11627	680915.418462728231	2612.8621089318
0	11639	681182.43672485196	3880.6334076513
0	11650	682125.995502275943	8677.3826932688
0	11655	682154.967127886378	2087.7878527619
0	11663	682836.414093094731	6307.805045725
0	11674	683150.242716194221	2770.3695529699
0	11690	683962.318645889619	5939.3894301319
0	11699	684156.91973073454	5511.8404924525
0	11738	688345.273352316103	2518.6015347001
0	11743	688376.32284338564	5990.5422551741
0	11766	689820.534315856747	9337.1919548426
0	11792	691104.105032410768	10167.66244279
0	11805	691520.685032130029	8239.6731964469
0	11810	691526.662625286501	1057.4002548428
0	11828	693092.164376488035	4635.7709348472
0	11859	694898.408917013339	7929.2993443876
0	11864	694962.081373991791	3883.7837238647
0	11870	695167.338011390631	7280.1091183081
0	11878	695338.45440588738	5796.6382705506
0	11886	695817.310899337243	2386.9164712439
0	11968	699180.19213536567	6922.21916056
0	11973	699212.562328877006	2174.015815827
0	11978	699406.528110263736	5033.4033000846
0	11987	700952.626158777016	3604.6452371314
0	11999	701717.496771323541	5096.5133006635
0	12021	702271.54794440058	4427.7868497904
0	12032	702825.089887588449	6316.8969351523
0	12038	703439.062670258417	1768.5524195667
0	12072	705329.607763663415	7020.6437559445
0	12080	705869.969644925926	8245.4905030009
0	12093	707214.567658423714	9545.0016041556
0	12133	712120.163757300737	8175.4975280107
0	12144	712497.305092102505	8270.4880621066
0	12158	713841.437747735243	11694.923944431
0	12169	714356.459315961402	7161.9902188676
0	12210	716110.135034849466	11246.151038576
0	12239	716771.956119657501	6773.2631516233
0	12253	717143.229756877612	3350.4485858413
0	12263	717233.604932683933	7398.4342783597
0	12281	718644.356540833544	4159.4549060891
0	12286	718649.908720045726	2289.1356254156
0	12291	718792.210661274721	3317.2118924975
0	12296	718824.756868076003	3267.950176288
0	12301	718996.442740894254	6687.9845666664
0	12313	719537.128023411834	5069.7275846881
0	12329	722528.170770845491	5455.3159836934
0	12338	723435.677220195197	7510.2786303739
0	12367	725687.95258582708	6192.5714067511
0	12383	728353.28359381462	4455.9221857136
0	12392	729365.690691672527	4918.9930266483
0	12417	732880.123585349189	7669.8311140545
0	12445	734517.726417463174	3103.7178410081
0	12462	735667.367938580671	2890.6053449839
0	12471	736277.222387960094	1847.5641869621
0	12487	736859.122145513665	4370.3483939803
0	12514	739830.796451716019	4757.1832492706
0	12549	742410.987268991193	2082.4583292584
0	12561	743207.610155553236	4050.9492841789
0	12566	743265.317117501637	2283.3353151688
0	12575	744491.917208208893	8198.0621433235
0	12584	745265.034382110413	7672.8550243482
0	12609	746697.335178185389	4945.8973073297
0	12627	748118.491985574027	2788.9063914007
0	12635	748702.783786467566	2716.8028052461
0	12662	751250.347753292384	2459.5703813101
0	12679	752188.220447754758	5222.9946948238
0	12695	752884.149395872004	2437.1996403307
0	12734	756647.464882308261	4139.4987213851
0	12841	761066.652492934244	9299.4538639961
0	12952	764959.486336758214	11259.986059726
0	12961	765051.513709302039	8941.729123186
0	12966	765575.637203879616	9027.3581503667
0	12974	765797.715180571659	6691.8234792544
0	12983	766131.072019348142	8347.2057755329
0	12988	766583.846960726731	8990.1577235947
0	12993	766780.124235277721	9756.7314661293
0	13002	767021.252869515892	7631.874709985
0	13007	767358.263741312279	6521.141032592
0	13012	767739.75175042762	7137.7449955933
0	13018	768196.188476600979	7335.6511717117
0	13023	768397.447433975817	6431.9750967626
0	13028	768475.435576454638	8285.9736506553
0	13033	768482.34450176104	6608.1613635003
0	13041	768634.076855606281	9595.5426138178
0	13051	768832.180230885159	13611.214712526
0	13056	768866.849509334154	11777.370388373
0	13061	768919.869332922473	7752.5116966473
0	13067	769123.075762846235	7144.992001966
0	13072	769268.464165328005	7301.1047389148
0	13084	770244.04681431454	8112.187187672
0	13119	773763.706139214047	5268.8261801007
0	13128	774273.46036361912	4489.48953216
0	13133	774615.005749361233	2804.3135877302
0	13163	777109.18475142059	16959.890193808
0	13185	778122.38395268991	3116.8622524871
0	13193	778486.826824293389	6273.711400276
0	13205	779602.46375147373	2509.5144369721
0	13210	779808.210904877367	3063.6877163965
0	13228	781260.973439361102	3839.5979141638
0	13272	785475.692887118125	1810.054989996
0	13287	786683.164480914734	6632.873702395
0	13292	786763.994433950391	4208.0451117284
0	13304	787356.617129406827	3782.4238613349
0	13350	788981.449390577395	1906.874824828
0	13356	789172.332316547935	5410.6954235982
0	13364	789899.967997827547	3005.1000547496
0	13381	790994.571810728397	3171.8897513954
0	13390	791247.171827625891	2703.571715177
0	13399	792767.905906592084	5385.307613006
0	13425	794632.564991985434	4620.9937427519
0	13445	795345.577281984589	1841.8611366199
0	13450	795559.280600225072	2498.4349432648
0	13468	797979.786266399575	3290.1333243413
0	13521	802057.500275595973	3225.5323192463
0	13547	803734.937759149629	2729.501087831
0	13557	803947.144310285386	6589.6187440693
0	13563	804175.855915660699	3225.8399667117
0	13575	805069.298916853029	3642.4536593129
0	13598	807016.05171887993	6044.522907113
0	13616	808170.80031924318	5459.3320043781
0	13643	809558.828257179705	6435.0220313023
0	13651	809702.874577399624	4764.6387382326
0	13674	811139.817623686073	4442.4378714469
0	13686	812665.760617553982	3759.7408344847
0	13691	812829.841556489973	3151.2636871824
0	13737	815129.287175591449	808.07468882247
0	13742	815721.24750351924	5993.7576343902
0	13762	816842.425415144284	3457.4498693628
0	13771	817371.982558723187	4325.5476325533
0	13788	818240.512452751716	2346.854746014
0	13824	819899.90475633787	12670.543690375
0	13853	821996.697571096093	7382.8436128906
0	13859	822056.13183318246	14694.090627162
0	13864	822073.554697655099	4731.1047850556
0	13869	822086.695035866839	3555.0607730921
0	13877	822625.32970234876	4413.6033436446
0	13893	824429.17324708801	5583.731901501
0	13911	824870.389606969364	5242.3567815715
0	13920	825073.817373945152	1121.5620418153
0	13928	825167.991329364702	5464.2263215733
0	13962	827277.929218282782	811.91175294227
0	13970	827532.696148819897	1953.6355123483
0	13987	828532.145892104927	1842.4981785885
0	13998	828904.191816791381	4222.3918907271
0	14026	832088.175723490537	3184.6199202757
0	14048	834003.337659498988	6452.0578152689
0	14080	836170.536782693054	6092.8165250977
0	14131	838292.818775563584	6536.1387551718
0	14136	838425.378778478399	2659.509576617
0	14144	839000.210016112169	2975.4439254669
0	14156	839561.671914078234	3874.7198329454
0	14166	839915.47808049462	7269.2089924764
0	14184	841170.776825860351	5587.1815076791
0	14208	843166.606681743227	3920.3615300951
0	14230	844173.272475903632	6697.5582013508
0	14244	845355.698958565026	3079.2895320239
0	14256	846320.861013132682	5682.8012587395
0	14297	847662.905100308389	4799.5582431629
0	14302	847977.699405433947	1114.6128164537
0	14327	849003.669477258271	13311.485053085
0	14345	850830.816379648534	8774.965147848
0	14353	850948.372703240013	3854.1610680783
0	14362	851220.542512047707	4774.6656249089
0	14370	851460.392699025785	3241.126735577
0	14386	853226.998230188517	4615.1319465245
0	14399	853621.046176876084	9470.6599606248
0	14404	853888.800000170017	17729.188306932
0	14425	855474.854175629396	5100.8248899179
0	14442	856673.733443119674	2198.3930576651
0	14450	856936.386039901685	10758.791144396
0	14472	857494.748953186107	5002.5564888576
0	14481	858044.640114879033	1232.5411436825
0	14498	859044.359322699285	4029.9969194625
0	14547	862834.546576010183	4303.1303920958
0	14558	863046.628019535824	6003.9211889112
0	14575	864216.144799460668	2833.1911947284
0	14591	864446.877894651271	3181.9812391931
0	14600	865192.385908706498	2091.184804898
0	14649	868693.005700036074	2388.8376781477
0	14661	869263.159775869009	9689.2921704139
0	14666	869512.678215852939	5239.150962782
0	14675	870504.444068159608	10571.003250831
0	14686	871260.778875176598	8926.1742491263
0	14697	871695.763167039408	3912.9103191433
0	14702	871740.779502820976	4107.3707173341
0	14731	873332.273149713785	7925.6826315578
0	14736	873494.450367909852	1722.4689453991
0	14754	875300.469731731012	5040.2689535879
0	14772	877659.149073542692	5427.0071790487
0	14806	879138.96844661292	1357.0637657937
0	14834	880337.280065000186	6744.4535739906
0	14848	880871.706805764646	2516.758033085
0	14859	881022.47274887565	2662.7183207095
0	14864	881199.902788436515	1637.7753718933
0	14881	882055.062287093389	5491.8553064735
0	14916	885112.522306621659	3322.7044366368
0	14927	885573.876954414897	5707.1145110794
0	14941	886057.186897537161	5564.1129567206
0	14964	887816.451958909356	4284.639267404
0	14978	888225.711709347767	5326.888274566
0	14995	889033.258693312631	3532.819921449
0	15000	889144.11834608697	2720.7170006147
0	15008	889373.530622654748	5794.9359657647
0	15042	890743.796028099079	3329.2611857082
0	15085	893429.533564550151	5304.5441548844
0	15095	893703.692620568217	3558.3405399538
0	15100	893799.685986931663	3177.3695227886
0	15127	896347.859339066635	3259.8843283231
0	15136	897355.478985729815	3433.3543383251
0	15162	898419.822854550316	6819.251001717
0	15189	899111.553305701722	3517.74107405
0	15197	899382.099034151397	1438.8005125089
0	15209	900049.841865795491	10393.85496911
0	15234	901293.263204776686	10579.368987758
0	15262	902812.792942968948	4660.5196691013
0	15282	903754.731753866278	6160.9869583569
0	15315	904669.861179198246	13948.967035424
0	15335	905205.347078827426	5569.8674580631
0	15357	906091.477470362034	6055.1360508937
0	15373	906633.538173746596	6055.1908734388
0	15394	906851.398121382956	3562.2845320645
0	15405	906986.839603363595	3737.4430983006
0	15425	907613.824641751878	4585.4784507838
0	15430	907653.821998923824	3280.7131141408
0	15442	908384.93603961663	5934.3717778217
0	15455	908479.285477645579	1893.0143489973
0	15460	908959.5707644261	2251.3849943056
0	15466	909154.39526216908	4093.9072438507
0	15474	909483.812213749299	3648.5687373052
0	15479	909897.216614111008	11367.510097036
0	15484	909925.004312820076	3070.3739757617
0	15518	911971.229937845809	9242.4049041609
0	15530	913011.210816870829	2760.9618394791
0	15539	913320.132586757152	2918.145172922
0	15544	913362.920018244103	8458.7765993172
0	15579	916762.908951406414	6128.4037887448
0	15606	919511.876151429915	4614.4715985374
0	15614	919844.349736238689	2944.737743049
0	15628	922162.590726668332	13874.282059005
0	15641	922497.33525253295	6743.0434162312
0	15668	925291.448655847927	558.91720395312
0	15679	925692.72643287363	7524.0929772512
0	15704	926815.064240532798	4697.8633943829
0	15709	926922.590414274562	1344.6690360464
0	15722	928128.489291487756	3177.8800627443
0	15728	929841.817122477861	15965.590720078
0	15767	933520.768362897513	2930.2746070888
0	15781	934901.728408107774	9201.997786381
0	15790	935153.796012173312	2500.3063944272
0	15824	937771.432460959152	4585.9766989435
0	15841	938475.151569046513	7698.297613742
0	15849	938824.808384492964	1496.6670418279
0	15867	940390.229552416923	4276.1993699663
0	15902	943159.330880972455	6281.3457270598
0	15938	944143.333357513055	6028.1936427791
0	15943	944328.7641770543	4872.9352771238
0	15951	944768.800560497691	1891.5031346568
0	15968	945571.292121142012	1831.4893816598
0	15989	947235.868756385631	3862.9926016185
0	15994	947411.931591309412	2475.5556750497
0	16011	948091.737019701427	4394.1012190423
0	16044	949754.791473560488	7499.087453402
1	1109	73400.002741389625	16.039649473246
1	1121	74164.756369909398	610.24625033499
1	1126	74238.147463691819	406.03023484795
1	1147	76331.563289534289	978.1667860446
1	1169	77584.524518040528	109.62876632818
1	1177	77741.506951722772	61.284656819577
1	1194	78305.28332275725	231.07748765925
1	1202	78844.420742990149	124.59074222847
1	1227	79609.582785376627	42.803023075219
1	1252	80491.705282736003	146.81108863825
1	1281	82091.094525954695	124.38323194096
1	1294	82445.881012455436	0
1	1303	83102.683627749428	0
1	1311	83172.890861440388	0
1	1319	83640.26531069489	0
1	1336	84206.724847155	0
1	1344	84916.518151916557	0
1	1353	85319.501174290028	285.31921279105
1	1364	85742.778155050267	398.51166920389
1	1376	86128.890405575577	672.8639003674
1	1402	86692.513381650234	167.98290891581
1	1410	86989.289367088451	256.16340948237
1	1419	87415.883201003385	0
1	1478	90630.024980712704	0
1	1487	91277.131809829894	0
1	1526	92541.866371142695	108.16087726593
1	1548	93123.815496527956	203.82497548606
1	1561	93447.761259528529	86.959940243625
1	1578	94409.534448301738	64.850204072035
1	1595	95255.898020083226	0
1	1606	95613.586251182258	351.39513944405
1	1620	96113.296608491335	0
1	1628	96951.172427066852	0
1	1640	97781.937774747167	642.26218442356
1	1679	99887.14024976501	291.95680976156
1	1688	100154.779688716809	51.769345443406
1	1697	101199.324271758449	0
1	1708	101873.588724705707	398.12664408879
1	1714	102135.990512453428	553.20356773804
1	1722	102210.578736207978	0
1	1751	103742.59646771798	599.21237776645
1	1790	105807.28559162134	777.80274552865
1	1805	106568.488920451032	1193.0651819083
1	1810	106660.51787788164	1149.1918419979
1	1815	106722.377714918774	774.81531210571
1	1824	107047.39792784422	876.46210005775
1	1856	108308.935838948773	0
1	1872	108804.060737704785	122.91044233061
1	1880	108925.791719255968	0
1	1911	109936.110587071867	221.04491381539
1	1930	110684.509578744002	0
1	1955	111765.022693193674	551.28314398966
1	1983	115084.541016504064	0
1	1999	115820.727975232086	0
1	2016	116507.187233589604	4.244290533067
1	2024	116991.257027985807	114.21467176872
1	2033	117363.716388695738	0
1	2075	119400.483319318309	0
1	2083	119813.321604010928	0
1	2091	119964.415237595442	132.00903498913
1	2100	120602.391837709163	280.91515554026
1	2117	121280.368713137196	243.61975008625
1	2136	121972.697324142922	457.93520584973
1	2145	122015.045410944582	2.531297706164
1	2176	124629.290013203343	0
1	2196	125572.135075443339	99.381919046026
1	2227	127391.710571744543	0
1	2236	128732.415166569885	0
1	2254	130244.3068206501	0
1	2278	132872.190841121823	309.39264434831
1	2284	133034.041105644633	287.03442834026
1	2305	133873.299209015047	0
1	2317	134059.14871420074	171.16169561145
1	2322	134242.884632429066	276.63732185445
1	2333	134503.248477779142	121.11010058835
1	2347	135794.726497378792	0
1	2356	136166.375210935994	0
1	2367	136502.386255670257	85.733110805497
1	2409	138704.249254196261	61.522765216675
1	2423	139319.942761664091	0
1	2431	139779.722481223482	38.778525918311
1	2446	140086.06604050722	286.13648711432
1	2451	140170.095219554463	310.00130172762
1	2470	140681.906886676796	68.228557970939
1	2497	141319.798640619835	0
1	2523	143765.395747001092	0
1	2542	146129.384167237847	0
1	2550	146511.07313239564	0
1	2577	149096.207117178613	0
1	2604	152981.811066415706	0
1	2621	153922.869105958903	0
1	2639	155518.187063084178	0
1	2665	157275.907781415348	37.530771065849
1	2676	157468.678474071232	100.37087987439
1	2684	157704.609225998518	208.82328992421
1	2707	158582.585474610207	168.0129184796
1	2721	159041.649397718906	110.69324999725
1	2734	159950.739881370915	24.022508316295
1	2757	161482.480197486542	0
1	2766	162254.271577495774	554.48225369587
1	2792	164086.029715064522	0
1	2800	164532.719244681759	35.575987779341
1	2826	166308.367729803377	0
1	2835	167041.207273500859	190.5544477827
1	2860	168735.104687053174	0
1	2868	168959.348457873071	25.744477516753
1	2902	170306.484282330519	0
1	2910	170568.399142146148	0
1	2919	171391.452668493472	0
1	2939	172825.760876279218	496.16244118271
1	2945	173055.977475757046	233.31509403224
1	2953	173679.974440784843	0
1	2970	174571.183111742867	210.23489586938
1	2978	174730.838498040984	0
1	2993	175604.331310321383	722.0828635428
1	3044	178036.033603361174	990.37228348741
1	3064	180364.171568945336	0
1	3072	180621.436327608022	0
1	3081	181005.998746620153	371.46418648121
1	3101	182542.894383850447	882.95358718172
1	3109	182882.357650442	165.13873150813
1	3131	183953.871105856637	0
1	3140	184350.652522104997	0
1	3149	185159.768156918183	0
1	3157	185256.746206217786	0
1	3171	185722.775546687341	428.67461040061
1	3206	186949.936698484093	0
1	3238	188870.471305590883	520.35322861941
1	3247	189096.771060923175	567.58333757838
1	3258	189578.490633313434	1034.9206985795
1	3263	189600.869408535513	508.33334989742
1	3328	193108.762670360774	318.80908302542
1	3333	193336.116878234728	347.23859668655
1	3342	194172.446533929726	0
1	3351	195520.674987346027	0
1	3376	196962.732642816271	0
1	3411	199209.520503277258	0
1	3431	200732.074205207548	206.19000868495
1	3445	201753.27707935826	864.67050396958
1	3462	202470.302319949411	120.44288205222
1	3479	203415.880830532575	0
1	3498	206386.626555463376	29.899376812013
1	3524	208986.569676148243	0
1	3539	209942.970661177235	447.58171706697
1	3548	210201.043588182216	637.84689167092
1	3553	210379.257969690514	502.62388381763
1	3566	210907.345446025622	356.89820277937
1	3575	211112.680532552713	0
1	3592	211892.897434313718	631.13624535354
1	3598	212043.683875014039	472.76029615156
1	3603	212084.495181080304	465.40026572654
1	3619	212861.213393230835	440.25448265616
1	3684	216713.989611965197	0
1	3701	217521.046641825322	414.70530148311
1	3711	219343.699726496458	0
1	3719	219639.388554747656	0
1	3728	220243.764249812309	220.64978912893
1	3761	220946.065052782492	368.07639683205
1	3766	221004.2664984274	151.13389987006
1	3785	221396.440101488977	0
1	3794	222203.843391155311	0
1	3802	222828.441375333049	442.823988685
1	3849	226121.628672303548	18.924363573867
1	3862	226506.864225694337	86.092428794128
1	3870	226914.446843209459	357.1601617713
1	3879	227294.355318654111	0
1	3896	227940.277066731298	147.16355734743
1	3918	228516.330379990188	129.54475721475
1	3935	229377.935742590032	203.54405097062
1	3961	229982.158658747436	0
1	3970	230606.32287624822	0
1	3979	231832.389703576234	0
1	3996	232870.540774053874	0
1	4021	234000.552558010773	0
1	4030	234331.053277652734	266.27671763549
1	4056	235818.574112531825	861.16964870329
1	4065	236078.125389974871	62.136425721249
1	4087	237315.391648557859	757.69647675444
1	4095	237465.145619745235	802.00578726132
1	4103	237493.492989414653	20.114775869234
1	4126	239037.04103901144	439.33009389336
1	4142	239533.552945813149	369.33418915411
1	4164	240670.71855428648	0
1	4181	241730.202706776513	0
1	4208	244858.115538721737	0
1	4234	246981.847264143064	0
1	4243	247423.252047173222	0
1	4251	247966.062070018222	178.1256996887
1	4269	249431.873396589347	0
1	4278	250125.064614606043	0
1	4290	251388.218051376789	815.36503460573
1	4321	253187.346584607748	41.381740622187
1	4332	253390.006468109696	156.11319459868
1	4346	254006.003231943622	0
1	4371	255830.3648388077	0
1	4391	256216.577886886274	56.885101351092
1	4417	258045.321453050478	92.100217540564
1	4436	258989.527747964627	469.48307368561
1	4473	261913.173203033969	0
1	4482	262694.508759803411	0
1	4490	262786.133532405197	10.050667166749
1	4502	263012.629490342072	59.083402471709
1	4525	265190.710160432099	0
1	4533	265965.364789089324	0
1	4567	267155.049328537409	0
1	4576	268418.088257777243	0
1	4593	269228.607966006066	132.09742522339
1	4627	271775.45017759224	0
1	4636	272667.425862376703	0
1	4653	273252.008618750499	0
1	4662	274104.996933973989	0
1	4670	274326.955380892492	0
1	4695	275557.61166260581	146.91142530928
1	4712	276371.880165319982	0
1	4737	277740.981120119908	0
1	4745	277945.085782211094	0
1	4773	281349.114180164125	0
1	4781	281916.743981817547	0
1	4801	282893.537270271258	384.56892681493
1	4819	283495.833529868874	397.77449075462
1	4824	283539.058632933514	422.89355887455
1	4829	283568.860721986722	368.71528787969
1	4844	284591.318838941373	741.23624198527
1	4849	284649.478992687471	79.965224422789
1	4879	285303.596856520749	85.544980797237
1	4899	286235.937767520745	96.415354267917
1	4940	288332.3819792104	0
1	4957	289204.42164779839	0
1	4965	289826.739311799728	330.13509906231
1	4985	290565.714833610945	138.88728761659
1	5008	292565.879994404806	0
1	5030	295498.919440525203	484.05932683982
1	5035	295762.958941813008	588.01740940673
1	5043	295880.694866137185	0
1	5054	298205.239224053733	0
1	5077	299234.205413069584	185.90063712854
1	5088	299544.369363767603	325.63089166591
1	5100	300046.127569193581	688.26217372319
1	5105	300106.93420864581	374.69784548617
1	5133	301558.660751687385	676.26541205636
1	5138	301998.724279516274	691.81627433423
1	5147	302225.241239299973	833.56881342762
1	5152	302251.062220126456	135.56065895216
1	5212	304909.409283980098	501.06083153976
1	5221	305455.752969390311	0
1	5249	306409.103947166087	128.97645336562
1	5281	309977.693291326098	201.27581337632
1	5290	310396.179073370593	0
1	5298	310893.77268589426	0
1	5315	311633.529973744651	0
1	5324	312452.223340727537	0
1	5347	313129.849153398188	419.34080622005
1	5355	313275.160648035621	274.52855814272
1	5363	313453.703695900605	438.90157250273
1	5371	313579.970934579385	411.90146700731
1	5384	313910.792927919786	13.38224697524
1	5407	315185.070640229962	0
1	5427	315995.2459219496	553.28667120168
1	5436	316145.89095160429	690.24601944294
1	5441	316217.566602720393	417.3050618596
1	5455	316604.951168003828	297.82884527851
1	5463	316753.292672766652	159.69751583384
1	5471	316976.379987233848	371.15064888362
1	5500	318230.882456373881	558.46347234393
1	5511	318579.564569117881	741.97212341007
1	5516	318629.286549113409	678.10743713741
1	5557	320777.153099975803	1206.3194246891
1	5569	321439.002112314075	1449.3672137258
1	5574	321702.562834623671	579.88315069364
1	5601	322523.306814118163	196.1230803047
1	5613	323636.789584201391	42.571214074234
1	5631	324753.155550080374	638.41561825354
1	5637	325105.148106896144	675.76572725842
1	5670	326336.801487962394	760.89980730589
1	5678	326996.780333743047	956.65723438667
1	5708	327473.537499504954	188.61440627377
1	5719	327854.645475077442	381.55301938743
1	5724	327893.580867064356	308.03621005694
1	5729	327904.297046946187	283.58998897683
1	5761	329059.581271062164	508.5738435297
1	5769	329518.972426861464	127.54159816833
1	5783	330156.723336879298	20.239516586537
1	5813	331410.88703223009	487.49546028601
1	5844	332671.055933643312	878.73312650342
1	5849	332872.992569148206	1045.4968627149
1	5855	333425.550569256334	1220.3375920287
1	5868	333641.132157886386	39.596809608701
1	5885	334561.812880669605	778.11606249562
1	5896	334973.228160306533	427.07142215046
1	5908	335370.7944630467	792.18104851209
1	5916	335420.635195897577	768.21522794496
1	5933	335854.501773692327	703.07781103974
1	5939	336152.752310571619	803.28078526726
1	5944	336190.41368879161	714.55330736909
1	5958	336684.614169777928	95.378262035241
1	5983	337341.507951795029	210.53629986682
1	6019	338740.367609883276	50.253735592537
1	6052	340084.10579821442	6.310742636503
1	6065	340761.839702837677	149.55016003463
1	6079	341199.285234782029	74.316353121656
1	6112	342917.958798870258	1103.8174564962
1	6121	343463.897299099185	1336.8163754559
1	6132	343649.330606942088	258.35272616004
1	6141	344391.64312901361	497.34974181373
1	6153	345076.396213250299	105.99252443819
1	6164	345293.523725865802	193.22622299005
1	6175	345677.095523225546	291.64880590315
1	6180	345765.739540748754	343.07418615483
1	6280	351222.85445951881	46.458091848386
1	6298	352275.020461465314	880.86779526421
1	6303	352374.131770521589	839.80073874362
1	6321	353817.51498303001	2001.8646704106
1	6333	354567.85478244467	2714.1335373621
1	6338	354679.629749107814	1571.8258307278
1	6350	355021.816121868905	1837.6268081955
1	6355	355344.911012985775	1763.807556478
1	6369	355649.925972886873	1304.113829451
1	6378	356067.705572109711	1356.6695222267
1	6383	356171.996262392138	1257.3748298428
1	6391	356612.19120290967	1229.1707348237
1	6399	356874.944855030662	309.40763245667
1	6405	357072.1976180764	267.74724088681
1	6475	359527.17554432969	291.97516452172
1	6512	361288.355054708838	305.53863328642
1	6534	361967.871373118025	452.07936642024
1	6546	362831.960941583769	1259.6446127847
1	6555	363588.054057179159	1078.2342505732
1	6560	363800.530447654496	909.87328266948
1	6638	367559.019997153131	942.60671949188
1	6646	367590.16722650247	676.42185401481
1	6651	367705.953239078548	359.81999544377
1	6656	367758.451192145719	272.52215355009
1	6661	367790.196100072916	217.24228303828
1	6689	368661.807174223129	653.67594021844
1	6694	368911.72693687481	900.23415709799
1	6717	370173.374650282057	1025.45584038
1	6737	371022.947897600379	457.55981747989
1	6760	371804.22711460085	321.43097002667
1	6801	373955.341517240959	0
1	6810	374727.406458114774	0
1	6842	376419.650539637861	333.79948062262
1	6854	377665.633974878343	1231.4956821318
1	6865	377917.945950742152	451.82716302834
1	6871	378185.7427769194	326.19248190639
1	6924	384803.718324067743	0
1	6946	387346.432200192207	406.08825194563
1	6960	388178.655103585264	0
1	6968	388541.610482865915	109.30993260746
1	6976	388778.506300987795	156.4100970909
1	6984	388859.068612377036	0
1	7001	389511.227447294853	0
1	7009	389851.41847957909	0
1	7053	393315.402914682978	0
1	7061	393759.510312003253	354.07997183477
1	7070	394028.437038001814	0
1	7087	395681.18825001864	0
1	7099	396473.549043172191	567.05017458497
1	7148	400779.367595848193	0
1	7157	401665.381894749814	0
1	7174	402344.834556144722	0
1	7191	403519.465107709508	204.03028734529
1	7216	404639.615931352981	0
1	7224	404755.443644666099	0
1	7236	405727.426572742929	946.51357685389
1	7245	406147.034501027508	1110.4263430269
1	7250	406436.260283001204	646.60835985112
1	7281	407844.676149363327	592.44275211206
1	7290	408146.819452078254	724.68622255972
1	7295	408180.185309404306	298.63845360362
1	7313	409069.295806028553	836.86914617219
1	7318	409282.38651684034	564.42062765002
1	7323	409457.606379564411	705.40779773455
1	7347	410276.007089525795	748.9116685949
1	7361	410762.901514978235	831.28823617776
1	7372	410937.72338818137	868.26731757398
1	7378	411065.355956212959	881.48662327329
1	7383	411261.193676818069	358.32588948124
1	7401	411617.281370596094	103.43516528862
1	7500	416089.60229649335	0
1	7509	417239.571731580878	0
1	7518	418187.500050411984	0
1	7534	418921.713223541115	17.649956723781
1	7546	419805.112791073207	558.47445506823
1	7561	421060.195902790234	0
1	7592	422965.040356062158	200.91170654971
1	7601	423410.355656992467	371.4762844768
1	7615	424175.696724052431	37.666918501934
1	7624	425052.595616269847	135.40532988412
1	7662	426379.979654393887	0
1	7670	426712.485163412381	0
1	7704	430040.106764881736	1231.0019467313
1	7723	431290.668574096635	0
1	7731	431967.732113765704	0
1	7740	432475.432448755489	0
1	7764	434560.006886360836	931.6724741098
1	7769	434663.210974814766	746.7731061555
1	7808	436536.662235463245	0
1	7818	438035.292708301096	0
1	7838	439414.155431587278	332.97565453746
1	7843	439742.227602968285	501.89698749675
1	7852	440424.575954052808	0
1	7886	442124.504125415319	31.012873132557
1	7914	446591.98715002463	0
1	7941	449707.986428433252	0
1	7950	450223.527055026166	0
1	7975	451884.844504427956	0
1	7984	452492.87499918006	508.64080226113
1	8002	454326.476158393451	0
1	8028	456816.55235092661	0
1	8037	457029.350943223166	0
1	8046	458224.056970093287	0
1	8065	461104.736214046268	1122.0033466928
1	8073	461346.950117652306	143.8755416538
1	8084	461948.009744770644	14.411751741098
1	8119	464135.264712049139	27.217964176618
1	8132	464819.639901969396	0
1	8141	465659.208599402417	0
1	8168	468336.517409568334	0
1	8176	468641.643610035243	0
1	8198	471559.799468088833	702.47434558828
1	8221	473723.459811396593	0
1	8233	474208.985697611349	40.565180628271
1	8250	475211.136162352582	690.16673958232
1	8282	478225.329207695826	0
1	8299	479171.739795223623	0
1	8308	480593.320366655857	0
1	8325	481506.629114119284	0
1	8333	481998.98252153714	0
1	8342	482687.953626182006	0
1	8351	483611.654155286002	0
1	8376	484862.004160813551	0
1	8400	486099.728613021059	465.34104879232
1	8419	487346.514328304845	0
1	8435	488002.704816867166	0
1	8460	488750.760432704359	67.685571005986
1	8469	489808.533778895072	0
1	8496	492574.793875627565	236.46049563868
1	8521	493981.739170956224	0
1	8548	496545.732837608139	0
1	8557	497684.146535974682	0
1	8587	500243.287914486498	760.70875120102
1	8596	501011.814316378044	931.52993659495
1	8604	501208.418059762473	791.39576977229
1	8612	501631.281839015666	563.78296995427
1	8643	503044.873424413852	0
1	8651	503657.149312725008	0
1	8677	505039.484097541751	0
1	8694	506706.601228293058	0
1	8712	508846.860218403302	0
1	8722	510641.303661053304	0
1	8731	511048.630113956397	0
1	8742	511382.629246730433	17.730679847443
1	8755	511574.914009469054	84.932790607027
1	8763	511957.606335823467	219.20777432641
1	8772	512330.382328186795	301.94984156385
1	8805	513263.786786721069	0
1	8821	513909.694104297052	0
1	8839	515061.410518904396	0
1	8850	515515.688422975589	236.59637665755
1	8863	515820.965307697744	0
1	8917	518096.944133760638	552.48287811007
1	8922	518215.960392794452	461.49212557038
1	8941	518918.876073319967	521.47290596565
1	8950	519193.100807230328	314.52177057345
1	8955	519371.19952516524	354.14928968333
1	8980	520784.243133938392	0
1	8991	520894.941805350963	11.264004072286
1	9005	521310.567151017361	244.12381167482
1	9022	522305.423445536617	0
1	9047	523425.536644101949	0
1	9074	526354.309016363203	0
1	9084	528206.126801905963	0
1	9092	528604.321313482651	0
1	9108	528844.755057861666	0
1	9145	530661.131750517399	350.20348581222
1	9169	533159.240678869792	0
1	9186	534261.445985270602	0
1	9194	534310.226956395562	30.478950786986
1	9205	534855.859892335483	407.92405091935
1	9217	535517.32340813842	579.21849992647
1	9234	535992.783010980649	568.09926910878
1	9246	536271.534528641491	707.50347859157
1	9251	536704.377877592922	1011.2157649511
1	9263	537628.012477627477	1876.0477996755
1	9268	537643.193153292827	904.28658590322
1	9303	539896.301516813676	0
1	9347	540932.528054002809	142.77929644181
1	9353	541138.560092492254	314.77554282848
1	9378	542660.613425514751	387.6670709946
1	9396	544395.459508661311	0
1	9414	546653.284233314499	0
1	9431	547332.784761787646	0
1	9440	548396.175305548982	502.88070897783
1	9454	548688.331740848667	232.72237989783
1	9469	549424.588135977819	797.42739892333
1	9474	549556.89985667552	571.75080358665
1	9489	550669.267257531693	1028.3284331432
1	9516	551879.070798703668	371.80511453844
1	9540	553024.40608049377	691.88596165193
1	9545	553334.418335193467	672.99904137491
1	9550	553423.014855880483	637.89456374794
1	9568	554179.34755710203	683.24322022397
1	9573	554589.212060090979	674.82161512998
1	9588	555334.344235101759	1274.5800933082
1	9593	555494.026802329049	472.10987156177
1	9641	557959.101151729784	0
1	9676	560910.230916083559	0
1	9711	563961.991056899653	0
1	9720	564591.872804168287	0
1	9737	565898.938543156065	0
1	9771	567730.474390502135	0
1	9780	568641.573320478164	0
1	9788	568920.995295159556	0
1	9797	569747.941730245267	748.27792297138
1	9806	570447.148080103249	0
1	9814	570928.838132472604	0
1	9834	571409.749271540629	7.422986501455
1	9873	573396.264060229032	853.22003523468
1	9889	573884.633812877757	0
1	9901	574808.761241175308	716.03844846656
1	9923	575440.025200830852	0
1	9937	576002.898637712734	332.8425024013
1	9943	576173.804514857429	181.05418634665
1	9956	576997.630806316016	82.851954013648
1	9974	578402.927499808162	0
1	10017	581089.788706033954	211.70382788089
1	10033	581735.360931134365	0
1	10051	583121.405596111843	0
1	10062	583335.593079192715	14.312206892941
1	10084	584070.82698884527	0
1	10110	586164.933406167098	0
1	10118	586852.816382983526	0
1	10126	586973.067964070097	0
1	10135	587423.951476832902	310.27622234845
1	10144	588040.211718498352	0
1	10152	588480.181609393163	0
1	10185	589149.417186289781	0
1	10201	589634.12502637455	111.9255425658
1	10209	589999.056230310412	228.40708559681
1	10228	592150.091908424417	0
1	10242	592655.94683157294	479.40827122381
1	10247	592666.801750566252	97.764689764878
1	10294	594632.603479766795	203.42289893608
1	10303	595221.192642998021	38.592559317299
1	10311	595275.781196713971	13.027152975163
1	10335	595736.407915017818	0
1	10347	596296.881243096544	215.45404537783
1	10369	597107.014171229709	0
1	10395	599424.111920240424	0
1	10404	600187.28713586916	596.39468530137
1	10412	600507.588028074176	0
1	10420	600928.927225393742	0
1	10446	602138.64537527293	0
1	10477	603330.094084917663	296.99042970659
1	10482	603431.08331497401	284.82182736308
1	10495	603947.094332422496	168.83472578117
1	10512	604748.443889548719	76.050892301244
1	10540	605453.625486744925	26.001788406412
1	10553	607278.377857467918	684.28519914792
1	10564	607712.441100329653	75.114001527269
1	10585	609399.092066934283	1108.5727068014
1	10593	609753.217487841605	331.50928495571
1	10622	612206.418573363883	303.43505343639
1	10641	612379.795998771926	29.737780281414
1	10674	614944.816431446944	0
1	10693	617555.221634760611	0
1	10711	619587.515845704191	0
1	10729	621299.058139780257	0
1	10738	622449.502218846458	0
1	10746	622960.292388681336	235.63182872357
1	10755	623720.703361625605	0
1	10773	625400.674106675378	0
1	10789	625892.2101020359	193.46232118636
1	10824	628851.11985838648	0
1	10849	629388.280308219391	193.47684486744
1	10857	629753.215882424251	0
1	10867	631128.538840550845	61.548192078932
1	10883	631972.945000460253	327.25299416845
1	10901	633506.661202705474	0
1	10909	633668.660789278143	0
1	10943	635568.013818454105	0
1	10970	638696.508202495491	0
1	10996	640081.6954620159	0
1	11005	641187.707074946724	0
1	11022	642535.665879031734	57.78080718081
1	11030	642945.902623965397	0
1	11057	645521.393443449572	0
1	11077	649470.700949611399	0
1	11086	650340.194108892002	0
1	11095	651278.233949893459	0
1	11114	652012.386870500558	263.72178890902
1	11120	652275.49546103829	469.64297834564
1	11136	652732.461426258173	0
1	11147	652944.42174750274	116.88654983404
1	11159	653642.491902197631	702.48746749506
1	11164	653682.713607662418	210.33629568209
1	11169	653768.447594270394	158.6201259467
1	11228	656369.58461246639	0
1	11242	656776.030822897905	85.43912739492
1	11247	656864.109705855634	131.98474311009
1	11262	658342.314259923402	0
1	11285	659493.94750668179	729.79631566043
1	11310	660913.850881061163	128.07324170978
1	11324	661460.812905590757	199.57859701029
1	11363	663139.813778233037	0
1	11371	663466.928519215227	0
1	11389	665014.793717296863	328.29184535673
1	11397	665329.131493811777	0
1	11420	666583.210055221919	48.612338675344
1	11449	669671.967586189459	0
1	11466	670729.011565815063	0
1	11485	673448.612809007187	0
1	11503	675612.192019055066	0
1	11512	676528.609047369753	0
1	11521	677307.515125285705	5.711808085086
1	11529	677846.725956975309	0
1	11555	678883.179137473389	860.24992171563
1	11560	678891.977212132018	589.42085833559
1	11569	679015.528725949944	370.44948766795
1	11597	680358.245866925212	291.06659180069
1	11608	680485.710083448759	105.83692022444
1	11613	680709.026275977614	225.68391496342
1	11641	681182.43672485196	245.99413523088
1	11665	682836.414093094731	450.63350488316
1	11679	683281.011835683131	0
1	11705	685826.671817616047	0
1	11714	686969.109572625772	0
1	11723	687887.228893082512	0
1	11748	688456.393441640812	0
1	11768	689820.534315856747	278.71818051997
1	11780	690790.255206048485	320.99283560479
1	11794	691104.105032410768	25.807382283648
1	11816	692257.972974805689	0
1	11833	693430.394428093317	0
1	11851	694704.891053192213	331.76624301304
1	11892	696508.192952436115	0
1	11900	696780.253664816062	159.27019415605
1	11909	697164.397489309817	125.85097625979
1	11917	697347.980921645581	0
1	11925	697624.479141924984	0
1	11946	698393.290073803386	723.72401953522
1	11954	698596.581466263483	752.82037165329
1	11959	698990.980337502656	682.01632978376
1	12001	701717.496771323541	46.986520631814
1	12010	702146.513803303804	0
1	12043	703944.666229290073	0
1	12052	704383.523897611676	156.70686761575
1	12060	704863.983996273467	0
1	12095	707214.567658423714	20.098561329914
1	12105	709835.170654324217	0
1	12117	710574.966843870224	576.27387583603
1	12146	712497.305092102505	188.84691787463
1	12160	713841.437747735243	48.6565766989
1	12174	714467.400438723781	0
1	12182	714520.109806271399	35.208171526957
1	12212	716110.135034849466	635.13626607227
1	12217	716127.312191634842	570.50549984687
1	12222	716128.62027204092	203.22168221964
1	12241	716771.956119657501	411.18302502737
1	12255	717143.229756877612	70.374969725507
1	12315	719537.128023411834	41.746844335884
1	12343	723897.361408101028	0
1	12352	724446.697665024191	0
1	12369	725687.95258582708	477.66011453242
1	12399	731414.008576455062	0
1	12419	732880.123585349189	391.34983381579
1	12426	734047.050448035308	1270.2878544385
1	12434	734429.658200997969	0
1	12451	735073.613202445402	0
1	12476	736293.855064885376	0
1	12493	737592.179357762249	0
1	12506	739552.340471885818	395.67960051148
1	12520	740328.528939732746	0
1	12528	740981.981802332805	0
1	12537	741751.4378708557	0
1	12589	745329.585594173357	0
1	12597	745985.980981221513	0
1	12614	746965.225752930985	0
1	12640	748790.77737198226	0
1	12650	750446.949755541288	0
1	12667	751767.198628938145	0
1	12684	752507.966160923141	0
1	12701	753699.5002770324	0
1	12711	755220.965518358751	0
1	12720	756109.784586116083	0
1	12736	756647.464882308261	99.185828795317
1	12751	757395.92257921314	372.52981006476
1	12762	757764.246860809385	674.76773984831
1	12777	758607.366313765243	1013.6770766332
1	12789	759379.022850591065	1595.1566067759
1	12797	759589.628618777667	551.09437698915
1	12802	759611.816068574715	505.92436725749
1	12807	759883.514807466676	494.13664793577
1	12843	761066.652492934244	917.35793532206
1	12851	761099.791089667001	910.32916386767
1	12859	761588.318351714652	986.3115968803
1	12864	761655.523719755852	818.40101103557
1	12872	761829.332907521663	968.79560263241
1	12886	761973.462374981809	806.10473870661
1	12901	762216.272374343303	342.08923608257
1	12906	762292.138631777436	326.66629456424
1	12914	762851.226160541537	883.86673412829
1	12923	763372.607087514683	1394.5233266345
1	12931	763801.468607150674	1669.6089805081
1	13043	768634.076855606281	139.19689649296
1	13086	770244.04681431454	460.07598285544
1	13095	771810.692161631037	0
1	13104	772213.115424017405	0
1	13138	775005.521700202858	0
1	13148	776744.523188480824	0
1	13165	777109.18475142059	16.235436918965
1	13173	777496.350303687291	74.974778490016
1	13216	780050.290778519728	0
1	13234	782555.949322222024	0
1	13243	783574.193268071885	0
1	13251	783665.637897122108	0
1	13259	783801.786948046052	40.150055096285
1	13306	787356.617129406827	461.74918632892
1	13314	787445.353591032948	370.7790252836
1	13319	787681.316284816173	298.71799123006
1	13328	788373.879315342204	551.19725600925
1	13336	788543.600112448871	0
1	13369	790011.571249233565	0
1	13405	793060.845656960307	0
1	13413	793503.716145364682	0
1	13430	794689.652942058323	0
1	13457	797357.525566216051	0
1	13474	798831.967956349639	0
1	13484	800950.015948949032	0
1	13496	801048.694223404699	77.165411637775
1	13504	801354.864022313007	349.42735099442
1	13512	801578.309798836941	151.46454129679
1	13526	802711.468314865058	0
1	13549	803734.937759149629	611.13153327219
1	13577	805069.298916853029	131.06307768601
1	13600	807016.05171887993	318.67196664077
1	13618	808170.80031924318	941.4392532799
1	13623	808601.767811109886	1239.7266050896
1	13632	809125.801039587524	219.78125651826
1	13653	809702.874577399624	24.296708092031
1	13662	810138.063561811964	410.57369268295
1	13697	813046.434926169858	0
1	13705	813384.975545781486	0
1	13714	814321.21248676898	0
1	13722	814613.853958205535	0
1	13747	815893.657706737673	0
1	13773	817371.982558723187	29.532646123649
1	13790	818240.512452751716	28.786094047507
1	13798	818531.634262774735	0
1	13806	818845.441345586978	0
1	13826	819899.90475633787	271.87193093996
1	13835	820759.134552307533	1055.3695445161
1	13895	824429.17324708801	476.91791495814
1	13903	824683.188424812854	1.388498748543
1	13933	825579.060636471587	0
1	13942	826466.017465340516	0
1	13950	826689.647713516441	0
1	13975	827551.279844230057	0
1	14000	828904.191816791381	0.636013576533
1	14010	830077.720257595358	0
1	14028	832088.175723490537	331.49570309878
1	14036	832646.269088018234	0
1	14082	836170.536782693054	586.94146451181
1	14087	836371.690284857182	684.73820372439
1	14092	836616.867161604966	924.68273743138
1	14098	837081.093560728763	1315.2243588673
1	14103	837263.843406589963	1239.0773159447
1	14111	837529.424143698784	1369.8124504611
1	14119	837985.768244979241	510.05397042642
1	14158	839561.671914078234	315.4267624301
1	14172	840638.059754393191	0
1	14190	842055.851231800581	0
1	14210	843166.606681743227	890.19725520207
1	14218	843916.573296717245	1053.2264395718
1	14232	844173.272475903632	22.886259652307
1	14258	846320.861013132682	143.26611762734
1	14266	846710.222260595169	264.34537345633
1	14274	846902.074472460363	38.987883480112
1	14283	847094.211635161721	0
1	14308	848219.265963448757	0
1	14316	848611.866283664014	0
1	14334	850374.029285711517	0
1	14388	853226.998230188517	734.80576585999
1	14410	854475.340385454555	0
1	14427	855474.854175629396	460.49177239258
1	14452	856936.386039901685	124.28706870516
1	14461	857181.495047640805	138.78821701617
1	14486	858531.416183914419	0
1	14503	859573.867605455073	0
1	14511	859933.440817328248	0
1	14521	861264.896655458215	0
1	14535	861869.562829273538	486.6092245413
1	14549	862834.546576010183	499.9419499599
1	14563	863101.201103808485	0
1	14580	864273.527253070929	0
1	14605	865406.590518156004	0
1	14614	866304.168021888385	0
1	14623	867633.408785486881	0
1	14631	867782.852847896113	0
1	14677	870504.444068159608	244.24329001646
1	14707	871771.981422510762	0
1	14716	872232.141894493966	0
1	14741	873592.826491009572	0
1	14760	876563.206980619852	0
1	14777	877781.904680819202	0
1	14786	878354.948772679686	0
1	14794	878557.648546646378	197.89411848019
1	14811	879562.127416543222	0
1	14825	879979.356434757596	112.59399142213
1	14850	880871.706805764646	378.63286494809
1	14869	881789.817869984884	0
1	14886	882898.823434781744	0
1	14895	883531.812691505313	0
1	14903	883762.704481775347	184.10982488528
1	14929	885573.876954414897	73.438182551253
1	14946	886423.401345472312	0
1	14966	887816.451958909356	401.91711651844
1	14980	888225.711709347767	100.72229968197
1	15013	889655.986896685789	0
1	15022	890145.352080614415	0
1	15044	890743.796028099079	121.47956395601
1	15053	891042.908416490965	329.01419947207
1	15061	891728.113074854828	1007.2189310809
1	15073	892171.018669343826	570.44681651053
1	15087	893429.533564550151	341.55855380665
1	15105	893922.124647404714	0
1	15115	895593.812231651689	0
1	15141	897593.744795509387	0
1	15164	898419.822854550316	476.52433290779
1	15172	898536.823429339936	384.55015547226
1	15177	898794.739745277991	265.03322820346
1	15211	900049.841865795491	414.36224503114
1	15216	900089.347748769726	53.006329301439
1	15236	901293.263204776686	714.91590446888
1	15248	902465.401088631624	14.836826836715
1	15264	902812.792942968948	83.967909284015
1	15284	903754.731753866278	726.38556289823
1	15289	903924.269079788585	674.87257472556
1	15298	904136.522378854486	847.40878953605
1	15317	904669.861179198246	296.75229441521
1	15337	905205.347078827426	301.20365990055
1	15342	905402.757877867092	342.26985954875
1	15359	906091.477470362034	256.23399391789
1	15375	906633.538173746596	47.26704509836
1	15383	906772.146663879218	63.960893758752
1	15407	906986.839603363595	132.20926630521
1	15444	908384.93603961663	96.62737195306
1	15490	910250.248977391779	0
1	15498	910623.781888703326	221.7944748682
1	15507	911486.693824661913	852.18866200032
1	15549	913876.226402399373	0
1	15558	914897.404552892549	0
1	15567	915754.291836301751	0
1	15584	916899.611993189735	0
1	15594	918168.63345562238	0
1	15630	922162.590726668332	45.389880518451
1	15648	924732.531451894811	0
1	15656	924950.609228743471	0
1	15681	925692.72643287363	114.80505464544
1	15693	926641.195092902666	941.46447117593
1	15734	930590.493755808734	0
1	15743	931378.94156889449	602.08761358996
1	15752	932653.489617746064	0
1	15769	933520.768362897513	335.31260088186
1	15796	936114.03018245059	0
1	15804	936877.985153912612	0
1	15813	937328.14134266509	0
1	15830	938115.139714733929	0
1	15855	939455.828899930507	0
1	15873	941558.188810556837	0
1	15882	942255.704020158521	0
1	15890	942877.297425840934	0
1	15907	943372.87615476709	0
1	15915	943697.635800659138	0
1	15930	944116.065543726734	376.26280424449
1	15956	944936.37591625969	0
1	15974	946182.591932777442	0
1	15999	947476.165141326857	0
1	16016	948140.053503599596	0
1	16024	948989.455240684213	0
1	16036	949282.304437785487	242.59942335532
1	16049	949979.609391577832	0
2	1104	73383.963091916379	1
2	1109	73400.002741389625	0
2	1112	73554.510119574409	1
2	1115	73832.117228843868	2
2	1121	74164.756369909398	1
2	1126	74238.147463691819	0
2	1138	75353.396503489693	1
2	1147	76331.563289534289	0
2	1164	77474.895751712343	1
2	1169	77584.524518040528	0
2	1172	77680.222294903195	1
2	1177	77741.506951722772	0
2	1189	78074.205835097997	1
2	1194	78305.28332275725	0
2	1197	78719.830000761679	1
2	1202	78844.420742990149	0
2	1222	79566.779762301408	1
2	1227	79609.582785376627	0
2	1247	80344.894194097753	1
2	1252	80491.705282736003	0
2	1275	81966.711294013732	1
2	1281	82091.094525954695	0
2	1292	82445.881012455436	1
2	1294	82445.881012455436	0
2	1301	83102.683627749428	1
2	1303	83102.683627749428	0
2	1309	83172.890861440388	1
2	1311	83172.890861440388	0
2	1317	83640.26531069489	1
2	1319	83640.26531069489	0
2	1334	84206.724847155	1
2	1336	84206.724847155	0
2	1342	84916.518151916557	1
2	1344	84916.518151916557	0
2	1348	85034.181961498981	1
2	1353	85319.501174290028	0
2	1356	85344.266485846375	1
2	1359	85456.026505208175	2
2	1364	85742.778155050267	1
2	1376	86128.890405575577	0
2	1397	86524.530472734421	1
2	1402	86692.513381650234	0
2	1405	86733.125957606078	1
2	1410	86989.289367088451	0
2	1417	87415.883201003385	1
2	1419	87415.883201003385	0
2	1476	90630.024980712704	1
2	1478	90630.024980712704	0
2	1485	91277.131809829894	1
2	1487	91277.131809829894	0
2	1521	92433.705493876762	1
2	1526	92541.866371142695	0
2	1539	92919.990521041894	1
2	1548	93123.815496527956	0
2	1556	93360.801319284904	1
2	1561	93447.761259528529	0
2	1573	94344.684244229703	1
2	1578	94409.534448301738	0
2	1593	95255.898020083226	1
2	1595	95255.898020083226	0
2	1598	95262.191111738211	1
2	1606	95613.586251182258	0
2	1618	96113.296608491335	1
2	1620	96113.296608491335	0
2	1626	96951.172427066852	1
2	1628	96951.172427066852	0
2	1632	97139.675590323606	1
2	1640	97781.937774747167	0
2	1674	99595.183440003454	1
2	1679	99887.14024976501	0
2	1683	100103.010343273403	1
2	1688	100154.779688716809	0
2	1695	101199.324271758449	1
2	1697	101199.324271758449	0
2	1700	101475.46208061692	1
2	1703	101582.786944715392	2
2	1708	101873.588724705707	1
2	1714	102135.990512453428	0
2	1720	102210.578736207978	1
2	1722	102210.578736207978	0
2	1743	103143.384089951532	1
2	1751	103742.59646771798	0
2	1779	105029.482846092686	1
2	1782	105375.423738542703	2
2	1785	105511.326035883781	3
2	1790	105807.28559162134	2
2	1793	105947.562402813062	3
2	1797	106170.935827786475	4
2	1805	106568.488920451032	3
2	1810	106660.51787788164	2
2	1815	106722.377714918774	1
2	1824	107047.39792784422	0
2	1854	108308.935838948773	1
2	1856	108308.935838948773	0
2	1867	108681.150295374175	1
2	1872	108804.060737704785	0
2	1878	108925.791719255968	1
2	1880	108925.791719255968	0
2	1903	109715.065673256474	1
2	1911	109936.110587071867	0
2	1928	110684.509578744002	1
2	1930	110684.509578744002	0
2	1950	111213.739549204013	1
2	1955	111765.022693193674	0
2	1981	115084.541016504064	1
2	1983	115084.541016504064	0
2	1997	115820.727975232086	1
2	1999	115820.727975232086	0
2	2011	116502.942943056537	1
2	2016	116507.187233589604	0
2	2019	116877.04235621709	1
2	2024	116991.257027985807	0
2	2031	117363.716388695738	1
2	2033	117363.716388695738	0
2	2073	119400.483319318309	1
2	2075	119400.483319318309	0
2	2081	119813.321604010928	1
2	2083	119813.321604010928	0
2	2086	119832.406202606308	1
2	2091	119964.415237595442	0
2	2095	120321.476682168904	1
2	2100	120602.391837709163	0
2	2112	121036.748963050951	1
2	2117	121280.368713137196	0
2	2131	121514.762118293193	1
2	2136	121972.697324142922	0
2	2140	122012.514113238418	1
2	2145	122015.045410944582	0
2	2174	124629.290013203343	1
2	2176	124629.290013203343	0
2	2191	125472.753156397313	1
2	2196	125572.135075443339	0
2	2225	127391.710571744543	1
2	2227	127391.710571744543	0
2	2234	128732.415166569885	1
2	2236	128732.415166569885	0
2	2252	130244.3068206501	1
2	2254	130244.3068206501	0
2	2267	132562.798196773512	1
2	2270	132747.006677304372	2
2	2278	132872.190841121823	1
2	2284	133034.041105644633	0
2	2303	133873.299209015047	1
2	2305	133873.299209015047	0
2	2308	133887.987018589293	1
2	2311	133966.247310574617	2
2	2317	134059.14871420074	1
2	2322	134242.884632429066	0
2	2325	134382.138377190792	1
2	2333	134503.248477779142	0
2	2345	135794.726497378792	1
2	2347	135794.726497378792	0
2	2354	136166.375210935994	1
2	2356	136166.375210935994	0
2	2362	136416.65314486476	1
2	2367	136502.386255670257	0
2	2404	138642.726488979586	1
2	2409	138704.249254196261	0
2	2421	139319.942761664091	1
2	2423	139319.942761664091	0
2	2426	139740.943955305171	1
2	2431	139779.722481223482	0
2	2434	139799.929553392899	1
2	2437	139860.093917826839	2
2	2446	140086.06604050722	1
2	2451	140170.095219554463	0
2	2465	140613.678328705857	1
2	2470	140681.906886676796	0
2	2495	141319.798640619835	1
2	2497	141319.798640619835	0
2	2521	143765.395747001092	1
2	2523	143765.395747001092	0
2	2540	146129.384167237847	1
2	2542	146129.384167237847	0
2	2548	146511.07313239564	1
2	2550	146511.07313239564	0
2	2575	149096.207117178613	1
2	2577	149096.207117178613	0
2	2602	152981.811066415706	1
2	2604	152981.811066415706	0
2	2619	153922.869105958903	1
2	2621	153922.869105958903	0
2	2637	155518.187063084178	1
2	2639	155518.187063084178	0
2	2660	157238.377010349499	1
2	2665	157275.907781415348	0
2	2668	157368.307594196844	1
2	2676	157468.678474071232	0
2	2679	157495.785936074311	1
2	2684	157704.609225998518	0
2	2696	158414.572556130603	1
2	2707	158582.585474610207	0
2	2715	158930.956147721659	1
2	2721	159041.649397718906	0
2	2729	159926.71737305462	1
2	2734	159950.739881370915	0
2	2755	161482.480197486542	1
2	2757	161482.480197486542	0
2	2760	161699.789323799907	1
2	2766	162254.271577495774	0
2	2790	164086.029715064522	1
2	2792	164086.029715064522	0
2	2795	164497.143256902418	1
2	2800	164532.719244681759	0
2	2824	166308.367729803377	1
2	2826	166308.367729803377	0
2	2829	166850.652825718161	1
2	2835	167041.207273500859	0
2	2858	168735.104687053174	1
2	2860	168735.104687053174	0
2	2863	168933.603980356318	1
2	2868	168959.348457873071	0
2	2900	170306.484282330519	1
2	2902	170306.484282330519	0
2	2908	170568.399142146148	1
2	2910	170568.399142146148	0
2	2917	171391.452668493472	1
2	2919	171391.452668493472	0
2	2931	172329.598435096505	1
2	2934	172822.662381724808	2
2	2939	172825.760876279218	1
2	2945	173055.977475757046	0
2	2951	173679.974440784843	1
2	2953	173679.974440784843	0
2	2965	174360.948215873487	1
2	2970	174571.183111742867	0
2	2976	174730.838498040984	1
2	2978	174730.838498040984	0
2	2981	174882.248446778578	1
2	2993	175604.331310321383	0
2	3032	177045.661319873763	1
2	3044	178036.033603361174	0
2	3062	180364.171568945336	1
2	3064	180364.171568945336	0
2	3070	180621.436327608022	1
2	3072	180621.436327608022	0
2	3075	180634.534560138939	1
2	3081	181005.998746620153	0
2	3095	181659.940796668722	1
2	3101	182542.894383850447	0
2	3104	182717.218918933868	1
2	3109	182882.357650442	0
2	3129	183953.871105856637	1
2	3131	183953.871105856637	0
2	3138	184350.652522104997	1
2	3140	184350.652522104997	0
2	3147	185159.768156918183	1
2	3149	185159.768156918183	0
2	3155	185256.746206217786	1
2	3157	185256.746206217786	0
2	3160	185294.100936286726	1
2	3171	185722.775546687341	0
2	3204	186949.936698484093	1
2	3206	186949.936698484093	0
2	3227	188350.11807697147	1
2	3230	188529.18772334479	2
2	3233	188543.569934733904	3
2	3238	188870.471305590883	2
2	3242	189092.536058638089	3
2	3247	189096.771060923175	2
2	3258	189578.490633313434	1
2	3263	189600.869408535513	0
2	3319	192789.953587335353	1
2	3322	192988.878281548175	2
2	3328	193108.762670360774	1
2	3333	193336.116878234728	0
2	3340	194172.446533929726	1
2	3342	194172.446533929726	0
2	3349	195520.674987346027	1
2	3351	195520.674987346027	0
[...]
7	10357	596820.020336080526	3
7	10372	597119.939193562611	4
7	10375	598275.607692582344	3
7	10384	599028.857547560747	2
7	10402	600187.28713586916	3
7	10407	600230.699204527979	4
7	10415	600917.601035968458	5
7	10423	600962.063950272704	6
7	10425	600996.553621297509	5
7	10434	601257.19729385747	4
7	10448	602198.299175795832	3
7	10452	602253.021082991239	4
7	10456	602800.124830624117	3
7	10471	603276.028610240537	2
7	10480	603431.08331497401	3
7	10485	603636.547625179794	4
7	10498	604234.169224588428	3
7	10502	604483.222268506274	4
7	10514	604952.286631351301	3
7	10519	605081.000641574851	4
7	10526	605293.111936577874	3
7	10531	605301.847291699572	2
7	10543	606349.83450221987	1
7	10551	607278.377857467918	2
7	10555	607492.186134827423	1
7	10562	607712.441100329653	2
7	10568	608153.081487083606	3
7	10575	608344.993385819519	2
7	10578	608804.483954225574	1
7	10591	609753.217487841605	2
7	10597	610953.8895737768	3
7	10607	611488.323267352968	2
7	10624	612328.967946610469	1
7	10628	612344.88593115986	2
7	10635	612370.106890120378	1
7	10644	612405.627610143071	2
7	10662	613211.594181744856	1
7	10678	615162.332131093505	2
7	10680	615559.492667752861	1
7	10695	617615.377574226561	0
7	10699	617733.27426241476	1
7	10714	619687.832597538984	2
7	10717	620239.826779283319	1
7	10732	621531.292461782172	2
7	10744	622960.292388681336	3
7	10750	623461.934957019679	4
7	10758	623747.784970714362	5
7	10761	624363.288161216821	4
7	10775	625479.94160469568	3
7	10779	625611.504449174751	4
7	10792	626163.88488771794	3
7	10796	626261.222159755389	4
7	10803	626433.599329173796	3
7	10812	627454.567239564254	2
7	10826	628917.363174722121	1
7	10830	628942.477140801099	2
7	10837	628966.543314089748	1
7	10852	629619.697000059294	2
7	10865	631128.538840550845	3
7	10869	631216.565195747995	2
7	10873	631343.98441200443	3
7	10887	632041.802734624649	4
7	10889	632602.421450514185	3
7	10904	633657.671668690234	4
7	10912	633669.627761520718	5
7	10915	634734.551519977505	4
7	10920	634788.607994679922	3
7	10932	635049.61498325218	2
7	10946	635661.001683139621	3
7	10949	636114.948039661946	2
7	10957	636911.413562105173	1
7	10973	638805.508780496879	2
7	10975	638895.712019345778	1
7	10980	638911.416687464992	0
7	10999	640094.018788692279	1
7	11007	641206.319468028781	0
7	11011	641949.315236396044	1
7	11025	642625.893577685111	2
7	11033	642962.539964875962	3
7	11036	643910.594091871481	2
7	11045	644061.060734422369	1
7	11060	645607.88951752154	2
7	11065	648522.660724297462	1
7	11080	649828.816359569083	2
7	11089	650588.30456931208	3
7	11097	651378.851546324048	2
7	11101	651608.365425623998	3
7	11118	652275.49546103829	4
7	11122	652470.162055700095	3
7	11126	652526.037767741353	4
7	11145	652944.42174750274	5
7	11157	653642.491902197631	6
7	11162	653682.713607662418	7
7	11167	653768.447594270394	8
7	11172	653777.822465219036	9
7	11174	653845.478375506172	8
7	11179	653942.344179074939	7
7	11191	654549.67642118594	6
7	11196	654647.67832759131	5
7	11199	654736.892058819189	4
7	11207	654911.952967697792	3
7	11230	656523.447389304708	2
7	11240	656776.030822897905	3
7	11245	656864.109705855634	4
7	11251	657107.733977314804	5
7	11265	658566.294540919263	6
7	11267	658600.418989415294	5
7	11275	658981.887333468512	4
7	11279	659372.923175184368	3
7	11288	659995.438468860715	4
7	11293	660344.223662348529	3
7	11301	660785.45785063839	2
7	11314	661102.395771407146	3
7	11326	661497.853966733942	2
7	11330	661509.278600720558	3
7	11334	661518.661124133326	2
7	11351	662160.264658905519	1
7	11366	663206.23563117475	2
7	11373	663899.109862231052	1
7	11378	664386.527054383564	2
7	11392	665176.621540291854	3
7	11400	665583.480663037022	4
7	11402	665651.68719862234	3
7	11408	666173.390971201288	2
7	11411	666174.368474979576	1
7	11423	666702.24087974689	2
7	11436	667555.979220962154	1
7	11452	669701.464173366475	2
7	11454	669977.74123838664	1
7	11470	671053.474992494234	2
7	11473	672185.795526226562	1
7	11488	673491.784648413773	2
7	11490	673603.753000233786	1
7	11506	675714.253189408724	2
7	11519	677307.515125285705	3
7	11524	677443.261998855008	4
7	11532	677934.896870403235	5
7	11534	677956.681075606361	4
7	11543	678284.739837559868	3
7	11558	678891.977212132018	4
7	11562	678995.309660009927	3
7	11567	679015.528725949944	4
7	11572	679205.242472578933	5
7	11581	679683.391090370703	4
7	11585	680037.255623119605	3
7	11591	680132.981655375548	2
7	11606	680485.710083448759	3
7	11611	680709.026275977614	4
7	11615	680840.244532298742	3
7	11618	680862.254690781036	2
7	11622	680880.951537263232	3
7	11635	681128.385919878394	2
7	11644	681435.240625558755	3
7	11669	683056.291303857523	4
7	11682	683438.205320686356	5
7	11684	683863.75431480633	4
7	11693	684091.396298483106	3
7	11709	686019.420656382788	4
7	11718	687394.436251086232	5
7	11726	687959.474947949054	6
7	11729	688027.815940479407	5
7	11734	688167.21026206891	4
7	11751	688604.361291748393	5
7	11754	689478.669908999767	4
7	11759	689485.194462755505	3
7	11771	690042.523587943987	2
7	11778	690790.255206048485	3
7	11783	690794.882359214989	4
7	11797	691215.60171557737	5
7	11801	691453.057593921477	4
7	11819	692366.240656783355	5
7	11821	692975.332462341442	4
7	11835	693672.228681907466	3
7	11838	693717.927097727251	2
7	11845	694570.892544941757	1
7	11849	694704.891053192213	2
7	11854	694714.38773649448	3
7	11872	695181.59337895131	2
7	11880	695717.823241989323	1
7	11898	696780.253664816062	2
7	11907	697164.397489309817	3
7	11912	697248.010066128984	4
7	11920	697507.642440437526	5
7	11933	697928.690442062158	4
7	11937	698047.496515752463	3
7	11944	698393.290073803386	4
7	11948	698426.026589902254	3
7	11952	698596.581466263483	4
7	11957	698990.980337502656	5
7	11963	699171.515534062579	6
7	11981	700836.498529558271	5
7	11990	701041.322843060912	4
7	12004	701746.627334740627	5
7	12013	702173.037825740527	6
7	12015	702224.621242557576	5
7	12023	702526.151804275699	4
7	12028	702685.03876089364	3
7	12050	704383.523897611676	4
7	12055	704661.628167555921	5
7	12063	704908.519103283983	6
7	12066	705239.373308419428	5
7	12074	705791.398206735509	4
7	12084	707150.515811678616	3
7	12098	707798.782174218024	4
7	12111	710292.205240668007	3
7	12115	710574.966843870224	4
7	12119	710673.402397324811	3
7	12122	710864.860426014906	2
7	12126	711000.671059463033	3
7	12140	712429.104118219423	2
7	12149	712936.279338810208	3
7	12163	713972.76188491589	4
7	12180	714520.109806271399	5
7	12185	714954.421157958266	6
7	12188	715377.161990020436	5
7	12193	715451.364082213988	4
7	12196	715472.178291125902	3
7	12215	716127.312191634842	4
7	12220	716128.62027204092	5
7	12224	716136.755795289327	4
7	12228	716237.536680684352	5
7	12235	716528.685943177704	4
7	12244	716991.072850678956	5
7	12258	717160.721908246263	6
7	12267	717571.152032031679	5
7	12270	717877.811160923187	4
7	12274	718199.464932591355	3
7	12277	718500.429305822882	2
7	12304	719266.672326901222	1
7	12318	719665.267333490729	2
7	12323	722435.130615411308	1
7	12332	723341.272232225194	0
7	12347	724114.53312708402	1
7	12355	724881.48363482684	2
7	12357	724963.95461714408	1
7	12373	726171.540967179219	2
7	12377	728084.037255153811	1
7	12386	729253.522649819389	0
7	12402	732013.138687535051	1
7	12405	732463.948790984678	0
7	12424	734047.050448035308	1
7	12429	734227.251687705379	2
7	12436	734478.254401326448	1
7	12440	734508.695278190962	2
7	12454	735309.838543668316	3
7	12456	735366.842571315417	2
7	12465	736180.291161974706	1
7	12478	736342.017064243978	0
7	12482	736376.648622277269	1
7	12500	739234.163588732618	0
7	12504	739552.340471885818	1
7	12509	739767.500974652244	2
7	12523	740485.448688744228	3
7	12532	741145.692617141169	4
7	12540	741783.091183381565	5
7	12543	742410.748743482711	4
7	12551	742573.244214416849	3
7	12556	742855.898036162083	2
7	12569	744377.681589140504	1
7	12578	745088.194757758132	0
7	12592	745588.186465537677	1
7	12600	746608.361320376967	0
7	12604	746671.250275061621	1
7	12618	747080.415903386871	2
7	12620	747729.68556934665	1
7	12629	748478.688316570243	0
7	12644	749148.748985848498	1
7	12653	750611.361660538714	2
7	12655	750793.681505977752	1
7	12669	751861.106216981743	0
7	12674	752149.114459631042	1
7	12687	752529.668180632872	2
7	12689	752559.323674306076	1
7	12704	753716.431751313429	2
7	12714	755582.5454264863	3
7	12723	756266.88203489953	4
7	12725	756392.129803512466	3
7	12738	756974.47665866613	2
7	12749	757395.92257921314	3
7	12753	757549.656503061169	2
7	12760	757764.246860809385	3
7	12768	758183.615764583144	2
7	12771	758201.83687388844	1
7	12775	758607.366313765243	2
7	12787	759379.022850591065	3
7	12795	759589.628618777667	4
7	12800	759611.816068574715	5
7	12805	759883.514807466676	6
7	12811	760063.61237361328	7
7	12821	760286.150318267736	6
7	12827	760758.427675196766	5
7	12836	761014.66497197584	4
7	12845	761081.38869181285	3
7	12849	761099.791089667001	4
7	12857	761588.318351714652	5
7	12862	761655.523719755852	6
7	12866	761676.976414684836	5
7	12870	761829.332907521663	6
7	12884	761973.462374981809	7
7	12892	762032.013796624788	6
7	12899	762216.272374343303	7
7	12904	762292.138631777436	8
7	12908	762544.940352853133	7
7	12912	762851.226160541537	8
7	12917	763024.534479899301	7
7	12921	763372.607087514683	8
7	12925	763717.808345792928	7
7	12929	763801.468607150674	8
7	12934	764657.238535568725	7
7	12937	764661.677125194593	6
7	12940	764771.27058847917	5
7	12944	764890.141089901876	6
7	12948	764956.502160401448	5
7	12956	764999.137348217409	4
7	12970	765618.687423889471	3
7	12979	766027.471278079476	2
7	12997	766898.963272518292	1
7	13046	768704.861170124573	2
7	13074	769492.76042755265	1
7	13089	770550.065296733434	2
7	13099	772052.282540919328	3
7	13106	772472.098889663001	2
7	13109	772495.829548993903	1
7	13114	773345.13751831426	2
7	13124	774166.440152731953	1
7	13142	775190.191299098964	2
7	13150	776825.038125300902	1
7	13154	776991.749271193734	2
7	13171	777496.350303687291	3
7	13176	777659.692868023018	4
7	13179	778036.806619699381	3
7	13187	778154.95066963241	2
7	13195	778563.713484159823	1
7	13201	779214.522645382412	0
7	13219	780370.736270679685	1
7	13222	781241.19959757039	0
7	13237	782721.68550328317	1
7	13246	783620.515696655993	2
7	13257	783801.786948046052	3
7	13262	783865.88607908403	4
7	13266	785148.822038696317	3
7	13275	786539.594522721786	2
7	13280	786573.361438451573	1
7	13283	786582.13507898247	0
7	13312	787445.353591032948	1
7	13317	787681.316284816173	2
7	13326	788373.879315342204	3
7	13331	788407.022485201132	4
7	13338	788752.072008626967	3
7	13342	788822.318734320196	4
7	13346	788854.259919973715	3
7	13358	789260.469145506156	2
7	13373	790439.621650316718	3
7	13375	790877.599702452085	2
7	13384	791184.72191473503	1
7	13392	791332.259215653241	0
7	13408	793093.886439934491	1
7	13416	793971.112084908625	2
7	13419	794559.345579663437	1
7	13433	794699.245796658536	2
7	13435	794976.177881165789	1
7	13441	795150.368009024559	0
7	13460	797456.983651448659	1
7	13462	797774.615253391397	0
7	13478	799028.741281062274	1
7	13494	801048.694223404699	2
7	13498	801050.836348289099	1
7	13502	801354.864022313007	2
7	13510	801578.309798836941	3
7	13515	801867.542600585399	4
7	13529	802814.853105851069	5
7	13532	803028.155672551035	4
7	13540	803397.742262199583	3
7	13543	803475.222621162795	2
7	13552	803838.411012036359	3
7	13565	804653.655419989686	2
7	13580	805076.288054768914	3
7	13582	805422.672113321248	2
7	13587	805508.927450818938	1
7	13591	806580.219782141684	0
7	13604	807042.56481334786	1
7	13621	808601.767811109886	2
7	13630	809125.801039587524	3
7	13635	809232.264131796197	4
7	13639	809274.062064109399	3
7	13660	810138.063561811964	4
7	13664	810238.788521146999	3
7	13668	810950.110003122833	4
7	13676	811652.707761035915	3
7	13681	811785.52608725361	2
7	13700	813122.561080511339	3
7	13708	813481.433641803137	4
7	13717	814407.267134220346	5
7	13725	814644.064193629741	6
7	13727	814748.814026859306	5
7	13732	814922.267378595157	4
7	13749	815968.109274616341	3
7	13753	816019.670167806827	2
7	13757	816346.619484733252	3
7	13776	817422.758263838866	4
7	13779	818204.514149923157	3
7	13793	818464.842059306978	4
7	13801	818807.626917620544	5
7	13809	818915.430090082588	6
7	13812	819308.984472264856	5
7	13829	820208.949013944919	4
7	13833	820759.134552307533	5
7	13837	820912.598449273601	4
7	13842	821179.416362592567	5
7	13846	821548.52878518215	4
7	13849	821711.975670298444	3
7	13871	822378.665639508936	2
7	13880	823596.649850919329	1
7	13885	823655.657112825286	0
7	13901	824683.188424812854	1
7	13906	824863.333588492209	2
7	13913	824955.994024180467	1
7	13922	825140.13223999697	0
7	13937	826025.857539039082	1
7	13945	826659.722683647016	2
7	13953	826825.999750975734	3
7	13956	827117.783896890969	2
7	13964	827344.045351412896	1
7	13978	827755.930819739156	2
7	13981	828367.319859239548	1
7	13989	828657.457491512854	0
7	14003	828999.100921950004	1
7	14013	830133.757833846541	2
7	14016	831750.938780227362	1
7	14031	832203.570952086666	2
7	14039	832703.517431827647	3
7	14042	833994.093241829418	2
7	14051	834988.840601971302	1
7	14066	835757.588243389252	0
7	14085	836371.690284857182	1
7	14090	836616.867161604966	2
7	14096	837081.093560728763	3
7	14101	837263.843406589963	4
7	14109	837529.424143698784	5
7	14113	837950.817553777228	4
7	14117	837985.768244979241	5
7	14122	838069.08554685657	4
7	14126	838205.538212567565	5
7	14140	838886.460035530141	4
7	14152	839351.709841830927	3
7	14161	839770.166003783975	4
7	14175	840662.605718337147	5
7	14178	841122.880250255118	4
7	14192	842118.70355245893	3
7	14196	842180.087162414003	4
7	14212	843383.826583951031	3
7	14216	843916.573296717245	4
7	14222	844108.906636373406	5
7	14235	844669.568304875211	6
7	14238	845083.827079605147	5
7	14247	846131.198939889253	4
7	14264	846710.222260595169	5
7	14272	846902.074472460363	6
7	14277	846995.239489976346	7
7	14286	847190.057265135099	8
7	14288	847249.695981123313	7
7	14293	847278.416556271286	6
7	14311	848271.657592046207	7
7	14318	848749.460975649295	6
7	14322	848833.763274326146	7
7	14336	850467.813901540435	6
7	14340	850525.385681891385	7
7	14347	850870.363999675321	6
7	14356	851041.244331277314	5
7	14364	851226.077929196655	4
7	14373	852280.704687519591	3
7	14381	852763.177880734411	2
7	14390	853232.543304501189	1
7	14394	853536.862395668562	2
7	14412	854590.942392187315	1
7	14416	854740.885460049394	2
7	14430	855645.497828050257	3
7	14433	856026.984008692593	2
7	14438	856090.982681080973	1
7	14459	857181.495047640805	2
7	14464	857328.412286277643	3
7	14466	857411.589249490221	2
7	14474	857920.581831911742	1
7	14489	858675.341123964703	2
7	14491	858860.51295656734	1
7	14506	859931.656603437883	2
7	14515	860077.123586862716	3
7	14526	861665.721911147078	2
7	14529	861792.360688882408	1
7	14533	861869.562829273538	2
7	14538	862016.675468972645	3
7	14552	863004.592896805423	4
7	14566	863422.309403116839	5
7	14568	863756.496191344657	4
7	14583	864430.617673855176	5
7	14585	864434.802348855815	4
7	14593	864637.019168761411	3
7	14608	865781.160120883067	4
7	14617	866363.171646413932	5
7	14626	867693.773121883455	6
7	14633	867965.486862094584	5
7	14637	868189.821090703802	4
7	14640	868241.097174724222	3
7	14644	868580.310770967507	4
7	14653	868795.005953344962	3
7	14657	869246.429351327337	2
7	14681	871190.336237261696	3
7	14688	871465.490422196276	2
7	14693	871508.289078860427	1
7	14711	872162.026350505575	2
7	14718	872260.672468749112	1
7	14723	873120.839657084468	2
7	14727	873292.394136943404	1
7	14744	873909.604200459399	2
7	14748	875029.745829499974	1
7	14763	876715.805829525064	2
7	14766	877647.680599379989	1
7	14781	878229.175294252652	2
7	14792	878557.648546646378	3
7	14796	878688.024659964515	2
7	14801	879119.824254764659	3
7	14813	879607.34571255885	2
7	14816	879622.976177024017	1
7	14823	879979.356434757596	2
7	14829	880238.730470923535	3
7	14841	880633.817882224135	2
7	14844	880648.527956791318	1
7	14853	880969.487442403017	2
7	14872	881912.438468834507	3
7	14874	881991.744045947674	2
7	14889	882953.171507492681	3
7	14901	883762.704481775347	4
7	14906	883811.915542962515	5
7	14910	885107.139974666876	4
7	14918	885134.826319701552	3
7	14932	885645.088502779681	4
7	14934	885653.49775332197	3
7	14948	886426.792565466127	2
7	14951	886731.038640475351	1
7	14955	886852.440057421695	2
7	14969	887993.445508070542	3
7	14983	888631.757642963728	4
7	14985	888867.107140072532	3
7	14990	888971.383682554023	2
7	15002	889189.492030299327	1
7	15016	889712.502813788228	2
7	15024	890348.566643369039	1
7	15028	890406.510052921086	2
7	15046	890951.950035124157	1
7	15051	891042.908416490965	2
7	15059	891728.113074854828	3
7	15063	891731.344318696443	2
7	15066	891904.321225650525	1
7	15071	892171.018669343826	2
7	15076	892744.564193739918	3
7	15090	893544.555593806925	4
7	15109	894127.804458186005	5
7	15117	895985.614548492325	4
7	15122	896341.349763343018	5
7	15130	897173.292041478382	4
7	15144	897636.361793895839	5
7	15146	897768.076650223044	4
7	15151	897914.783034851908	3
7	15170	898536.823429339936	4
7	15175	898794.739745277991	5
7	15179	898944.710467303916	4
7	15183	899017.860303250673	5
7	15193	899324.256439650442	4
7	15214	900089.347748769726	5
7	15218	900277.198014255748	4
7	15221	900325.871796946002	3
7	15225	900441.049296720171	4
7	15239	902298.472732161591	3
7	15246	902465.401088631624	4
7	15250	902625.811676973588	3
7	15254	902650.967098467349	4
7	15267	902885.154184657709	5
7	15287	903924.269079788585	6
7	15291	904000.789096568371	5
7	15296	904136.522378854486	6
7	15300	904232.299279150081	5
7	15304	904354.975492528516	6
7	15311	904499.35488553659	5
7	15320	904886.044316987394	6
7	15327	905001.313938562462	5
7	15340	905402.757877867092	6
7	15344	905487.52926657249	5
7	15348	905834.194924485161	6
7	15361	906240.51187411576	5
7	15365	906493.190340591251	6
7	15381	906772.146663879218	7
7	15386	906795.470187176719	8
7	15390	906801.420223845328	7
7	15401	906939.319119957141	6
7	15410	907033.981981007524	5
7	15414	907059.251314834245	6
7	15418	907129.374968679962	5
7	15421	907213.412945702553	4
7	15435	908059.98606923537	3
7	15446	908398.55137810664	2
7	15450	908404.493184767416	3
7	15470	909414.629295685829	2
7	15496	910623.781888703326	3
7	15505	911486.693824661913	4
7	15510	911501.018480223834	5
7	15512	911953.871019587101	4
7	15521	912319.606910751627	3
7	15526	912634.289672922952	2
7	15534	913017.285144476061	1
7	15553	914241.968325841902	2
7	15562	915177.399511522348	3
7	15571	916224.935372336279	4
7	15573	916472.437945944422	3
7	15588	917636.55317369804	4
7	15597	918174.670721942911	5
7	15600	919179.078845273675	4
7	15608	919610.76016401391	3
7	15618	921656.02312668841	2
7	15633	922220.551229259306	3
7	15635	922477.705489545018	2
7	15651	924831.931969818403	3
7	15660	925070.447239559632	4
7	15662	925280.172101687444	3
7	15670	925571.241379823827	2
7	15687	926473.757117337186	1
7	15691	926641.195092902666	2
7	15696	926793.954892299071	3
7	15700	926811.731558616828	2
7	15712	928010.17398975424	1
7	15718	928122.182441441892	0
7	15741	931378.94156889449	1
7	15746	931605.920420106249	2
7	15754	932880.688944982944	1
7	15758	932922.088732322861	2
7	15772	933728.733405914518	3
7	15775	934578.221106737579	2
7	15783	934944.828044122744	1
7	15799	936444.283041068908	2
7	15808	937153.408400916365	3
7	15816	937392.555052966812	4
7	15818	937442.106880325925	3
7	15833	938397.952651333357	4
7	15835	938452.424780082243	3
7	15843	938766.675593866277	2
7	15859	940029.450206413987	3
7	15861	940365.876960568988	2
7	15876	941849.698903901927	3
7	15885	942440.071308909957	4
7	15892	942962.329781042742	3
7	15897	943140.130504066419	4
7	15910	943639.967032950307	5
7	15920	943897.94169982555	4
7	15924	944042.058997984848	3
7	15928	944116.065543726734	4
7	15933	944133.62547532587	5
7	15945	944526.806679826345	4
7	15960	945079.918821343256	5
7	15962	945464.644078575469	4
7	15977	946336.354116155314	5
7	15979	946924.689271311105	4
7	15984	946959.192055103268	3
7	16001	947480.762116637279	2
7	16005	947727.076301443138	3
7	16019	948223.664497842418	4
7	16030	949086.326745861957	3
7	16034	949282.304437785487	4
7	16039	949562.456102369335	5
7	16053	950091.028338263978	6
7	16055	950320.640027388809	5
