version 2
run QueueMeasurement-138-20170109-14:20:10-6571
attr configname QueueMeasurement
attr datetime 20170109-14:20:10
attr experiment QueueMeasurement
attr inifile queueStudy.ini
attr iterationvars ""
attr iterationvars2 $repetition=138
attr measurement ""
attr network controltower.SimNetwork
attr processid 6571
attr repetition 138
attr replication #138
attr resultdir results
attr runnumber 138
attr seedset 138
param SimNetwork.a.parkingLot.parkingDelay exponential(45min)
param SimNetwork.a.runway.landingTime exponential(5min)
param SimNetwork.a.runway.takeoffTime exponential(5min)
param SimNetwork.a.runway.throughputCheckInterval 16.667min
param SimNetwork.wg.interArrivalTime exponential(16.667min)

vector 5  SimNetwork.a.runway  landedThroughput:vector  ETV
attr source  landedThroughputSignal
vector 6  SimNetwork.a.runway  tookoffThroughput:vector  ETV
attr source  tookoffThroughputSignal
vector 2  SimNetwork.a.landingQueue  queueLength:vector  ETV
attr source  queueLengthSignal
vector 7  SimNetwork.a.parkingLot  parkingOccupancy:vector  ETV
attr source  parkingOccupancy
vector 4  SimNetwork.a.takeoffQueue  queueLength:vector  ETV
attr source  queueLengthSignal
vector 1  SimNetwork.a.landingQueue  queueTime:vector  ETV
attr source  queueTimeSignal
vector 3  SimNetwork.a.takeoffQueue  queueTime:vector  ETV
attr source  queueTimeSignal
vector 0  SimNetwork.wg  responseTime:vector  ETV
attr source  responseTimeSignal
0	1248	72368.169027102124	8870.4443743847
0	1253	72715.683660482796	4756.8967549317
0	1269	74239.339972102706	7489.6628764066
0	1294	75365.91335453194	13818.534213806
0	1299	75633.600837621826	7648.8072707515
0	1307	75992.119295853308	4112.2034510836
0	1316	76287.363245602054	6425.3041273788
0	1369	78807.75982262579	18643.11069477
0	1381	79085.826813543941	5389.081262413
0	1389	79592.879658735371	5229.9471484823
0	1394	79690.314677002359	9047.1110084253
0	1406	80850.305050974734	9889.4563590165
0	1429	82469.667778505077	6379.6772122856
0	1437	82855.084536536313	5966.6698742639
0	1445	82888.684483967686	5942.5118975504
0	1450	82908.391015985242	10887.005062888
0	1459	83332.308659406305	5303.2954054185
0	1464	83621.026887782711	2966.5118787575
0	1469	83746.698050049037	13688.327715859
0	1474	83797.853536652948	5739.183472311
0	1511	88485.58940397783	7458.5303433332
0	1573	91291.009461327704	3433.5726011199
0	1581	91733.467703685394	2140.9689932711
0	1587	92017.624825310526	3169.4137050419
0	1595	93000.022118299141	5592.1858775318
0	1607	93373.681158477848	3081.2455950947
0	1615	93726.285311534525	3491.0523827272
0	1637	94231.783505437042	3540.121149631
0	1697	99481.244118464577	5987.4586274612
0	1702	99553.686504988078	10730.371733066
0	1707	99678.463111443355	13989.598860245
0	1712	99780.888621666385	3513.3213661263
0	1717	99848.447765677545	5986.4938007738
0	1729	100503.960085155354	5890.3619638789
0	1740	101303.24177351455	4892.520501737
0	1748	101704.253560020618	4792.4200831422
0	1785	106611.130705799575	2246.1543347904
0	1811	108707.103462264598	5012.9194919312
0	1830	111043.397281265993	11102.818350248
0	1842	112154.194984760375	4474.4493607083
0	1855	112796.629912416784	1975.3517033551
0	1867	113937.040907058346	5632.4519588943
0	1882	115324.992467310568	3280.1890953498
0	1892	117309.996495994292	12235.155342967
0	1922	120990.944838264447	3406.7682381492
0	1936	121326.847892184734	7810.7780099475
0	1949	123187.644793398073	5272.0164242408
0	1964	125515.243096912932	5091.9884455544
0	2041	129878.565582710888	2852.690413839
0	2050	130129.839861314151	3063.6377979522
0	2055	130151.045907521597	3094.6537210841
0	2060	130209.825746542698	7435.3920933436
0	2065	130580.879613846638	2221.926209578
0	2076	130716.850334490269	2474.1346277385
0	2166	134635.417422110957	5237.5155018316
0	2171	134820.939590624872	7346.8425682483
0	2179	134940.645697759813	4047.4306142793
0	2213	136185.75143662368	5493.0851870451
0	2227	136915.803338277237	5796.0396214202
0	2240	138165.979862762758	6471.4981085736
0	2245	138365.697080562256	3490.9972505198
0	2253	138551.134306614913	4663.8170103296
0	2266	138849.316339451885	5422.7479248902
0	2277	139078.073201590436	8073.173223293
0	2285	139489.816789988729	6826.0085210097
0	2313	140491.513045498722	6179.7780914858
0	2343	141474.784513692567	2671.515823916
0	2348	141501.969068020404	3011.8460338325
0	2365	142041.589083456107	6807.1250796547
0	2385	143247.227195100094	2412.3888707036
0	2396	143685.18283901174	3445.4783561141
0	2401	143838.198230582103	4606.1400252473
0	2407	144316.884451534006	4672.597865939
0	2426	146003.256956776696	5483.6462070375
0	2444	146290.673294910861	4698.2627009646
0	2452	146626.989632457543	11353.970345444
0	2457	146835.006707287997	4695.9871907269
0	2512	150278.791313264472	4372.5729263475
0	2520	150534.919813427261	2026.6084493096
0	2525	150654.674539329609	3569.3854697858
0	2545	151027.520162314135	1810.6931251159
0	2550	151055.791838436405	2662.5243443774
0	2566	151473.68892506581	2879.2235747451
0	2574	151853.71774991666	6805.2796921117
0	2620	154506.710687758852	3722.8180301432
0	2629	155127.927779106188	4032.4307498049
0	2663	157114.329127164053	4146.9352894839
0	2668	157278.403417031027	4905.2798041767
0	2684	157576.505367687733	1023.9248664784
0	2696	158994.833207543053	4979.2444145892
0	2708	159588.381049376359	3481.7024732967
0	2719	160059.563315409037	8011.6882332558
0	2731	161824.189877791042	4397.1089990736
0	2763	164745.634226959681	9656.4442799793
0	2771	164988.842022676038	2240.7873347257
0	2789	166780.493266411492	7686.9859859413
0	2823	168378.566954121633	2821.1454867428
0	2841	170182.660656204186	9129.8306514522
0	2858	170935.28310948901	7587.9463473824
0	2900	172987.813274101547	4923.841577793
0	2906	173328.472763211856	6107.2152023112
0	2911	173446.319465735406	6463.0802391215
0	2926	174094.107176080203	3541.8980436769
0	2937	174705.336919856015	3902.6279355476
0	2964	175566.850687165921	5019.9863288327
0	2969	175692.109600649892	5994.3668652936
0	2974	175779.875180716667	4608.6874841275
0	2991	176305.927928204289	1474.0028900376
0	3016	177968.39183449478	3373.9119045646
0	3042	179085.327615357936	2187.5181158136
0	3098	181435.407598389035	7007.0945524326
0	3106	181499.802860170227	5457.0546479778
0	3111	181614.00158695991	1542.1010473296
0	3116	181694.249597792796	3119.5824029981
0	3145	183553.370815668844	2932.0491378303
0	3165	184137.622070409215	4250.2506340776
0	3176	184770.401597858847	8117.4542159353
0	3186	184923.745185659808	3202.4162510786
0	3192	185016.70826616198	3051.7470047799
0	3200	185924.883215177635	2443.44848574
0	3209	186332.065614178664	7083.0721201418
0	3217	186470.081924459327	7873.1419690282
0	3247	189747.940863415514	5395.0370894558
0	3295	191356.693324031618	12192.295386725
0	3303	191896.894834647008	1318.4802968673
0	3318	193168.673851055534	2426.6785780614
0	3328	193469.440105282431	4758.5879819108
0	3336	193877.420807630891	2298.1052524472
0	3345	194227.609575927089	4525.3400714415
0	3357	195479.630908077623	7211.4479284051
0	3382	196610.295883084263	5702.1008696777
0	3447	199635.330907009609	4407.2914537506
0	3456	200491.079879823746	3363.1347026687
0	3470	201089.700666589924	3053.8388980988
0	3475	201103.962830045372	4580.8072689295
0	3480	201320.546111434241	4562.1244218438
0	3522	204717.959331777297	6396.4213737281
0	3546	205467.841339504787	2724.4299840186
0	3561	206543.632347468757	13667.568804657
0	3566	206638.626309436041	10602.103088061
0	3578	207423.760398350957	3286.0581231011
0	3591	209073.999855261096	9103.1798234352
0	3615	210109.892776848934	12290.344305482
0	3620	210652.235374604725	6411.7546181065
0	3625	210770.545275442043	7981.1237083842
0	3655	213454.659598560434	4358.5422129716
0	3707	216273.215586275579	11970.378764041
0	3712	216442.989868487838	3742.3499697915
0	3717	216951.696167061642	1812.8605874231
0	3726	217010.152864863247	2791.273685976
0	3736	217392.044485532811	9643.482953736
0	3744	217738.94728990202	5688.9275279785
0	3754	219422.857803689386	11981.214178093
0	3762	219466.046804549197	6103.8626766649
0	3782	223581.995750617843	6620.8375900322
0	3790	223727.183155813942	8442.170114029
0	3810	227057.661039761113	6291.7639705453
0	3838	231675.485944130675	7655.1006029066
0	3866	235191.556818108554	1966.8335570168
0	3878	236501.239712100067	6910.9764619455
0	3910	239950.18284113826	5442.8508103497
0	3936	241442.654377827925	2766.9262045418
0	3945	242189.910953633344	13007.98924932
0	3954	243801.37337696109	7305.6295074378
0	3984	246735.387842241307	6478.9598254059
0	3996	247207.331919385444	10542.09877313
0	4023	248369.029643697368	3166.4204821976
0	4032	249172.094545206614	2953.2180291122
0	4040	249783.664440431026	9436.5085706686
0	4050	251744.073808775916	4708.9931591902
0	4087	253627.124535209084	6500.5656637764
0	4092	253707.023186320473	5665.4931965353
0	4101	254329.982863637971	2167.6518193067
0	4134	257628.906124096609	4983.8938931763
0	4167	258858.145825459295	3809.9788392227
0	4172	258891.156824091157	6662.6395308914
0	4187	259370.535583679087	1719.446894255
0	4213	259836.974616274639	2487.1785055031
0	4222	260567.198161502661	1277.510360781
0	4227	260693.560251321382	1771.356635243
0	4252	261861.829228912963	4045.4695027049
0	4261	262387.415366970082	6928.2963582399
0	4340	265697.385858684708	3248.272712359
0	4376	266979.970008316735	7487.0859088397
0	4382	267015.458279341395	3555.3689308937
0	4387	267102.21909271364	2434.0981628926
0	4392	267303.541824147967	3073.2951458848
0	4404	268020.201326016032	3270.2927467848
0	4415	268268.94860606259	7404.578299467
0	4429	268686.737003590139	7672.8296504324
0	4457	270902.882855062154	7269.3040890382
0	4463	271144.209022961564	4989.4325011086
0	4474	271693.66982132978	6557.4970278555
0	4494	273065.462771704539	4788.6177608938
0	4499	273300.528782861316	5013.5890279526
0	4507	273661.477835550902	10468.421840289
0	4512	273802.049869523695	2628.5742403
0	4524	274132.650118070109	7928.5472496134
0	4598	278966.973817888236	7675.2989875116
0	4604	279053.305354563381	4218.0130417265
0	4609	279107.903264459872	2370.7601705574
0	4614	279443.348593262578	4312.9964125682
0	4638	281302.688549239565	4158.799231629
0	4660	282431.948806072664	8512.9929207395
0	4668	282754.480669728967	14455.920413687
0	4696	283273.175452902501	6873.7280289435
0	4709	283597.475588456989	6481.3044823188
0	4722	283676.573500879786	519.00638275547
0	4740	285559.100265459649	2021.3427043988
0	4748	285883.882104475406	3376.7096250356
0	4773	288195.44127637293	7426.7640299749
0	4783	288307.495801544053	8752.4457241946
0	4795	289129.893098249554	2622.5299659179
0	4803	289509.370335349286	7629.8602309252
0	4817	290558.440714788103	7695.3049032128
0	4830	292194.760304890602	7879.066347803
0	4852	293186.747830344411	3868.6914256456
0	4871	293656.825159143124	6211.6677923016
0	4885	294715.675814306981	1503.2267349903
0	4913	295822.927078007178	1025.3146323708
0	4919	296172.536124584276	3262.6042560985
0	4927	296422.977183987827	4396.3081107738
0	4947	297841.535916973611	4206.1981271133
0	4952	297866.561956299364	2867.0899602758
0	4996	301725.999351862551	3569.4569138336
0	5021	302948.060511141965	5618.8761904359
0	5045	304881.764435479787	2583.8310644439
0	5067	305798.201439252389	6351.6755137198
0	5072	305889.100812800376	4574.6520083551
0	5174	309012.605502744307	4860.1471001812
0	5184	309028.942404007023	3084.2607012077
0	5189	309403.088755858192	10086.707952169
0	5200	309747.689706467697	3742.9930519097
0	5219	310126.166908260797	3159.3126122074
0	5229	310494.843091888987	6032.3771288585
0	5245	310666.681823088753	2964.0188295695
0	5263	311306.707633493458	1675.0355616819
0	5282	311854.847061291997	5429.3306896911
0	5287	312002.667917596059	2552.0103669028
0	5296	312337.510996913107	7981.1690352899
0	5309	312590.18772750014	2749.2083422882
0	5317	312827.379594478364	4678.4393307741
0	5326	313368.01135534603	4489.0736501138
0	5337	313849.755833581494	7389.2821455005
0	5356	314261.366852598072	7534.6386374323
0	5368	315787.397691768402	5286.1770847631
0	5413	317126.970033680177	5064.5929278215
0	5454	318128.173277169594	3687.3810843353
0	5459	318718.545036435059	5301.3987469048
0	5481	320635.086172123734	6536.9379643195
0	5505	322282.828776498047	16343.333074344
0	5538	323369.341059438639	20965.534493907
0	5546	323883.349840141321	12922.959810187
0	5569	324810.01038918999	7907.9890950947
0	5608	326648.401871371483	9266.5372127487
0	5626	327614.931558184774	13029.725002437
0	5652	329039.151928611957	13050.41732217
0	5667	329288.726638587784	13489.277945963
0	5672	329331.992542960218	12359.8452955
0	5680	329611.076247816893	8058.1757727193
0	5685	329660.801332955034	11870.383289354
0	5697	330478.718330562815	10158.260650816
0	5710	330876.354858404867	8912.6966982314
0	5722	331130.288915112667	6189.4633834437
0	5727	331192.731786672427	6341.5173998165
0	5732	331419.616943814506	7166.7012704111
0	5737	331695.691220675334	8021.2155873894
0	5745	331949.36809958892	6982.875330545
0	5759	332652.9191145897	4871.5481898337
0	5775	332937.833434396733	10243.77255195
0	5789	333871.882229261203	5104.3725465035
0	5794	333974.871765019337	6445.8828211068
0	5800	334024.079917479208	5177.3094529533
0	5805	334146.742024536261	4242.162318972
0	5817	335591.660148401503	3783.9312385855
0	5822	335671.651704217257	3329.7830046566
0	5852	338249.673007609014	5339.8452418315
0	5866	339036.404880632961	1459.3499056554
0	5891	340842.960686585862	4027.8265038452
0	5918	343359.25187522325	3314.4981745987
0	5927	344088.003837859097	3209.721238354
0	5935	344577.794669436387	6383.6413178537
0	5972	346067.132012112889	5008.7612615963
0	5989	347378.537341536084	2565.1733955743
0	6011	348154.90533704876	3105.7583676989
0	6019	348637.541714086509	2644.572083996
0	6048	349554.789180231998	10244.256264817
0	6108	353284.615431653519	7785.2732509631
0	6113	353463.835240168211	6483.6596998307
0	6121	353564.452018247132	4816.3498645319
0	6126	353624.559644325286	3687.0620236543
0	6141	354334.966110475476	4196.7610809373
0	6167	354691.707620953765	5173.1899751439
0	6246	357931.625796773025	10060.479830089
0	6290	358915.883526848895	8882.5633624781
0	6299	359098.822213363936	9605.7389231376
0	6310	359391.406227494276	8783.9754205439
0	6324	360092.578057862816	5890.2327886889
0	6329	360182.202907518283	6242.0091647921
0	6340	360486.111640407275	5971.5250914753
0	6366	360858.582503938916	4280.0626872398
0	6384	361785.779840683299	6366.8215122148
0	6414	362949.100667431042	8241.6180604526
0	6426	363506.017437285433	7669.174267431
0	6451	364019.595822802448	8865.2672246375
0	6456	364025.409242243986	3741.6339916438
0	6461	364036.046440979565	9849.1954745986
0	6466	364050.15297217019	6115.657904363
0	6474	364382.075321384796	6514.5130035527
0	6482	364544.521167980234	5430.9785494262
0	6494	365021.41493112341	4418.8050536192
0	6502	365506.973021449573	7150.5308705253
0	6535	366520.293718273681	10753.620777994
0	6543	366617.162394662977	3150.9406366532
0	6556	366945.739650339144	6662.9609429428
0	6602	368435.426005220904	10111.596951302
0	6629	369440.964415699465	8216.6473199321
0	6634	369486.582946355168	7327.4556127215
0	6639	369530.865946978759	4237.3413712313
0	6644	369546.249187734403	8583.9640965745
0	6652	369774.982670210578	2882.0997189571
0	6657	369892.906696589517	3672.8088835009
0	6663	370057.715794466185	3443.4453851561
0	6671	370206.047796848934	3005.0930096087
0	6682	370678.814019110848	2257.1138227421
0	6692	370765.116931048675	7288.2183676228
0	6698	371031.246266817658	5416.653248882
0	6722	371859.691919927092	2649.6176273144
0	6773	373966.597686045093	3496.2225688907
0	6779	374080.866346061577	6668.257810504
0	6784	374145.904328432279	3090.1287189908
0	6789	374263.354190560596	3193.0672006648
0	6817	375923.929726379661	1109.8520206827
0	6836	377299.567465283639	8956.0417411608
0	6866	378546.874006671994	6624.2140886563
0	6874	378919.784419254707	6110.7542953561
0	6879	378940.964376123008	6698.2553629622
0	6885	379240.323269029526	4016.420047008
0	6890	379313.393761373134	2246.838689343
0	6914	381396.900751488526	5439.0107101906
0	6927	381530.190839443527	9545.4355887115
0	6954	384291.404039211916	3264.3490189265
0	6969	385280.595418122672	5326.8127671196
0	7017	388050.549291799995	6598.6896622484
0	7031	388528.023773745642	3451.4567610714
0	7047	389324.842790986989	6957.6242922877
0	7052	389417.438714237568	3929.9995403915
0	7060	389602.325455428188	12217.642765283
0	7083	390964.125079417112	3936.5867327781
0	7097	391626.306000636009	3197.76225098
0	7106	392238.552681182156	7760.5549798653
0	7114	392445.806895678545	2087.4353926447
0	7128	393690.447443982295	5579.7588199485
0	7156	394855.344576863451	4030.5490068993
0	7161	394920.197601740764	10314.64667729
0	7188	397481.536625971643	5077.5530203372
0	7205	398603.471811603804	1673.2101506086
0	7213	398642.058796424013	4492.4570728174
0	7263	402354.009775821771	8446.1781410386
0	7268	402355.327182210218	7279.9299441159
0	7283	403282.738834135388	3428.0435037057
0	7293	403498.079985187347	3389.0482094938
0	7299	404149.594932519128	6151.6908160024
0	7333	405963.425671420685	3592.887412215
0	7355	406629.657392571812	5177.7233223119
0	7367	407048.481026645483	7139.6273876993
0	7380	407692.684755275692	3230.3706549234
0	7389	408173.023830218684	3193.4742168401
0	7408	408615.44379641107	3507.7851307311
0	7436	410267.603093126184	6084.1339742345
0	7449	410422.574769930736	1943.7723812704
0	7462	412720.975552309944	4777.0752249161
0	7467	412852.689506406735	3564.3496173674
0	7487	413996.330925360149	5426.2040912603
0	7493	414326.231440868778	4279.5686482085
0	7501	414692.339550351411	7704.1044404048
0	7535	416037.028473000878	751.42238133863
0	7547	417637.579606729543	1952.6128865783
0	7561	418966.526624653432	3281.4177419275
0	7597	421960.266825063515	8969.2872510822
0	7611	422495.54642389259	2955.1914737594
0	7616	422557.205004976869	4970.2392207069
0	7621	422568.129664108975	1763.8230308978
0	7650	424772.335332637292	3120.6965683554
0	7673	426314.875819767443	2464.3527296784
0	7688	427600.666764904225	3327.9752855542
0	7699	428012.956512500151	4371.119394881
0	7707	428022.886800968517	2892.5641391566
0	7757	430566.460645818102	1615.6545340942
0	7765	430882.358692959365	1667.965571649
0	7791	432343.567758147223	2478.7230448976
0	7800	433987.772556125992	6616.202489031
0	7809	434979.251531747645	6555.8639179038
0	7835	436583.616978587159	7870.2245183038
0	7867	438406.927744331966	6597.0487328572
0	7872	438589.041437761175	2823.7670682041
0	7883	438812.785099207797	6707.3784514063
0	7902	439539.340323497165	2395.9755818394
0	7910	439731.270171974626	3559.4165825645
0	7946	440980.896107847628	333.80371134445
0	7951	440995.955892512045	786.16391226699
0	7960	441684.961294013783	3038.9714072777
0	7971	442008.23096110894	3301.2575596672
0	8002	443948.664163999999	6422.5288056739
0	8020	445362.379446098342	3138.9397746338
0	8037	446549.826208918873	4450.3266784019
0	8045	446883.077073084809	6141.3056704216
0	8054	447214.896200702453	5260.3280667515
0	8062	447356.025482323195	3237.3947484143
0	8097	450351.992117746148	4610.0846281533
0	8114	451494.677834448509	3377.3544233125
0	8131	452683.355836557469	2052.0599806264
0	8178	456016.491441383864	7418.9492836617
0	8183	456164.99586660509	3194.8562454063
0	8191	456434.926266272635	6617.2570408726
0	8206	457883.76420061805	3223.258428271
0	8212	458016.763508722429	5807.9777647332
0	8217	458160.534302172339	3374.841616268
0	8278	463347.64423961324	1898.9316471594
0	8295	465000.618287353413	3790.9674731303
0	8319	466085.257148105015	11117.252215245
0	8360	467717.605370840634	5708.6208342034
0	8365	467721.364839628577	5616.8134014439
0	8380	468050.338633985461	8749.8635631484
0	8414	470132.36758338097	3472.5740976504
0	8419	470295.238388261471	5890.9513434347
0	8424	470324.688786406408	2560.3026936748
0	8429	470600.679430063046	8817.4857481158
0	8452	471679.124488781722	6278.9761721263
0	8461	472307.847657176799	4148.4000724807
0	8466	472490.483406947845	5573.1397589005
0	8474	472756.547995143087	5559.7941886078
0	8504	473942.500977503085	5203.3748988353
0	8529	474979.619306162925	2333.7069543437
0	8553	476148.614096708653	3319.0642668378
0	8563	476597.136781920175	2468.6591792901
0	8592	478205.688134064156	6884.9422075563
0	8603	478428.856811717869	1495.2645097005
0	8622	478992.676574483641	3059.2661766692
0	8640	480311.790142346299	14237.413068597
0	8648	480455.848104816191	7228.0198244523
0	8658	480687.429748556779	6115.981864856
0	8670	481886.716048628029	3476.8360679099
0	8684	482324.571038425665	6816.7035547756
0	8698	483023.044858743174	2625.9883348463
0	8715	484107.080831292282	2415.0224212524
0	8727	485961.824137747071	3905.1937593503
0	8761	487438.69637059668	4217.4419872093
0	8767	488796.483352626301	2831.542590294
0	8793	490836.029605156847	13485.491319314
0	8805	491474.311244267298	5716.1731717333
0	8822	492100.052088117681	2521.1431676983
0	8831	493220.641289881402	6911.2823992853
0	8839	493352.276584032531	3872.6732336744
0	8853	494184.370076729349	15321.817367085
0	8911	496191.489703850701	1910.4981248825
0	8928	497073.793632894453	2222.3729868353
0	8945	497693.84246955659	4375.6631331947
0	8955	497906.445450585134	2374.1219749786
0	8964	498125.475697461724	2794.8151790734
0	8977	498442.460411139388	3546.1505943745
0	8989	499597.078265369659	2178.179162367
0	8994	499878.695991386932	5384.6567186781
0	9059	502989.068767865936	4909.0068913631
0	9070	503208.394232552582	2270.1211964235
0	9088	504043.187871028179	2823.6441665805
0	9118	505258.489698426353	8589.0088929961
0	9123	505350.798313619591	13905.481832221
0	9128	505386.973774723279	2949.6778317467
0	9151	506845.03247564394	3059.9297162567
0	9165	507820.080999889427	7800.4191418121
0	9186	508594.344194346699	5162.7270688767
0	9225	510741.230228476095	9163.9160192856
0	9237	511042.336195976597	5249.8269631561
0	9247	511403.392402633617	8420.4016347331
0	9252	511410.227362916516	8027.4724307995
0	9263	511942.494876929049	5601.7816665716
0	9274	512145.888211368524	3128.9650647825
0	9282	512562.869503533823	11880.28430817
0	9291	513244.200212466782	4778.1623576845
0	9296	513390.145850583973	2627.6815851086
0	9304	513850.945092801277	5432.3857374
0	9338	515927.319582439026	1827.3894861142
0	9347	516163.695490342553	1089.8641279237
0	9355	516389.579114826142	7202.975755481
0	9371	518673.15699055937	7065.6535979858
0	9389	518936.763235381152	365.76327288935
0	9416	521790.820185666008	1366.9574993513
0	9457	524481.430558318581	1585.0918463628
0	9479	525291.766347770713	2262.0316255848
0	9487	525632.167630986821	10458.624750082
0	9492	525691.012573385009	7100.2673759967
0	9500	525916.448785266436	5038.0777397519
0	9509	526041.886440333595	2709.8499817722
0	9517	526816.084164059969	3170.649866488
0	9546	528335.597955879792	3274.7968138041
0	9564	530379.51710926581	3020.0193937307
0	9569	530400.454957338094	2565.7642848436
0	9616	534013.887333033665	5768.7099347617
0	9639	536749.04588409153	6140.1555268394
0	9648	537258.44793883042	4401.4385453751
0	9656	537948.120548510058	4970.3308562851
0	9673	538390.607845688171	3472.3368895219
0	9688	539797.343867408245	5870.3273218226
0	9754	543475.087671187427	3701.1586818638
0	9762	543523.775249922226	2540.5443611857
0	9768	544029.207131263981	4348.6530977298
0	9773	544349.01482334741	11742.683230329
0	9778	544590.56041436754	4442.8808392899
0	9786	544952.496726036497	4631.1633621497
0	9823	546363.643314897062	1474.8746578336
0	9844	546999.701774817629	8902.209583106
0	9853	547121.657294041811	5353.8939302535
0	9858	547341.179156610987	1692.6980243525
0	9875	548262.89867596737	2020.2968377897
0	9883	548403.300835875616	3352.8854635055
0	9910	551902.992498871411	3828.8751014801
0	9922	552058.119142203626	2395.1898438084
0	9930	552363.818266032111	5970.7206488577
0	9969	554449.460797508541	2260.4216163937
0	9980	554866.107791838069	1180.3219506679
0	10004	557341.233773148438	3384.449794706
0	10012	557502.002595695662	3337.0393977836
0	10050	560279.554985328031	5588.2896703302
0	10090	561541.885318378719	5843.8257601454
0	10109	562411.805090299533	3887.1544937143
0	10114	562422.864315937045	11802.579878171
0	10119	562444.769821963663	3562.6146150289
0	10127	562883.82320026034	2673.198083337
0	10138	563167.939753229046	3344.4383344421
0	10154	563972.214801627692	2530.691676013
0	10172	565234.762900245125	2429.7885748908
0	10197	566480.759846322776	3014.164032203
0	10244	569452.872293053175	4126.288686087
0	10249	569576.060676794887	2511.9084670627
0	10257	569938.417403732707	9610.8578927509
0	10285	570965.401661300887	3886.518010702
0	10294	571351.716793786077	5508.8760630081
0	10307	571729.997589612524	10810.383648499
0	10333	573086.71026130146	3429.529400839
0	10341	573506.135284871981	6280.779904973
0	10346	573660.084832008052	3681.5457984065
0	10351	573771.308601073139	9597.3320647579
0	10356	573825.322914724157	2478.3376406738
0	10382	575506.456269386044	3825.3195393771
0	10409	578378.734659938462	3693.2790338756
0	10426	579461.428343126624	4902.1651913691
0	10435	580367.762805351102	8373.4948910481
0	10456	582151.762403319633	3685.3973743438
0	10461	582207.91401391026	4650.4766924454
0	10469	582442.816517091521	6418.0097612496
0	10511	584589.333293061595	1273.9516850143
0	10536	585430.178628278983	419.05031496155
0	10545	586102.094903329657	5267.1161240113
0	10553	586287.247086933935	2701.6230200067
0	10587	587957.352853674252	4921.3237516035
0	10622	588783.075756714396	1264.0701011837
0	10628	589013.748777226009	2618.5649725567
0	10637	590221.776155022286	3828.3052430245
0	10664	590610.800889462348	5456.3654707119
0	10669	590858.030627280679	7414.9478077676
0	10692	591937.77691599446	4354.9929700521
0	10697	591955.898296428997	1716.4730691804
0	10709	592615.153868876435	4414.3995066987
0	10734	593748.650686440727	3392.8131670989
0	10743	594211.920782690847	3083.3514293843
0	10748	594454.59395328109	6624.7395917511
0	10753	594577.973541220219	2094.4902618985
0	10788	597892.945609200724	2169.2731694111
0	10797	598630.925446047542	2173.7434082196
0	10831	601007.824929720656	1710.8456612108
0	10840	601466.895617658133	1972.655574544
0	10848	601747.178618878312	4846.6217017313
0	10857	602335.686880265017	9561.7630398312
0	10874	603945.308277648924	4035.5489452733
0	10901	606367.409698785824	3614.7224946954
0	10922	608391.283981393976	2834.2922186501
0	10936	609862.718172792995	2854.6592761197
0	10968	611839.810951453294	6898.4633659388
0	10979	612145.187428352923	2252.4776258453
0	11015	613561.087354788704	5289.0263108993
0	11029	614244.96102997182	2460.6241389149
0	11044	615347.051144812138	2875.780088066
0	11073	615896.225966371278	3407.7568670433
0	11079	616031.655153558273	5128.756347141
0	11093	616213.192071546167	2832.9211137608
0	11104	617332.820962319776	4561.9355951792
0	11122	619062.498134509092	3699.8499287174
0	11130	619372.132276620433	3866.083179329
0	11146	619970.497152132591	3826.5749367407
0	11156	621196.952704883025	3645.3089042075
0	11166	623845.592058180514	8560.4203007064
0	11210	628011.35610191683	2772.8924127272
0	11220	629179.043374569832	9509.8398941933
0	11252	631558.258827060498	7132.0863549604
0	11297	633022.496055844012	7115.1306511814
0	11302	633026.306898758863	3181.057833955
0	11307	633068.803189386365	1756.5060993222
0	11312	633147.481481020085	8040.0114252472
0	11321	634025.44171470188	4182.1948074885
0	11339	636777.907055873277	4975.2107851559
0	11351	637554.24671212357	5900.5818653632
0	11429	642902.35093914846	11548.682784311
0	11440	643147.058157447994	5699.0495876995
0	11445	643242.219736922249	8158.8723657351
0	11459	643959.514087122739	3793.1056386188
0	11478	644432.588018421387	3507.5139443728
0	11487	645928.617384720718	8141.7858713777
0	11509	646856.36271559863	3544.8875585427
0	11521	647647.876354817673	7267.6995093709
0	11535	648043.655359166862	5341.2054069637
0	11547	649317.086212968871	4184.6851125229
0	11552	649337.560711610017	3041.0585204217
0	11572	652469.94509604385	11711.383260998
0	11582	652941.797980668324	12049.936041704
0	11588	653242.245214326872	9565.1476923406
0	11618	656420.095902679069	4820.7125086254
0	11623	656567.306868382451	9360.4986553202
0	11631	656903.284965763364	2971.6842498204
0	11658	659642.25068659116	5351.636033546
0	11679	664432.426918189229	5944.1536598147
0	11707	668162.3328711561	10695.655748614
0	11723	668666.561945032142	1597.2872726109
0	11745	670075.175272457914	8151.0155555456
0	11782	671523.022525675869	4249.6154106355
0	11797	672863.766426260477	4675.2450792225
0	11802	672911.808852050392	2477.5888125792
0	11808	673100.979262365558	4094.5703569517
0	11840	675325.581018094425	5321.2069757824
0	11857	676803.813113822863	5768.8904376003
0	11867	676870.048885768838	7304.6266438739
0	11888	678859.259155757057	5274.4637664328
0	11897	679195.410561640363	2526.5789369843
0	11902	679953.026153508955	5836.5322074378
0	11928	683431.057580784809	8575.311469999
0	11945	684356.205978779676	6875.6300109963
0	11964	685343.954150474376	4459.2034664409
0	11981	686599.641313881088	2543.9594404667
0	12013	688622.398703469127	6103.3421326947
0	12018	688636.215517103031	3220.3719131873
0	12023	688848.469704326157	1873.4870142789
0	12074	691312.696790742381	3743.9103489752
0	12089	692606.202422757656	8310.9157244724
0	12100	693067.804534844521	2856.3708069823
0	12114	693947.097626016259	3921.4728883454
0	12133	694319.995935251518	5344.5693546535
0	12167	696159.145486982203	5762.2772625594
0	12187	697081.724431015332	3139.7922503263
0	12198	697697.342678395737	5421.3472066256
0	12203	697779.422786496801	1814.1188514432
0	12208	697810.03750163941	3865.9328242124
0	12220	698128.676762891417	9184.7201690659
0	12225	698547.206137683413	3944.9001342322
0	12234	699339.445302039574	4980.5395224346
0	12253	702899.889430324151	6440.6902274071
0	12302	708845.703550722465	3504.7883126949
0	12324	709191.397480457889	3338.5589022624
0	12335	709529.38052169602	1021.0291725863
0	12349	710330.584235939945	2240.9956249765
0	12357	710587.573513600555	1692.6700105853
0	12382	711819.501504033284	1052.5406779125
0	12397	712951.072384416573	12792.811342823
0	12416	713706.851412422958	7584.9764185762
0	12450	715892.812175127267	1320.944938211
0	12459	716451.926265826836	7107.2566530554
0	12468	717554.374447042683	4742.8039362211
0	12477	718972.682916212061	8108.6887600442
0	12512	721760.712448751654	8717.2040564106
0	12521	722937.693912552094	7749.8173993952
0	12530	723398.46950898442	8418.0888614361
0	12539	724326.811048140839	5036.8444014808
0	12577	727893.991582547875	3096.6104162276
0	12594	728707.909840759226	8306.3876654299
0	12620	730034.978935151349	2245.9551433002
0	12628	730087.575099475384	1511.4223198912
0	12636	730269.709823823544	2669.4705853742
0	12641	730275.872806867722	10449.22737199
0	12675	732360.952340923319	871.91927999962
0	12692	733681.516819410489	6632.2651970576
0	12718	735163.831552080137	2502.501010211
0	12729	735717.706972828455	6777.5238829007
0	12743	736275.662593171082	2445.9931737425
0	12753	738295.862381326599	4431.3680084702
0	12762	739176.727262197641	8505.6436754546
0	12771	740726.014693125935	9186.7673203071
0	12816	742529.456841107447	1698.5621543203
0	12838	743550.428037881321	1911.7600959381
0	12854	744010.282924851613	2232.9151239218
0	12894	745144.463685359685	2045.6734909179
0	12905	745379.258509349453	9715.0964889999
0	12930	746665.814227976702	2936.2433607578
0	12935	746779.070116728774	4342.9217780362
0	12941	747256.125634969171	3048.9733979506
0	12949	747372.59894393731	3076.062574929
0	12985	748626.922152189466	7867.2427866005
0	12991	749096.474306950176	4399.8268481421
0	12996	749150.365331887715	3715.8556577867
0	13005	750653.544178957421	3139.9808701802
0	13031	751724.387042270107	3941.6745807649
0	13050	752505.051848115999	7190.8272842822
0	13058	752832.82718085505	5467.7835685299
0	13087	754483.601117931705	3436.5710075716
0	13109	755278.961652401542	3320.2906860556
0	13120	755801.955761799472	4439.466590529
0	13125	755976.645076360235	2783.7505089863
0	13131	756091.516177803346	3356.0317572092
0	13163	758044.272091194782	3679.3928675315
0	13190	759222.075995911619	2889.4077850188
0	13204	759921.989057090989	1990.2229960471
0	13298	764670.090587796156	7014.158841825
0	13306	764893.128784174225	5037.022518258
0	13315	765136.646647211212	8122.803068229
0	13325	765601.535491991176	5805.1746446152
0	13333	765827.049074140654	7635.6685551359
0	13339	766053.373304338727	5858.0677684028
0	13344	766373.235346585732	4233.4011029446
0	13359	767202.843099992263	7049.9681593308
0	13364	767355.056502097396	4190.5192816221
0	13370	768218.26709022872	4888.27798683
0	13375	768245.427684074914	7790.777121798
0	13398	769972.113845682774	9822.674503841
0	13404	770045.053110378121	5136.6674997915
0	13409	770047.573520243604	15257.294440247
0	13446	775746.997410134771	5625.5429486254
0	13460	778474.328692889522	5226.5453918264
0	13491	780394.886183853632	6341.1607090789
0	13510	780782.023951986025	11896.998478203
0	13515	780791.509816949601	2559.0031121277
0	13549	782804.746191001005	2347.3033137744
0	13557	783001.299238602494	4308.4174719153
0	13574	783770.50561871568	2233.1464963613
0	13584	785177.721554680771	4032.7830876813
0	13593	786512.255188571016	7894.0035083149
0	13617	788539.927445804347	7213.0489747921
0	13635	788993.977359623279	1733.2899583995
0	13664	790309.120942611126	2485.9447821816
0	13669	790321.021666280377	2371.6626447503
0	13690	791787.937193319617	8595.5470974184
0	13730	792634.50202172227	3278.6380444806
0	13735	792743.823216805568	3370.8239943774
0	13755	793847.192313101726	2496.9542741977
0	13765	795663.941250908142	3645.8907383662
0	13804	799436.380397236118	6579.5945002047
0	13812	799547.308074658807	7279.7567981205
0	13822	799777.618679435803	8136.8230653676
0	13834	800599.218228397512	3231.1414884202
0	13859	801997.60701109879	7353.1961986584
0	13884	802991.365561354146	2692.1378452419
0	13896	803535.768247311761	12234.468705273
0	13907	804232.417968797425	5517.219862232
0	13932	805875.634809660492	3455.2837873643
0	13941	806755.79921106072	3562.8924841283
0	13950	807374.958358007129	5524.0160041253
0	13958	807881.958303755851	2942.660172894
0	13993	810052.894894903392	8993.5720559044
0	14021	810673.658509672459	11187.980868253
0	14108	816390.490839878634	7780.9691105827
0	14113	816594.211758504621	11428.2333711
0	14118	816597.71600878674	6357.7418187201
0	14136	817572.016906486089	7206.4221057041
0	14164	819037.65282400815	9667.7839333622
0	14169	819574.05498867201	10552.221237139
0	14177	819685.141591492654	8862.7852203198
0	14185	819907.634535628554	7808.7458439605
0	14191	820102.415945495363	5184.0226922428
0	14199	820518.615001388126	6303.7629734319
0	14209	820710.530853888813	9945.7857920739
0	14214	820831.436124889509	5406.8605273026
0	14219	820880.613855379787	10270.143510172
0	14250	823997.078312113734	6386.6190585612
0	14277	824515.548569348224	7170.9580044562
0	14287	824845.160887907151	1833.213018537
0	14309	826470.652871493373	6047.9965026557
0	14328	827488.550238475668	10397.450848364
0	14333	827579.886875064974	3788.7892866263
0	14338	827760.941479163869	3863.3761988405
0	14369	828690.766283670768	4245.4742173549
0	14380	829103.773395172802	5263.0941928622
0	14412	831445.17386752003	3256.4892486901
0	14424	832380.456842947694	6643.4894162456
0	14434	832871.333825187803	4755.7024069538
0	14440	833182.069884938687	7501.72880571
0	14457	834262.800942093775	2391.476025581
0	14499	836365.855303075828	2875.7355541774
0	14510	836687.728094126922	2071.3098765923
0	14515	836854.335856457703	6420.3544728399
0	14527	837395.65733016957	8756.3832713893
0	14532	837547.541846206561	2516.9651936094
0	14565	838629.198831690925	8779.8815155812
0	14594	840040.816248587245	2260.423283345
0	14599	840168.127540943281	4715.3766280156
0	14614	841895.60771821428	3252.670956695
0	14633	842457.261843458814	4148.7191725982
0	14643	844527.778088368747	5811.9351502981
0	14652	845282.931157461351	3902.9169767352
0	14660	845831.946007604996	7906.1204864182
0	14688	849564.534690185661	2083.9109016715
0	14728	851828.777499558757	10394.631828154
0	14742	852085.026750224561	17596.750316821
0	14770	853110.982172410822	2428.2873356113
0	14775	853150.531795196555	2378.9639170885
0	14783	853605.021217442137	5185.7200468538
0	14800	854257.380699772801	2070.8931470342
0	14805	854258.07416687883	3036.5349924127
0	14825	855706.637867668866	4074.0112213025
0	14857	858232.292836044584	4928.8929439469
0	14869	859343.132946303222	3895.180709047
0	14874	859530.311833316587	4875.1958571478
0	14900	861736.495629385702	9702.2188603493
0	14909	862313.59091950287	2735.042328225
0	14934	863913.018295146055	6424.8667736457
0	14955	865976.742985306384	5738.59091558
0	14960	866008.368247754101	8172.036685527
0	15011	868196.133950475693	797.93358885819
0	15023	869032.585593038597	4563.5592798415
0	15034	869427.537685105666	2407.3266836149
0	15039	869479.803876517957	6118.4852638441
0	15044	869558.971024782729	3357.0393270601
0	15054	871057.761922134542	4867.1114735782
0	15106	872933.0469587469	5332.4037899502
0	15129	874010.272468828662	1807.6066883243
0	15143	874923.703580080008	3748.377685241
0	15158	876109.955856449363	4635.0765705947
0	15171	876337.831841656381	4837.1864252902
0	15179	876825.541050811947	4216.8896095717
0	15188	877561.483440558474	4661.4863463665
0	15196	877701.59634572318	2992.9467762442
0	15228	879752.747685357905	1632.23163556
0	15233	879957.134465039347	6373.7563585975
0	15239	880222.995319549223	16961.958609207
0	15257	881851.457915561389	6084.3659564366
0	15292	882368.989192327279	3960.5542935411
0	15297	882438.543852451223	1270.6110732829
0	15315	884025.757808260381	2365.8872021913
0	15323	884269.942040281092	3326.8829267336
0	15331	884979.772272698623	2966.1575430262
0	15366	887263.476842433168	2071.5646552488
0	15400	889422.061998818439	2910.9984268017
0	15457	891655.133315855798	6289.8429158708
0	15490	892927.940391738473	4913.5381253254
0	15501	893121.856733490186	10374.610085846
0	15506	893125.452056150858	3427.2862812487
0	15511	893209.854779505939	3242.7910193394
0	15516	893445.82846413404	1925.9591668964
0	15550	894468.218096396158	2065.2581044194
0	15555	894476.361616783168	2479.7251370893
0	15563	894615.354789564353	4547.9073307212
0	15575	895324.10974698208	7863.6863578651
0	15580	895511.23556938101	2783.5131798403
0	15585	895579.897240900351	5786.4987899033
0	15590	895781.4699944813	7308.8309322866
0	15606	897569.601249284435	4070.120098989
0	15657	900102.115784177664	6161.7203862648
0	15662	900118.140090920352	2988.1845167835
0	15673	900838.317972476678	2771.6907939423
0	15684	901238.02629036596	3626.578117988
0	15757	904932.269414204603	6777.0468826939
0	15762	904986.838000185232	8634.2569820653
0	15771	905307.441847103822	4046.1659325558
0	15788	905881.20031241493	3574.1647342422
0	15807	906394.030795351009	3357.8031245877
0	15812	906433.630205691131	5145.2075503435
0	15826	906977.56302835774	3666.6349072474
0	15837	907363.59267513726	1550.515866727
0	15845	907774.424502479825	4744.1956025732
0	15851	908040.131191690773	6212.0608750824
0	15862	908733.472893927173	8021.2036798493
0	15871	909604.358777920209	3763.2481633417
0	15895	912262.911850239827	3167.3009040698
0	15911	912966.488398968918	6307.7302758638
0	15928	913909.905749452034	2198.516668684
0	15938	915106.597938839853	2822.913435931
0	15968	918803.36209654702	1942.9371522218
0	16008	921164.189716158879	7986.659016497
0	16019	921830.399398496689	3410.1939843313
0	16028	922709.654538071996	3371.1935025822
0	16042	923581.037305319735	3805.4258108737
0	16051	924743.887762823923	4627.4728446151
0	16076	925910.998989665401	989.05785797143
0	16094	927101.703544527239	5004.0997739977
0	16119	928034.25791969416	2996.41408926
0	16131	929699.312896985675	2474.3255111813
0	16136	929755.74367942236	11934.023397246
0	16162	931488.594155859207	5373.0676752055
0	16170	931907.580785821027	1861.2300441217
0	16180	933082.287980589964	5794.1188297025
0	16241	935883.074413181051	1168.3584925332
0	16253	936458.277982278343	2797.8409133349
0	16258	936463.468757403495	3000.6555411984
0	16263	936757.007866238423	2064.4263248504
0	16272	937478.063541681673	6116.9871852247
0	16284	938268.335378249386	4368.951284671
0	16306	939413.503556549974	4399.3723553508
0	16374	942554.708392668094	2919.3893532464
0	16379	942606.396332822626	4215.7508552561
0	16384	942992.519620311265	3333.1256691966
0	16393	943805.824687735475	4166.9317604824
0	16402	944171.805699372426	4360.9568922058
0	16432	945920.35737254523	5023.2648880772
0	16441	946242.971021969402	1858.0772642119
0	16465	948030.079536337318	4196.7836824663
1	1230	72078.500667293921	1117.6519753357
1	1235	72314.529694326587	434.61384955687
1	1240	72341.987023187428	320.60107009008
1	1271	74239.339972102706	542.59442097181
1	1283	75060.913205171924	697.98069491883
1	1318	76287.363245602054	197.37267938262
1	1330	77014.235152487448	125.82049021499
1	1338	77239.519344495161	293.34675807788
1	1356	78270.190957144968	241.17770315711
1	1361	78668.326677805626	609.65661346373
1	1408	80850.305050974734	195.79004194954
1	1420	81209.635547893335	182.5764872487
1	1481	85688.864251198309	0
1	1491	87407.836240767353	0
1	1499	87916.31094127157	58.874081063724
1	1516	88823.314771922147	0
1	1524	88909.471529186869	61.260408918268
1	1533	89592.498710414315	0
1	1545	90387.910284602142	152.67735579483
1	1550	90629.170582619633	336.73501923653
1	1561	90706.160659178541	14.498303372538
1	1617	93726.285311534525	232.49982053111
1	1625	93861.953964903739	0
1	1642	94613.598121276419	0
1	1652	96267.567255540079	0
1	1660	96579.709230341148	168.98795856362
1	1672	97300.606734515773	388.77325763732
1	1731	100503.960085155354	563.38115413727
1	1755	103694.18397033343	0
1	1764	104364.976371009218	0
1	1773	105074.841153027357	0
1	1791	107679.745624052099	0
1	1800	108304.588948164035	0
1	1818	110821.278209061717	0
1	1844	112154.194984760375	109.39161279963
1	1869	113937.040907058346	420.97102482115
1	1897	117584.176600115258	0
1	1905	117915.628369157272	0
1	1924	120990.944838264447	567.69018690594
1	1951	123187.644793398073	413.21114019898
1	1971	127025.875168871935	0
1	1986	128151.154524427197	1094.7623379897
1	1997	128382.030223035395	1315.8281596734
1	2002	128555.427731535646	1081.3307091591
1	2010	128728.219651918705	485.50394516692
1	2015	128865.234269019703	506.28086475107
1	2030	129648.372287937024	250.47036765772
1	2078	130716.850334490269	24.184084911646
1	2090	131092.83144712706	199.61636364658
1	2098	131417.162385206331	412.2624069089
1	2117	133404.691318546837	2284.9276016898
1	2122	133426.033885511292	1731.5521313222
1	2136	133691.85467216172	1028.0464031827
1	2144	133980.203216551517	553.63480198979
1	2150	134043.993464282085	156.6761679968
1	2158	134407.401894019057	95.666940006182
1	2181	134940.645697759813	65.945867717382
1	2196	135619.466698154915	385.00269435347
1	2201	135645.878600604256	372.85931359104
1	2255	138551.134306614913	61.011272426986
1	2268	138849.316339451885	46.047649675303
1	2287	139489.816789988729	257.75858465395
1	2299	140177.096049069041	532.80946347408
1	2315	140491.513045498722	251.80856260105
1	2330	141181.288148116657	661.67739837747
1	2335	141193.678377851978	358.84005345549
1	2353	141592.410593946219	0
1	2370	142139.019516561054	0
1	2428	146003.256956776696	954.81889897171
1	2433	146035.015631662433	128.79724474543
1	2463	147085.289069543777	0
1	2472	148393.267494058958	0
1	2486	148747.844808411932	239.53344429428
1	2491	148962.664765017711	368.19941469702
1	2500	149577.001639937218	360.17460273901
1	2530	150783.892657615622	0
1	2555	151095.497029301292	0
1	2580	152047.875082153273	0
1	2588	152373.123612854344	0
1	2597	153350.142719871038	382.74888219089
1	2606	154015.58879295385	0
1	2631	155127.927779106188	38.737832125851
1	2640	156106.678576079628	0
1	2648	156552.580501209283	0
1	2673	157427.080878717459	0
1	2710	159588.381049376359	494.87376890618
1	2733	161824.189877791042	771.35987303904
1	2742	162748.0546879503	0
1	2751	163347.336762106648	0
1	2777	165557.421467378793	0
1	2794	166983.239226613857	0
1	2803	167221.257560900614	0
1	2812	168063.971696308531	0
1	2829	169697.7427353563	0
1	2860	170935.28310948901	388.41875115579
1	2879	172041.664732420691	1489.4556000174
1	2884	172196.355283609947	1393.6462993016
1	2889	172243.224864616584	1072.0371680274
1	2939	174705.336919856015	277.02387389957
1	2948	175301.355209833541	706.87527990337
1	2953	175359.311778413343	527.38674024668
1	2980	176042.748212192411	0
1	2996	176652.947381923592	0
1	3004	176897.809499544373	0
1	3022	178574.667194794696	0
1	3030	178612.726770148954	15.786814717794
1	3047	179164.397937306779	0
1	3068	180258.800795312925	1009.8073012761
1	3073	180393.180795486879	505.80935915523
1	3078	180523.092981507926	451.19244187764
1	3086	180636.530417408021	15.208739569466
1	3121	181721.328934581244	0
1	3129	181964.961261382086	0
1	3147	183553.370815668844	71.936086231248
1	3178	184770.401597858847	417.49782389912
1	3224	188268.182979672499	0
1	3232	188710.852123371604	0
1	3249	189747.940863415514	45.67135892988
1	3258	190578.41453777973	0
1	3272	190985.29309253404	243.29781953995
1	3278	191168.483473187318	260.28845978077
1	3305	191896.894834647008	317.57927946328
1	3320	193168.673851055534	292.610308244
1	3359	195479.630908077623	251.59145481863
1	3368	196036.52322137478	0
1	3384	196610.295883084263	87.140321968372
1	3396	197262.74564963487	504.32396004447
1	3401	197745.424947207969	617.4797700529
1	3409	197863.445323399472	43.896852032191
1	3421	198228.980235705683	193.11846721454
1	3432	198590.998910795019	269.46095274587
1	3458	200491.079879823746	520.25984799788
1	3486	202743.411355486194	0
1	3495	203078.211063433043	288.78949637521
1	3524	204717.959331777297	580.25705652743
1	3529	204732.678230681998	492.19747418375
1	3538	205204.954456606324	902.11763437171
1	3593	209073.999855261096	1632.3562296643
1	3601	209343.617909025919	1595.0563772291
1	3606	209535.383180849941	439.2657952611
1	3632	212050.019761923513	0
1	3640	212728.465056871891	27.825158175534
1	3657	213454.659598560434	92.47547067611
1	3666	214218.879178887258	0
1	3675	215138.835579638542	0
1	3683	215301.088139669463	16.075097884547
1	3728	217010.152864863247	48.994704277628
1	3768	220765.897069215796	0
1	3796	224020.385341224125	0
1	3817	229181.921704313079	0
1	3825	229590.263250154526	0
1	3845	233224.723261091777	0
1	3854	234507.33203078852	0
1	3880	236501.239712100067	5.495842576821
1	3888	236665.233146255546	0
1	3898	238675.72817328609	0
1	3916	240256.428016835451	0
1	3924	240411.963811589767	64.807941827342
1	3961	245202.609161499815	0
1	3970	246218.876516094377	0
1	3998	247207.331919385444	172.25126979975
1	4003	247648.306549205042	521.74767777233
1	4012	248041.529989785175	0
1	4056	252162.331044331296	0
1	4064	252472.231289539833	243.71399634006
1	4072	252645.012230920347	0
1	4107	255048.166986236575	0
1	4115	255459.119008730154	0
1	4136	257628.906124096609	279.11001332503
1	4144	257794.393719837991	143.3050304139
1	4152	257986.103756727305	169.74403051928
1	4189	259370.535583679087	448.3319676007
1	4194	259410.222013942927	120.53421322124
1	4202	259526.469556009944	33.585456532899
1	4232	260864.370306595619	0
1	4244	261096.226997642207	82.319644484462
1	4266	262449.113146325678	0
1	4275	263193.055995261958	0
1	4286	263921.956015274883	461.86666682717
1	4298	264398.954576755852	765.37581073187
1	4303	264653.367789083455	423.12111082026
1	4314	264776.186039952479	108.06511013148
1	4319	264994.790000449721	244.8814212185
1	4342	265697.385858684708	561.21306521039
1	4357	266384.428528564714	229.65200671176
1	4362	266799.714171931049	595.61130347431
1	4431	268686.737003590139	409.89199277942
1	4437	269602.092623534941	1315.1528686263
1	4442	269828.70418973667	1530.1439336945
1	4476	271693.66982132978	520.19419210609
1	4482	272225.833545724665	934.15871534799
1	4526	274132.650118070109	213.6942327369
1	4534	274835.292312836839	0
1	4543	275130.352180694356	0
1	4552	276399.447423958989	0
1	4573	277992.815651609068	1255.6725577066
1	4579	278030.746512200035	914.57540606189
1	4584	278331.096719219605	1187.207401609
1	4619	279555.050077349474	0
1	4640	281302.688549239565	534.01130284158
1	4652	282295.762458666146	416.25235424206
1	4670	282754.480669728967	247.30819028919
1	4678	282885.144197513608	22.00838593833
1	4698	283273.175452902501	115.60833477818
1	4711	283597.475588456989	59.718027396111
1	4728	284315.693957087647	0
1	4754	286507.363132331698	0
1	4775	288195.44127637293	750.28390953136
1	4805	289509.370335349286	191.31393065051
1	4832	292194.760304890602	168.09123167658
1	4840	292909.931868485747	0
1	4857	293212.449079316652	0
1	4873	293656.825159143124	21.487369282796
1	4890	294797.612445636382	0
1	4898	294999.471996023568	0
1	4933	297329.184320706088	0
1	4958	298156.542438028987	0
1	4967	299316.380803689027	0
1	4975	299548.299794892854	101.77386936031
1	4985	301314.448804445272	0
1	5002	302297.933371035884	0
1	5013	302557.571709702568	153.76514417126
1	5028	304152.458402563089	0
1	5047	304881.764435479787	525.42247385657
1	5052	304960.518706368521	498.05274333804
1	5077	305939.495702153848	0
1	5092	306129.216976390289	184.53527359096
1	5097	306360.907625838172	356.21097128013
1	5108	306556.863881086981	131.34750948611
1	5123	307335.04403065417	874.57034257321
1	5137	307940.303857009041	1213.5756418433
1	5146	308194.052997406108	1227.1987013527
1	5151	308570.105351289813	867.44235777054
1	5156	308571.128804710156	422.18854100589
1	5176	309012.605502744307	133.66779751209
1	5202	309747.689706467697	297.03215577442
1	5207	309814.956066077687	183.28399426616
1	5221	310126.166908260797	285.18752304881
1	5234	310501.220607005321	0
1	5265	311306.707633493458	346.3176035389
1	5298	312337.510996913107	275.13389105445
1	5339	313849.755833581494	432.60954405125
1	5348	314207.725043579199	109.57683577496
1	5370	315787.397691768402	1346.6054989341
1	5381	315837.69085820883	1252.4843024612
1	5390	316019.489996003967	220.04130337901
1	5395	316244.747804602902	256.01319816086
1	5415	317126.970033680177	224.94873958491
1	5423	317334.974225604622	362.82697814464
1	5437	317712.076762782836	330.21210416002
1	5445	317833.414323814449	42.996280213816
1	5483	320635.086172123734	314.6284923774
1	5507	322282.828776498047	729.92830140048
1	5521	322857.169220345561	893.51106017211
1	5526	322989.280930841741	295.22004839463
1	5548	323883.349840141321	208.87420685535
1	5571	324810.01038918999	557.09471578663
1	5582	324957.854883129191	106.64049627326
1	5591	325562.827877187247	622.00234551828
1	5597	326032.987624948578	1066.4948559046
1	5628	327614.931558184774	85.942614272217
1	5637	328448.262363037534	666.89143828153
1	5654	329039.151928611957	271.64224585429
1	5659	329164.358275175373	317.58781064949
1	5699	330478.718330562815	574.13862499856
1	5747	331949.36809958892	141.63918977288
1	5761	332652.9191145897	311.05041502906
1	5777	332937.833434396733	28.005668619259
1	5828	336815.134182740706	0
1	5837	337611.481778803598	34.426803826035
1	5854	338249.673007609014	55.519656026316
1	5871	339310.532915414805	0
1	5880	340044.753700624543	0
1	5896	340878.282599505062	0
1	5905	341634.457077558261	576.0863270417
1	5940	344813.3639459618	0
1	5949	345049.146969349859	0
1	5957	345499.34218069042	0
1	5974	346067.132012112889	74.162382022418
1	5991	347378.537341536084	398.36180119855
1	6002	347944.391138252226	73.245171568264
1	6024	348748.102153715202	0
1	6050	349554.789180231998	61.705890005688
1	6055	349776.948712734334	258.43106692449
1	6063	349946.615638017171	9.118017346229
1	6083	352094.183211259677	2060.8630468888
1	6088	352101.699980923743	1963.4949513856
1	6093	352672.274318051673	2064.8435111013
1	6143	354334.966110475476	394.77236774933
1	6151	354430.970088804489	244.11912242352
1	6156	354482.808081618622	280.4628124447
1	6169	354691.707620953765	177.12107202178
1	6199	355838.935773950545	1131.4531669721
1	6205	356110.596882845226	956.26828468028
1	6210	356135.762439405022	716.80411093652
1	6215	356211.684625734983	445.01168545516
1	6223	356583.586111289556	746.74294143513
1	6229	357084.726984971843	506.20716827275
1	6248	357931.625796773025	64.063478940935
1	6260	358303.245409414907	368.75034160773
1	6271	358345.630469615256	21.801415695949
1	6282	358865.771661506045	509.32951058177
1	6312	359391.406227494276	277.86360894019
1	6342	360486.111640407275	203.33293301092
1	6347	360595.926696914792	312.15144631457
1	6355	360670.303888440765	67.694010936583
1	6386	361785.779840683299	823.49474952343
1	6401	362349.447243506058	1125.1301477387
1	6406	362660.858878628911	501.73154499529
1	6428	363506.017437285433	39.795679275672
1	6433	363578.978328633133	102.07976520725
1	6504	365506.973021449573	213.44844570214
1	6515	365776.849831568692	162.25681363308
1	6524	366271.785603970631	51.687790881969
1	6545	366617.162394662977	2.891985352863
1	6558	366945.739650339144	52.856699085634
1	6573	367775.387986681388	574.43319944116
1	6579	368019.079849964151	606.47131440658
1	6604	368435.426005220904	91.900281098063
1	6609	368936.827308925484	515.12711255674
1	6618	369317.889786912142	107.81549429945
1	6684	370678.814019110848	208.43890195643
1	6703	371055.775609441483	0
1	6711	371087.322859915865	17.035870020068
1	6727	371922.659918015712	0
1	6736	372077.811936127632	93.056685395606
1	6744	372248.616046693374	5.907033532616
1	6752	372809.030123898626	0
1	6794	374814.077705696985	0
1	6803	375223.903222021526	0
1	6838	377299.567465283639	1341.6774239857
1	6846	377452.166412347288	385.61134031711
1	6854	377890.145636902135	505.46294675656
1	6895	379953.782651003104	0
1	6916	381396.900751488526	369.84573120312
1	6929	381530.190839443527	78.331209891974
1	6938	382367.218498699276	0
1	6971	385280.595418122672	802.59771680585
1	6976	385305.396273149908	699.84534869913
1	6985	386016.802163806705	940.2351511325
1	6990	386357.411993091451	869.97281924538
1	6999	387027.538346638995	0
1	7033	388528.023773745642	417.33514971182
1	7038	388552.604997825726	124.06124816971
1	7066	390358.371503033888	0
1	7085	390964.125079417112	139.32950945294
1	7116	392445.806895678545	41.823290044058
1	7133	393907.83163478316	0
1	7145	394409.610769073799	260.0090454672
1	7167	395075.397238094285	0
1	7176	396930.261660995224	0
1	7193	397997.904116516708	0
1	7219	399854.695330429673	0
1	7234	400436.096704873701	527.24306592751
1	7246	401496.925558344015	1387.8937826505
1	7251	401671.17477235806	219.24070209815
1	7285	403282.738834135388	912.20057492966
1	7304	404183.469118891698	0
1	7312	404476.640614548006	14.326514195705
1	7335	405963.425671420685	983.87605804212
1	7341	406171.486545478216	1063.8278797983
1	7369	407048.481026645483	60.245916698905
1	7391	408173.023830218684	229.12350282482
1	7410	408615.44379641107	136.64140775069
1	7415	408636.501415211433	66.374581111545
1	7424	409417.537135936536	129.19724689724
1	7438	410267.603093126184	220.94030046587
1	7472	412990.979573981266	0
1	7507	415285.606091662246	0
1	7515	415684.966720151282	0
1	7523	415708.866250286381	23.75736756048
1	7549	417637.579606729543	50.613822459552
1	7567	419540.354950133233	0
1	7579	420975.60907974794	171.30244653672
1	7599	421960.266825063515	308.62806078163
1	7627	423641.8371176192	0
1	7635	423850.523090089092	0
1	7652	424772.335332637292	499.64385328731
1	7661	425130.322661811871	0
1	7690	427600.666764904225	229.09669780928
1	7712	428423.387613843845	0
1	7720	428713.392460283404	0
1	7732	429226.360789552774	275.55467782887
1	7737	429356.51405128542	142.12092997506
1	7745	429864.844713249652	0
1	7771	431809.87901147477	0
1	7780	432105.406647801458	0
1	7815	435765.274369557054	0
1	7827	436381.747618079953	209.89402866987
1	7841	437143.364741657751	0
1	7856	438028.445342852629	502.3099845265
1	7885	438812.785099207797	166.79521247171
1	7890	438980.254006633228	273.2806051915
1	7916	440209.791980245052	0
1	7924	440647.092396503179	0
1	7932	440741.771402663159	0
1	7973	442008.23096110894	53.662827158008
1	7988	442500.83824080765	401.33871029072
1	7993	442913.951042515107	690.51137105058
1	8008	444118.630733908873	0
1	8025	445741.907489592856	0
1	8068	448117.323411136023	0
1	8076	448597.542157722186	0
1	8085	449817.669225400072	0
1	8102	450631.295855931107	0
1	8120	452208.785743989264	0
1	8136	452970.139621198787	0
1	8146	454660.505772347075	0
1	8158	455059.409982971432	273.71729706711
1	8163	455547.883627063704	579.87869420348
1	8223	459300.475070837036	0
1	8233	461209.650814223159	0
1	8241	461448.712592453826	0
1	8249	461783.193681947201	0
1	8261	462424.576784366918	415.59224772967
1	8266	462691.89708650784	587.34564832314
1	8284	464404.287044826732	0
1	8301	465400.148316655383	0
1	8321	466085.257148105015	10.880074355628
1	8329	466689.71212547732	29.91863974677
1	8344	467216.543280875741	299.19963282842
1	8349	467245.124131936217	48.370325400938
1	8382	468050.338633985461	285.95254125381
1	8390	468385.445005944583	225.99742124847
1	8398	468837.450076565053	98.32399789726
1	8435	471320.745926507854	0
1	8476	472756.547995143087	110.63564332386
1	8484	472902.781449732476	73.231619861643
1	8496	473586.511498381598	358.6832180177
1	8510	474128.47760263007	0
1	8518	474571.447883700746	0
1	8535	475507.867483650088	0
1	8555	476148.614096708653	215.20369889419
1	8568	476933.592302017333	0
1	8577	477413.721316683497	63.183030840797
1	8605	478428.856811717869	18.976830999763
1	8624	478992.676574483641	130.1238648389
1	8650	480455.848104816191	58.791580919328
1	8672	481886.716048628029	194.65763858816
1	8686	482324.571038425665	267.94066002889
1	8703	483221.254383387368	0
1	8729	485961.824137747071	203.68606521305
1	8741	486565.23934844799	600.29858611565
1	8746	486953.41564370145	644.05675310531
1	8773	489479.603350358132	0
1	8781	489581.838974933447	2.930054514072
1	8807	491474.311244267298	28.994762868936
1	8841	493352.276584032531	34.097247670652
1	8858	494280.99157896818	0
1	8869	494879.904388501847	385.86511579298
1	8878	495061.410483367077	209.98983730791
1	8883	495062.708598503414	166.39878173851
1	8891	495330.660518388346	0
1	8899	495616.794625758196	84.471150151666
1	8916	496669.48080543029	0
1	8947	497693.84246955659	274.94336655391
1	8966	498125.475697461724	45.413820958843
1	9000	500019.661858077296	0
1	9008	500914.718470408626	232.13327504436
1	9023	501977.425534253172	1039.1524981241
1	9032	502274.585150374767	1055.0414459271
1	9040	502453.759996394805	876.44578720433
1	9045	502603.538079093188	166.24213611659
1	9061	502989.068767865936	6.0779999654
1	9090	504043.187871028179	660.43293891116
1	9095	504051.632895093481	620.01576962351
1	9100	504178.862899006313	393.76013961912
1	9133	505792.509232820497	0
1	9153	506845.03247564394	504.31926528647
1	9188	508594.344194346699	175.78483894543
1	9193	508715.47455414368	249.43669936135
1	9205	509365.852478105319	348.92933151928
1	9210	509745.812124676379	559.20876533124
1	9239	511042.336195976597	279.87193050122
1	9265	511942.494876929049	334.99148435544
1	9310	514099.93009632483	0
1	9319	515073.831362418833	0
1	9327	515322.81254833898	149.26966743408
1	9373	518673.15699055937	102.15702806757
1	9378	518760.974945119377	170.2297477311
1	9396	520423.862686314737	0
1	9404	520878.371045514541	0
1	9422	522896.338711955797	0
1	9431	523297.843619422084	268.10889723619
1	9439	523332.036458561358	0
1	9459	524481.430558318581	835.99626074664
1	9471	525067.621416141529	6.82027406584
1	9523	527359.497715535138	0
1	9531	527834.690672494463	0
1	9548	528335.597955879792	90.420557607846
1	9574	530608.89035725209	0
1	9584	532606.331593018541	0
1	9592	532936.300867566236	79.291474110872
1	9601	533169.779759317054	191.9900670921
1	9618	534013.887333033665	86.870787447996
1	9626	534918.270956166275	0
1	9662	538097.492191711652	0
1	9690	539797.343867408245	116.78983387409
1	9706	541176.521951357871	1402.5929620342
1	9711	541265.413479405813	1117.7339043281
1	9716	541606.367767663099	1285.0344037763
1	9721	541655.998777741113	672.76788900455
1	9729	541792.54451868021	24.781154891872
1	9788	544952.496726036497	63.728068973011
1	9797	545292.053384698537	241.63801232841
1	9805	545699.146640210735	50.66550795221
1	9825	546363.643314897062	121.04147671935
1	9833	546801.700518538486	408.60290136403
1	9864	548074.117397391322	0
1	9889	549662.929298395194	0
1	9898	550620.284437765634	0
1	9932	552363.818266032111	174.77908491729
1	9941	553685.78584117016	0
1	9950	554095.232571439131	138.44859299668
1	9961	554186.44015580494	21.476957892906
1	9982	554866.107791838069	174.84247684021
1	9991	555698.059558233354	0
1	10018	558524.650596585229	0
1	10027	559748.181066204239	866.02585926943
1	10035	559908.864662025442	85.36324323851
1	10052	560279.554985328031	68.929868404724
1	10069	560649.194949791497	321.63543880973
1	10092	561541.885318378719	622.27137726508
1	10097	561615.515014583533	173.99188896882
1	10129	562883.82320026034	78.848874906046
1	10143	563466.595814119732	0
1	10160	564173.97653631527	0
1	10177	565326.583606966143	0
1	10185	565842.84073077797	0
1	10203	567064.152209732174	0
1	10217	567566.64420164066	487.76055104182
1	10222	567616.287560967624	390.93218106859
1	10259	569938.417403732707	281.23654327027
1	10267	570004.039268020671	25.500234419077
1	10296	571351.716793786077	4.731519735686
1	10309	571729.997589612524	48.860859603545
1	10318	572309.97011693694	315.70220263398
1	10362	574559.263151757553	0
1	10370	574685.455626062865	0
1	10388	576024.806755841872	0
1	10397	577557.437321464903	0
1	10414	578466.365028975874	0
1	10440	580834.978779318378	0
1	10475	583036.029102070749	0
1	10483	583340.758734183157	25.377126135833
1	10491	583443.082819513032	0
1	10499	583585.624066927281	0
1	10516	585011.128313317434	0
1	10525	585154.435418750404	0
1	10558	586393.470911997831	0
1	10566	586774.579696211105	379.39589154181
1	10589	587957.352853674252	438.34719814352
1	10598	588357.82360807126	775.03966212886
1	10603	588459.792171808633	629.93781027868
1	10611	588531.944485941582	331.19012376382
1	10642	590239.425227248549	0
1	10650	590355.837519341847	0
1	10675	591128.569353306537	0
1	10711	592615.153868876435	131.67058955468
1	10719	593006.121313179713	232.19747274589
1	10759	595723.672439789585	0
1	10768	596457.182037827909	0
1	10776	596900.556917147056	0
1	10803	599296.979268509812	0
1	10811	599823.794381989986	329.55433887582
1	10819	599941.400552276047	31.641219900424
1	10862	602752.687204090451	0
1	10880	604941.347585514469	0
1	10889	605556.991762743902	0
1	10906	607008.058896673315	0
1	10924	608391.283981393976	119.22293750461
1	10941	609892.709802507669	0
1	10950	610902.898806417253	0
1	10970	611839.810951453294	55.474060396348
1	10984	612471.271056746175	0
1	10992	612499.532317132826	11.063217804862
1	11000	612990.432070735935	219.54670359535
1	11017	613561.087354788704	180.81639700333
1	11046	615347.051144812138	61.87938733807
1	11060	615555.459384731289	192.81117893964
1	11065	615809.546086290502	303.49698899903
1	11095	616213.192071546167	69.269856154311
1	11109	617551.643800675507	0
1	11135	619669.203480376582	0
1	11172	624426.172472100086	0
1	11181	625151.156818787685	43.686763014832
1	11189	625238.463689189617	0
1	11197	625907.365404662659	0
1	11225	629843.246907213408	0
1	11234	630219.836279202476	374.58721439861
1	11254	631558.258827060498	245.96173699632
1	11266	632185.768340413999	832.10018557699
1	11277	632267.807886830038	614.14304006972
1	11285	632362.370873812099	559.67460309469
1	11327	635083.347371187156	0
1	11353	637554.24671212357	106.2381423751
1	11362	638112.799013816022	325.967500473
1	11372	640166.408448503919	0
1	11386	640857.846489812088	477.66964436536
1	11398	641039.49084343692	280.92900839112
1	11409	641771.446710150439	879.58477118628
1	11415	642024.185363652041	1099.1112896035
1	11431	642902.35093914846	199.90098694528
1	11461	643959.514087122739	648.03893006684
1	11470	644175.016788212791	497.9192662265
1	11489	645928.617384720718	796.21628427471
1	11498	646296.502191188321	0
1	11523	647647.876354817673	441.0681417554
1	11574	652469.94509604385	870.56170199016
1	11593	653931.600715942987	0
1	11602	654290.614653045115	0
1	11637	657466.67712254244	0
1	11646	658488.273258374553	0
1	11665	661924.159716912309	0
1	11687	667069.274672421205	0
1	11695	667388.645688003541	115.23857296315
1	11712	668188.521347037961	0
1	11747	670075.175272457914	1068.7663670441
1	11755	670466.83213243276	901.4098905378
1	11760	670533.68873548497	529.31469317294
1	11765	670585.527440232257	151.3074007611
1	11774	671349.23518847763	314.31251225507
1	11813	673584.795389324248	0
1	11822	674116.493946071121	0
1	11842	675325.581018094425	469.83490730858
1	11859	676803.813113822863	134.98148916675
1	11873	677480.575967783383	0
1	11908	680884.750684033505	0
1	11930	683431.057580784809	912.00101001035
1	11947	684356.205978779676	300.52410536526
1	11952	684845.561350332418	550.2746520472
1	11969	685415.843603915703	0
1	11986	686974.982690047262	0
1	11995	687568.786441767208	0
1	12028	688943.956593825496	0
1	12036	688982.116863881687	6.690283283645
1	12046	690025.624737670827	0
1	12054	690223.526045843011	12.092317980742
1	12062	690422.665457798016	25.797233375211
1	12091	692606.202422757656	330.20695098748
1	12116	693947.097626016259	5.165445327223
1	12122	694082.141490654215	138.03681322717
1	12138	694358.905779604982	0
1	12146	694818.186154718756	215.88015126753
1	12155	695965.303935053625	0
1	12172	696459.199202917004	0
1	12240	700158.261041593977	0
1	12261	705340.915238027553	0
1	12269	705852.838578195448	0
1	12278	706428.2686847145	306.39369086773
1	12288	708089.588610963407	0
1	12304	708845.703550722465	337.35220161275
1	12315	708919.827410513081	24.923907497787
1	12337	709529.38052169602	184.71090892463
1	12362	710766.960826120776	0
1	12371	711137.979757185087	273.98560101719
1	12399	712951.072384416573	139.50187359503
1	12408	713546.519119706717	503.01072736563
1	12422	714571.867236916246	0
1	12434	715283.16245170081	302.78180415245
1	12439	715696.111361744857	508.23484858796
1	12483	719289.966646660066	0
1	12499	721118.683430825346	1292.0379959477
1	12504	721509.1655657283	1107.643390399
1	12544	724797.381166320293	0
1	12555	727049.251622352876	0
1	12563	727600.239238449312	0
1	12579	727893.991582547875	104.96779069674
1	12596	728707.909840759226	131.75706117503
1	12604	728940.183089927725	0
1	12646	730671.083586743057	0
1	12655	731489.033060923695	0
1	12663	731539.247372818814	0
1	12680	732661.330541869158	0
1	12697	733829.669419428585	0
1	12706	734266.122054125607	401.62768126921
1	12731	735717.706972828455	53.544952478909
1	12776	740759.67936558898	0
1	12785	741241.771365066193	410.87667827903
1	12793	741667.957185124428	29.289243181238
1	12801	741777.367800929797	0
1	12818	742529.456841107447	93.30850241491
1	12827	743098.790194441801	0
1	12843	743729.570867218937	0
1	12860	744207.152237018619	0
1	12871	744368.295079632871	71.758710624557
1	12879	744982.520562817774	285.87310400973
1	12907	745379.258509349453	65.033945515659
1	12922	746344.025044870366	909.51537076934
1	12951	747372.59894393731	7.555331612182
1	12959	747528.818011980453	15.254703203199
1	12974	748256.848746099061	474.13628459382
1	13011	751047.030110360109	0
1	13033	751724.387042270107	361.89787099967
1	13041	752006.518973985632	47.848007639674
1	13060	752832.82718085505	97.342760260898
1	13069	753351.003051259209	158.10848388527
1	13089	754483.601117931705	118.72189426847
1	13100	754965.072129348629	174.79304935157
1	13136	756332.668210892807	0
1	13144	757013.843578982196	0
1	13165	758044.272091194782	388.34034522359
1	13170	758184.755711176854	252.98965013301
1	13178	758432.672605222908	241.29208621817
1	13206	759921.989057090989	125.62820971502
1	13212	760128.107542616662	272.00127670042
1	13233	761183.74019815896	1034.3008563172
1	13238	761498.629367620287	1345.7544269588
1	13253	762305.582794387862	2110.2772584519
1	13258	762459.474650690633	2004.8240884138
1	13264	763045.437432903347	905.60318926221
1	13275	763647.341262038044	482.80404156272
1	13287	764229.096134414038	899.10703101534
1	13317	765136.646647211212	228.26103662456
1	13380	768885.025473783299	0
1	13414	770121.454461509341	0
1	13425	773247.78330106314	0
1	13434	774053.72547477474	0
1	13462	778474.328692889522	241.8219880676
1	13473	778940.761458168519	322.50977791239
1	13482	779563.066818604139	870.18505191692
1	13496	780457.44287722657	0
1	13521	781144.938466999456	0
1	13529	781326.878471012247	0
1	13537	781695.247051148506	157.8879287941
1	13563	783192.390095901261	0
1	13599	787260.687401223767	0
1	13619	788539.927445804347	716.75128537478
1	13624	788605.686124029407	656.32710249931
1	13641	789355.863977241691	0
1	13649	789780.120544313758	407.12132188562
1	13692	791787.937193319617	486.63765128083
1	13701	792057.397655454949	707.15961655097
1	13706	792189.947608108999	549.15199404076
1	13711	792202.802592492606	184.75207995062
1	13722	792366.403817019943	98.852540481621
1	13740	792856.785897031468	0
1	13767	795663.941250908142	1019.5304384677
1	13777	797368.076739977359	0
1	13796	799088.572159097526	373.37405253211
1	13814	799547.308074658807	61.630433239665
1	13836	800599.218228397512	299.99051228522
1	13845	801314.428456979873	255.10561798086
1	13861	801997.60701109879	146.664657217
1	13870	802506.874700661671	86.523678365528
1	13898	803535.768247311761	342.86152037936
1	13912	804939.298130861884	0
1	13924	805414.379304880473	248.40091747543
1	13964	808609.521729295937	0
1	13979	809494.418305055141	472.5845535226
1	13984	809784.201153823947	414.33226317805
1	13998	810239.974190066634	0
1	14023	810673.658509672459	308.06370889045
1	14031	810793.789264325897	183.31891911827
1	14040	811305.4328817059	540.68781989101
1	14058	812403.18805722602	1580.8316860532
1	14067	813912.759134519941	1813.8704428519
1	14076	814351.04071698426	136.18868902799
1	14084	814947.474399165443	29.081145912893
1	14099	815870.054786774858	445.47918918793
1	14138	817572.016906486089	480.91751637406
1	14146	817973.556241159244	628.96567626719
1	14155	818371.469546261208	761.01029270866
1	14201	820518.615001388126	95.958632550448
1	14226	823011.947869370153	0
1	14252	823997.078312113734	205.9807236751
1	14258	824039.773336959018	199.09413464841
1	14263	824069.171904967681	171.6066246443
1	14279	824515.548569348224	70.256503032311
1	14311	826470.652871493373	790.31179226471
1	14319	826846.440065600137	1109.4726388981
1	14344	828115.631418233973	0
1	14355	828248.540366923102	59.855748093134
1	14371	828690.766283670768	51.49222489051
1	14385	829849.317316109705	0
1	14400	830821.216933133012	387.2355495152
1	14426	832380.456842947694	509.13192643488
1	14445	833490.119748898392	0
1	14462	834488.276433403726	0
1	14470	834885.337736127475	268.91951859281
1	14479	835030.576652597183	0
1	14487	835452.750912927706	0
1	14537	837780.392965242197	0
1	14545	837925.82552118683	0
1	14554	838308.542670860602	0
1	14570	838642.936761519327	0
1	14585	839112.915028806813	397.07209073613
1	14616	841895.60771821428	515.5935374881
1	14621	841903.42277991145	469.27710850661
1	14667	847480.623788514176	0
1	14676	848419.301170588346	0
1	14694	850682.694836799538	0
1	14702	850771.567878108021	0
1	14711	851221.539174466177	0
1	14730	851828.777499558757	196.15085319235
1	14744	852085.026750224561	50.749981188173
1	14752	852292.20580605111	105.71825331251
1	14785	853605.021217442137	301.62132534445
1	14810	854655.11597616876	0
1	14827	855706.637867668866	258.68563041264
1	14837	857488.151521500362	0
1	14845	857836.331562227097	0
1	14879	859578.548591277848	0
1	14888	860238.152069726422	0
1	14915	863261.036710341948	0
1	14923	863361.31861267384	0
1	14940	864469.026313197118	0
1	14966	866190.650448556391	0
1	14974	866238.860137331111	36.928439608521
1	14983	867020.211001490785	0
1	14991	867520.854558154415	122.65419653691
1	14999	867778.910322820656	178.26715402398
1	15059	871175.325894839044	0
1	15067	871474.879285854705	0
1	15076	872072.654353483682	572.00893711754
1	15087	872563.111054221202	360.4452737168
1	15095	872739.439314598855	130.78787335863
1	15108	872933.0469587469	33.04986455495
1	15131	874010.272468828662	426.89436238677
1	15145	874923.703580080008	215.05401060103
1	15160	876109.955856449363	342.8638973246
1	15202	878120.516049797894	0
1	15211	879029.218498537237	620.78359975107
1	15259	881851.457915561389	908.39880201393
1	15264	881943.436582264563	775.50380309626
1	15273	882109.039072808299	449.16846673923
1	15281	882143.627857488835	130.01312781646
1	15302	882747.246647643907	0
1	15337	885191.91218718441	0
1	15345	885706.497227471105	341.20682748612
1	15354	886511.063572016722	0
1	15371	887460.423389116947	0
1	15379	888014.402266413092	0
1	15388	888472.639062194713	0
1	15405	889698.165774902177	0
1	15426	890073.882198565302	280.48374756823
1	15431	890104.666199691904	137.60243952538
1	15442	890664.506778205457	597.05931936229
1	15459	891655.133315855798	135.2640186182
1	15468	892145.038837497121	148.40235780327
1	15476	892446.628492995217	43.668501018412
1	15492	892927.940391738473	200.21800219774
1	15521	893499.481150295431	0
1	15535	893964.284912929932	23.889515017103
1	15608	897569.601249284435	1217.0202311646
1	15620	898152.677770070291	1022.7221959334
1	15628	898533.268301465962	921.82012908796
1	15637	899127.942322534326	1061.315144
1	15642	899438.119376410209	1282.8968448995
1	15675	900838.317972476678	126.04875839881
1	15689	901261.275914548058	0
1	15707	902817.627340887869	1529.2046855402
1	15719	903131.174041591654	1303.1037249833
1	15724	903259.847400865132	952.81182269236
1	15738	903856.96792320345	826.73902329686
1	15744	904264.480486941523	1228.2528161782
1	15749	904651.676934310575	1340.7488132002
1	15790	905881.20031241493	68.123504004715
1	15795	906004.61880120837	163.50818662987
1	15828	906977.56302835774	318.80490525265
1	15873	909604.358777920209	508.74783175014
1	15883	911711.389080768027	0
1	15900	912283.684502908804	0
1	15917	913177.530699661897	0
1	15944	916860.42494432527	0
1	15953	917821.720282176494	0
1	15970	918803.36209654702	383.15668238165
1	15982	919799.303986096178	460.84295060639
1	15991	920591.849698383474	816.23820393744
1	15999	920923.28872147103	806.87380326216
1	16030	922709.654538071996	612.05076754249
1	16056	924921.941131693966	0
1	16065	925348.47516019876	310.63132976463
1	16082	926115.526480653703	0
1	16099	927224.987385804363	0
1	16107	927684.080976948351	395.91182606093
1	16142	930046.350741699307	0
1	16151	931361.076356456925	0
1	16185	933462.813216205085	0
1	16193	933892.526439791724	232.08937084827
1	16201	933979.096919617153	79.712826038745
1	16210	934692.581541388056	0
1	16218	935000.056497481867	285.34057683405
1	16227	935287.626575392233	273.49537419303
1	16286	938268.335378249386	87.393923141497
1	16294	938395.427727802926	4.782250236379
1	16311	939635.319039421673	0
1	16322	939745.739351414607	106.84642416155
1	16334	940537.059626176829	877.66567506214
1	16345	940812.884470487256	1002.0356633206
1	16353	940937.361090731515	637.03369460323
1	16365	941778.117983428499	881.02549896043
1	16404	944171.805699372426	338.50984550145
1	16412	944384.893757757461	0
1	16420	944606.293205775977	216.21569818988
1	16446	946257.971885855439	0
1	16467	948030.079536337318	403.89962179104
1	16472	948128.079906028238	280.29835732048
1	16482	950113.722715108456	0
2	1222	72021.385953097349	3
2	1230	72078.500667293921	2
2	1235	72314.529694326587	1
2	1240	72341.987023187428	0
2	1265	73696.745551130891	1
2	1271	74239.339972102706	0
2	1274	74362.932510253097	1
2	1283	75060.913205171924	0
2	1313	76089.99056621943	1
2	1318	76287.363245602054	0
2	1321	76888.414662272462	1
2	1324	76946.172586417285	2
2	1330	77014.235152487448	1
2	1338	77239.519344495161	0
2	1348	78029.013253987855	1
2	1351	78058.6700643419	2
2	1356	78270.190957144968	1
2	1361	78668.326677805626	0
2	1403	80654.515009025195	1
2	1408	80850.305050974734	0
2	1415	81027.059060644631	1
2	1420	81209.635547893335	0
2	1479	85688.864251198309	1
2	1481	85688.864251198309	0
2	1489	87407.836240767353	1
2	1491	87407.836240767353	0
2	1494	87857.436860207846	1
2	1499	87916.31094127157	0
2	1514	88823.314771922147	1
2	1516	88823.314771922147	0
2	1519	88848.211120268601	1
2	1524	88909.471529186869	0
2	1531	89592.498710414315	1
2	1533	89592.498710414315	0
2	1537	90235.23292880731	1
2	1540	90292.435563383105	2
2	1545	90387.910284602142	1
2	1550	90629.170582619633	0
2	1556	90691.662355806003	1
2	1561	90706.160659178541	0
2	1612	93493.785491003415	1
2	1617	93726.285311534525	0
2	1623	93861.953964903739	1
2	1625	93861.953964903739	0
2	1640	94613.598121276419	1
2	1642	94613.598121276419	0
2	1650	96267.567255540079	1
2	1652	96267.567255540079	0
2	1655	96410.721271777528	1
2	1660	96579.709230341148	0
2	1663	96911.833476878455	1
2	1672	97300.606734515773	0
2	1722	99940.578931018088	1
2	1731	100503.960085155354	0
2	1753	103694.18397033343	1
2	1755	103694.18397033343	0
2	1762	104364.976371009218	1
2	1764	104364.976371009218	0
2	1771	105074.841153027357	1
2	1773	105074.841153027357	0
2	1789	107679.745624052099	1
2	1791	107679.745624052099	0
2	1798	108304.588948164035	1
2	1800	108304.588948164035	0
2	1816	110821.278209061717	1
2	1818	110821.278209061717	0
2	1839	112044.803371960742	1
2	1844	112154.194984760375	0
2	1864	113516.069882237199	1
2	1869	113937.040907058346	0
2	1895	117584.176600115258	1
2	1897	117584.176600115258	0
2	1903	117915.628369157272	1
2	1905	117915.628369157272	0
2	1919	120423.254651358508	1
2	1924	120990.944838264447	0
2	1945	122774.433653199096	1
2	1951	123187.644793398073	0
2	1969	127025.875168871935	1
2	1971	127025.875168871935	0
2	1974	127056.392186437507	1
2	1977	127066.202063361978	2
2	1980	127474.097022376537	3
2	1986	128151.154524427197	2
2	1989	128242.715706751786	3
2	1992	128358.953404268635	4
2	1997	128382.030223035395	3
2	2002	128555.427731535646	2
2	2010	128728.219651918705	1
2	2015	128865.234269019703	0
2	2019	129397.901920279308	1
2	2030	129648.372287937024	0
2	2073	130692.666249578623	1
2	2078	130716.850334490269	0
2	2081	130893.215083480482	1
2	2085	131004.899978297432	2
2	2090	131092.83144712706	1
2	2093	131119.763716857013	2
2	2098	131417.162385206331	1
2	2104	131694.481754189122	2
2	2111	132663.808268979059	3
2	2117	133404.691318546837	2
2	2122	133426.033885511292	1
2	2125	133426.568414561727	2
2	2136	133691.85467216172	1
2	2139	133887.317296285286	2
2	2144	133980.203216551517	1
2	2150	134043.993464282085	0
2	2153	134311.734954012875	1
2	2158	134407.401894019057	0
2	2176	134874.699830042431	1
2	2181	134940.645697759813	0
2	2188	135234.464003801443	1
2	2191	135273.019287013217	2
2	2196	135619.466698154915	1
2	2201	135645.878600604256	0
2	2250	138490.123034187927	1
2	2255	138551.134306614913	0
2	2263	138803.268689776582	1
2	2268	138849.316339451885	0
2	2282	139232.058205334782	1
2	2287	139489.816789988729	0
2	2290	139644.28658559496	1
2	2299	140177.096049069041	0
2	2307	140239.704482897675	1
2	2315	140491.513045498722	0
2	2318	140519.61074973919	1
2	2324	140834.838324396492	2
2	2330	141181.288148116657	1
2	2335	141193.678377851978	0
2	2351	141592.410593946219	1
2	2353	141592.410593946219	0
2	2368	142139.019516561054	1
2	2370	142139.019516561054	0
2	2416	145048.438057804981	1
2	2422	145906.218386917007	2
2	2428	146003.256956776696	1
2	2433	146035.015631662433	0
2	2461	147085.289069543777	1
2	2463	147085.289069543777	0
2	2470	148393.267494058958	1
2	2472	148393.267494058958	0
2	2478	148508.31136411765	1
2	2481	148594.46535032069	2
2	2486	148747.844808411932	1
2	2491	148962.664765017711	0
2	2495	149216.82703719821	1
2	2500	149577.001639937218	0
2	2528	150783.892657615622	1
2	2530	150783.892657615622	0
2	2553	151095.497029301292	1
2	2555	151095.497029301292	0
2	2578	152047.875082153273	1
2	2580	152047.875082153273	0
2	2586	152373.123612854344	1
2	2588	152373.123612854344	0
2	2591	152967.393837680153	1
2	2597	153350.142719871038	0
2	2604	154015.58879295385	1
2	2606	154015.58879295385	0
2	2626	155089.189946980337	1
2	2631	155127.927779106188	0
2	2638	156106.678576079628	1
2	2640	156106.678576079628	0
2	2646	156552.580501209283	1
2	2648	156552.580501209283	0
2	2671	157427.080878717459	1
2	2673	157427.080878717459	0
2	2702	159093.507280470183	1
2	2710	159588.381049376359	0
2	2728	161052.830004752	1
2	2733	161824.189877791042	0
2	2740	162748.0546879503	1
2	2742	162748.0546879503	0
2	2749	163347.336762106648	1
2	2751	163347.336762106648	0
2	2775	165557.421467378793	1
2	2777	165557.421467378793	0
2	2792	166983.239226613857	1
2	2794	166983.239226613857	0
2	2801	167221.257560900614	1
2	2803	167221.257560900614	0
2	2810	168063.971696308531	1
2	2812	168063.971696308531	0
2	2827	169697.7427353563	1
2	2829	169697.7427353563	0
2	2849	170546.864358333217	1
2	2852	170552.209132403303	2
[...]
7	10779	597341.433697244024	1
7	10783	597533.540710309637	2
7	10791	598545.96989137402	1
7	10809	599823.794381989986	2
7	10817	599941.400552276047	3
7	10823	600564.236281571927	4
7	10825	600792.539678213305	3
7	10834	601262.781800604565	2
7	10842	601648.716563540188	1
7	10850	601797.127371172304	0
7	10865	602844.340807463658	1
7	10868	603918.544873794543	0
7	10884	605100.471862142828	1
7	10893	606084.222002903719	2
7	10895	606337.901355519693	1
7	10910	607265.870065035096	2
7	10913	608245.861391444445	1
7	10927	608476.450649519749	2
7	10930	609765.170800684142	1
7	10944	609986.731504325553	2
7	10952	610978.996103116585	1
7	10957	611196.338165124073	2
7	10961	611272.940581849611	1
7	10973	611992.147534900106	2
7	10990	612499.532317132826	3
7	10998	612990.432070735935	4
7	11004	613154.508545642842	5
7	11006	613237.038715439307	4
7	11019	613652.498809090143	3
7	11023	613973.487961449687	4
7	11031	614870.88553677109	3
7	11037	615234.152289591995	2
7	11054	615534.417139810993	1
7	11058	615555.459384731289	2
7	11063	615809.546086290502	3
7	11068	615869.050087383153	4
7	11081	616042.572163435054	3
7	11089	616176.281851754675	2
7	11098	616911.925945442083	3
7	11112	617648.199339497379	4
7	11115	618779.003376995994	3
7	11124	619212.998914349089	2
7	11137	619753.904101549553	1
7	11141	619888.663117054844	2
7	11149	620930.454850511495	1
7	11160	623784.085833550916	0
7	11179	625151.156818787685	1
7	11184	625162.692395485015	2
7	11192	625265.524762147709	3
7	11201	626386.759030377662	4
7	11204	627915.392440077468	3
7	11214	629051.098256687085	2
7	11232	630219.836279202476	3
7	11237	630361.212197899313	4
7	11239	630914.335753982059	3
7	11264	632185.768340413999	4
7	11268	632224.921425486729	3
7	11271	632242.690520544218	2
7	11275	632267.807886830038	3
7	11279	632328.760590312744	2
7	11283	632362.370873812099	3
7	11288	632557.963645749215	4
7	11292	633002.911848787575	3
7	11314	633963.348542350784	2
7	11331	636113.575234844894	3
7	11333	636170.90551147317	2
7	11342	637224.507221580969	1
7	11360	638112.799013816022	2
7	11365	638263.074354899364	3
7	11374	640267.405708256545	2
7	11384	640857.846489812088	3
7	11396	641039.49084343692	4
7	11400	641280.687006339395	3
7	11403	641523.124556909817	2
7	11407	641771.446710150439	3
7	11413	642024.185363652041	4
7	11417	642105.388175476857	3
7	11421	642566.142002406537	4
7	11434	642924.226160433409	5
7	11452	643422.724192982078	4
7	11464	644026.080449384977	3
7	11468	644175.016788212791	4
7	11473	644414.047735640235	5
7	11493	646019.397900409023	6
7	11500	646438.969990274368	5
7	11504	646460.940749760207	6
7	11512	647191.444252412645	5
7	11525	647813.645249119503	4
7	11529	647842.035773542676	5
7	11538	649106.771938370513	4
7	11543	649112.038363786884	3
7	11556	651117.095028247435	2
7	11564	651902.826136644751	1
7	11568	652136.184412596405	0
7	11577	652904.101750042684	1
7	11597	654091.166301529589	2
7	11605	654365.138099231196	3
7	11608	655076.374883084869	2
7	11614	656118.656164950789	1
7	11625	656576.972894141395	0
7	11640	657563.863204395301	1
7	11648	658549.896634780979	0
7	11653	659269.64642056255	1
7	11669	662432.761817728221	2
7	11673	664301.346772334239	1
7	11693	667388.645688003541	2
7	11697	667546.383971137774	1
7	11701	667715.851837659421	2
7	11715	668612.058822840739	3
7	11717	668620.93603069347	2
7	11725	668866.495944462975	1
7	11734	669408.554838376184	0
7	11753	670466.83213243276	1
7	11758	670533.68873548497	2
7	11763	670585.527440232257	3
7	11772	671349.23518847763	4
7	11777	671436.520620448678	5
7	11785	672049.975412495698	4
7	11790	672409.170929210771	3
7	11793	672602.699037293321	2
7	11816	673619.065372258464	3
7	11825	674155.011953245229	4
7	11827	674694.367186204337	3
7	11835	674995.772039024541	2
7	11846	676259.132791980296	3
7	11850	676482.456920236957	2
7	11862	676812.269680397438	3
7	11877	678241.722187722419	4
7	11879	678467.756790733333	3
7	11884	678605.137242713213	2
7	11892	678929.217500901202	1
7	11911	680958.707856498904	2
7	11915	682516.486288143906	1
7	11923	682720.126715467955	0
7	11933	683487.392183435352	1
7	11950	684845.561350332418	2
7	11955	684972.054293111139	3
7	11958	685168.528210676635	2
7	11971	685742.879347670569	1
7	11975	685994.024490771047	2
7	11990	687104.684317120848	3
7	11997	687826.154121710239	2
7	12001	687856.273826774485	3
7	12005	687952.545551487828	2
7	12009	688071.397795735375	1
7	12034	688982.116863881687	2
7	12040	689784.220943625413	3
7	12052	690223.526045843011	4
7	12060	690422.665457798016	5
7	12064	690468.680142676183	4
7	12069	691113.344051795788	5
7	12076	691412.401830640153	4
7	12081	691594.915887919777	3
7	12095	693033.824213682866	4
7	12102	693906.627970257847	3
7	12120	694082.141490654215	4
7	12125	694089.941655697938	5
7	12127	694161.443810206485	4
7	12144	694818.186154718756	5
7	12150	695119.096530126589	6
7	12159	696090.458629218453	7
7	12161	696130.957603807951	6
7	12174	696565.15810055276	5
7	12177	696678.893876828162	4
7	12181	696947.799330856694	5
7	12191	697253.012874280067	4
7	12194	697604.673998794521	3
7	12210	697998.318002680491	2
7	12216	698033.243116160407	1
7	12228	699075.267323568312	0
7	12244	701040.424196414261	1
7	12247	702427.781997712115	0
7	12264	705718.434247005622	1
7	12276	706428.2686847145	2
7	12281	706711.156918103942	3
7	12290	708437.541435377115	2
7	12294	708445.400927040588	3
7	12306	708888.373895408401	2
7	12313	708919.827410513081	3
7	12319	709183.797605739892	4
7	12326	709340.394797192857	3
7	12339	710003.467541585613	2
7	12344	710306.072700677695	3
7	12351	710364.836933078807	2
7	12369	711137.979757185087	3
7	12374	711209.583446022794	4
7	12376	711694.461372546626	3
7	12385	712618.74562272671	2
7	12390	712659.837751439294	1
7	12406	713546.519119706717	2
7	12411	713665.370096320487	3
7	12432	715283.16245170081	4
7	12437	715696.111361744857	5
7	12441	715760.479374665022	4
7	12445	715871.881929137385	5
7	12453	716243.229176072057	4
7	12462	717412.191721446388	3
7	12471	718939.400746195947	2
7	12489	720149.742848153702	1
7	12497	721118.683430825346	2
7	12502	721509.1655657283	3
7	12507	721740.654064821209	4
7	12515	722854.92194586293	3
7	12523	722960.338572460683	2
7	12533	724061.369859599888	1
7	12547	724894.896570597075	2
7	12558	727227.493933682752	3
7	12565	727639.906386307468	2
7	12569	727658.753896619236	3
7	12583	728167.656565346615	4
7	12585	728240.247469133807	3
7	12599	728817.261711461422	4
7	12607	729332.42242411879	3
7	12611	729375.177819347496	4
7	12615	729753.230074437798	3
7	12624	730051.790622858375	2
7	12632	730114.583183068909	1
7	12649	730879.417968369506	2
7	12658	731531.185201977625	3
7	12666	731641.233756533336	4
7	12669	732199.053591295721	3
7	12683	732673.237361277933	4
7	12686	733593.539875807668	3
7	12704	734266.122054125607	4
7	12708	734952.535895891695	3
7	12713	735127.014288568364	4
7	12720	735657.8660646436	3
7	12733	735809.88352464188	2
7	12737	735926.549141540028	3
7	12747	738186.401295363327	2
7	12756	739091.585638153293	1
7	12765	740695.216815039427	0
7	12783	741241.771365066193	1
7	12791	741667.957185124428	2
7	12796	741693.594649734638	3
7	12804	741972.404431333354	4
7	12807	742262.001185242909	3
7	12821	742711.072401281528	4
7	12829	743276.468860114364	3
7	12833	743440.824120418484	4
7	12845	743946.629223134587	3
7	12849	743949.265590013357	4
7	12865	744304.77800162655	3
7	12869	744368.295079632871	4
7	12877	744982.520562817774	5
7	12882	744987.126854972014	6
7	12886	744998.818632863956	5
7	12890	745142.612173791721	4
7	12901	745329.147976511228	3
7	12912	745501.3701048762	2
7	12915	745563.647421773094	1
7	12920	746344.025044870366	2
7	12925	746593.250821513036	3
7	12957	747528.818011980453	4
7	12961	747539.52954644427	3
7	12968	748090.666525574126	2
7	12972	748256.848746099061	3
7	12976	748346.107908362338	2
7	12980	748550.733038517063	3
7	12999	750506.499822247072	2
7	13014	751201.045500906642	3
7	13016	751219.125478640072	2
7	13021	751271.763261273854	1
7	13027	751462.991001983884	0
7	13039	752006.518973985632	1
7	13045	752189.424687585358	2
7	13067	753351.003051259209	3
7	13071	753492.118863747909	2
7	13075	754205.609004969295	1
7	13079	754356.216308798689	2
7	13094	754954.154627248701	1
7	13098	754965.072129348629	2
7	13104	755136.908981454553	3
7	13113	755657.367773808196	2
7	13116	755754.159301970717	1
7	13139	756566.741022514966	2
7	13148	757233.922767596598	3
7	13150	757607.01813978432	2
7	13168	758184.755711176854	3
7	13176	758432.672605222908	4
7	13180	758712.087246545098	3
7	13184	758781.844153019605	4
7	13192	759337.602157332466	3
7	13210	760128.107542616662	4
7	13223	760245.358181461768	3
7	13231	761183.74019815896	4
7	13236	761498.629367620287	5
7	13240	761618.921031408151	4
7	13243	761671.228371509655	3
7	13251	762305.582794387862	4
7	13256	762459.474650690633	5
7	13262	763045.437432903347	6
7	13273	763647.341262038044	7
7	13277	763750.449267447805	6
7	13280	763908.052385657603	5
7	13285	764229.096134414038	6
7	13289	764602.453782493865	5
7	13293	764655.089055649749	6
7	13302	764783.89917597648	5
7	13320	765365.083342118773	6
7	13329	765668.892504133465	5
7	13348	766407.549921730812	4
7	13351	766525.67474317696	3
7	13354	766590.231068071573	2
7	13383	768900.960840661031	3
7	13386	769774.531316565454	2
7	13391	769784.235182915582	1
7	13394	769855.516113218158	0
7	13417	770378.516945612485	1
7	13428	773349.644964512099	2
7	13436	774603.460827749693	1
7	13440	774766.447634746602	2
7	13450	777285.60564080164	1
7	13471	778940.761458168519	2
7	13476	779198.391995760576	1
7	13480	779563.066818604139	2
7	13486	780100.779002057811	3
7	13498	780489.927228731411	2
7	13501	780504.685966815341	1
7	13505	780732.558804090986	2
7	13524	781300.033148385751	3
7	13535	781695.247051148506	4
7	13540	781898.695057853226	5
7	13543	782311.589457610551	4
7	13551	782937.412437310385	3
7	13566	783722.773051237592	4
7	13568	783731.299469949692	3
7	13578	785122.692683443423	2
7	13586	785849.377359755293	1
7	13601	787468.98147927596	0
7	13605	787702.269516273552	1
7	13622	788605.686124029407	2
7	13626	788805.998390097363	1
7	13630	788987.764828334146	2
7	13647	789780.120544313758	3
7	13651	789895.537277119336	2
7	13654	789900.130550480614	1
7	13659	790297.419521971113	2
7	13671	790612.393670832985	1
7	13683	791590.292403982059	0
7	13699	792057.397655454949	1
7	13704	792189.947608108999	2
7	13709	792202.802592492606	3
7	13716	792346.623587590175	2
7	13720	792366.403817019943	3
7	13725	792583.304394729398	4
7	13743	792913.523564261346	5
7	13746	793128.330088157081	4
7	13751	793620.024920714297	3
7	13770	795768.654200579057	4
7	13779	797692.816979309974	3
7	13783	798171.184076482568	2
7	13789	798867.197354723011	1
7	13794	799088.572159097526	2
7	13799	799339.366852466395	3
7	13817	799684.529586252761	4
7	13825	800282.3797958332	3
7	13843	801314.428456979873	4
7	13848	801390.79082105209	5
7	13850	801717.891424748103	4
7	13868	802506.874700661671	5
7	13872	802671.402163670808	4
7	13875	802776.636596011561	3
7	13879	802958.77215743437	4
7	13889	803185.165909824672	3
7	13901	803775.046961107543	4
7	13918	805357.806540238272	3
7	13922	805414.379304880473	4
7	13927	805559.142784412522	5
7	13934	805988.639350271035	4
7	13944	807108.542814279703	3
7	13952	807445.647513896888	2
7	13967	809016.185893260375	1
7	13977	809494.418305055141	2
7	13982	809784.201153823947	3
7	13987	809898.743425577653	4
7	14001	810307.282515706556	5
7	14003	810311.295972690909	4
7	14011	810414.356363767554	3
7	14014	810504.920051518817	2
7	14029	810793.789264325897	3
7	14038	811305.4328817059	4
7	14042	811653.56768874297	3
7	14045	811671.694795922812	2
7	14048	811871.350130909083	1
7	14056	812403.18805722602	2
7	14061	813058.794737026894	1
7	14065	813912.759134519941	2
7	14074	814351.04071698426	3
7	14082	814947.474399165443	4
7	14087	815181.065224890511	3
7	14093	815515.442550196392	2
7	14097	815870.054786774858	3
7	14103	816084.610765437874	4
7	14126	817296.220502714425	3
7	14129	817307.205159143899	2
7	14144	817973.556241159244	3
7	14149	818116.738061070864	2
7	14153	818371.469546261208	3
7	14158	818574.011519926441	4
7	14173	819599.716646075052	3
7	14181	819850.50519504303	2
7	14204	820612.640146122178	3
7	14229	823042.442623468622	2
7	14233	823076.349843500362	3
7	14246	823937.392316451083	2
7	14256	824039.773336959018	3
7	14261	824069.171904967681	4
7	14266	824255.669864241143	5
7	14270	824374.822328765823	4
7	14282	824554.419412270955	5
7	14290	825443.641785643113	4
7	14301	825925.396285423124	3
7	14304	825982.083958968457	2
7	14313	826499.83139404229	1
7	14317	826846.440065600137	2
7	14322	826903.515499166003	3
7	14346	828182.495471379745	2
7	14353	828248.540366923102	3
7	14358	828362.972040886243	4
7	14362	828382.556492876854	3
7	14374	828937.638998591102	4
7	14388	830185.137213641191	3
7	14394	830446.085617655048	2
7	14398	830821.216933133012	3
7	14404	831039.051689482339	4
7	14408	831410.823558832683	3
7	14416	831617.297265305139	2
7	14429	832778.470563933379	3
7	14448	833783.108674673687	4
7	14450	833917.257036483112	3
7	14468	834885.337736127475	4
7	14474	835027.659983049546	5
7	14482	835187.459877469325	6
7	14489	835480.821501152591	5
7	14494	836230.078228584729	6
7	14501	836432.108697152646	5
7	14506	836498.541180918693	4
7	14517	836907.287553809206	3
7	14522	836936.845362732704	2
7	14540	837838.592093964483	3
7	14549	838075.16792139343	4
7	14557	838386.449077005702	5
7	14559	838451.242602403871	4
7	14575	838782.350849073859	3
7	14578	838817.517478103692	2
7	14583	839112.915028806813	3
7	14588	839148.989106699672	4
7	14602	841070.491668603845	3
7	14619	841903.42277991145	4
7	14624	841987.952556479838	5
7	14627	842099.582363052895	4
7	14637	844355.611936216517	3
7	14646	845231.619044027195	2
7	14654	845673.538663233398	1
7	14670	847712.608529892347	2
7	14679	848842.896179850688	3
7	14682	849493.515062751728	2
7	14697	850746.027249286522	3
7	14705	850840.641658551142	4
7	14713	851269.644092805585	3
7	14717	851326.683124478303	4
7	14721	851525.1605880725	3
7	14733	852010.704272362151	4
7	14750	852292.20580605111	5
7	14754	852427.324506651266	4
7	14758	852742.239076657603	5
7	14762	852927.907858517355	4
7	14765	852947.511399931245	3
7	14788	853721.158276156461	4
7	14790	853895.277934050388	3
7	14795	853899.089086377562	2
7	14813	854665.617714484965	3
7	14816	855399.754562883992	2
7	14830	855746.393722746346	3
7	14840	857583.278257502885	4
7	14848	858115.583296547607	3
7	14852	858135.500099389206	4
7	14860	859159.465707833975	3
7	14865	859216.816439489453	2
7	14883	860064.203307987107	3
7	14890	860401.366872280399	2
7	14895	861105.393460319978	3
7	14902	861854.548098834948	2
7	14918	863270.920140852761	3
7	14925	863373.049187304406	2
7	14929	863520.271755946217	3
7	14943	865000.01819278268	4
7	14946	865800.595675934573	3
7	14951	865806.387167802381	2
7	14972	866238.860137331111	3
7	14977	866593.893588150492	4
7	14989	867520.854558154415	5
7	14997	867778.910322820656	6
7	15002	867845.058946809766	7
7	15005	868058.069309819327	6
7	15013	869010.038582166642	5
7	15019	869020.380905961091	4
7	15027	869050.920403033363	3
7	15030	869301.460497043382	2
7	15048	871054.129989805339	1
7	15062	871388.934990205032	2
7	15074	872072.654353483682	3
7	15081	872519.227965462738	2
7	15085	872563.111054221202	3
7	15093	872739.439314598855	4
7	15098	872843.307388061494	5
7	15110	872975.963457311126	4
7	15113	873007.426567210371	3
7	15118	873142.803450480833	4
7	15122	873299.782630045986	3
7	15135	874598.892991342613	4
7	15149	875629.092899571666	5
7	15163	876120.745534491049	6
7	15165	876306.033300749411	5
7	15173	876373.371499889061	4
7	15182	877520.047520133663	3
7	15190	877589.970688795847	2
7	15209	879029.218498537237	3
7	15214	879338.888564818454	4
7	15216	879551.78733562822	3
7	15221	879636.285241409457	2
7	15224	879676.384253960707	1
7	15241	880826.970236724858	0
7	15262	881943.436582264563	1
7	15271	882109.039072808299	2
7	15275	882113.183431682192	1
7	15279	882143.627857488835	2
7	15283	882143.75110256718	1
7	15287	882216.003996797496	2
7	15305	882935.797037972924	3
7	15308	883635.778469425713	2
7	15317	884211.155420674946	1
7	15325	884908.975041997808	0
7	15343	885706.497227471105	1
7	15348	885914.650966788134	2
7	15357	886617.286710015271	3
7	15360	887195.812645886705	2
7	15374	887599.32337113461	3
7	15383	888222.627727142577	4
7	15391	888690.383445000175	5
7	15394	889302.419020774188	4
7	15410	889797.616907267408	3
7	15413	889833.7813093	2
7	15424	890073.882198565302	3
7	15429	890104.666199691904	4
7	15433	890154.614824415237	3
7	15436	890618.195519213282	2
7	15440	890664.506778205457	3
7	15446	891063.120603176231	4
7	15450	891302.82440577951	3
7	15466	892145.038837497121	4
7	15474	892446.628492995217	5
7	15479	892562.716540205655	6
7	15483	892594.429374777129	5
7	15495	892977.239721187843	6
7	15523	893647.769639995467	5
7	15526	893852.298328746168	4
7	15533	893964.284912929932	5
7	15538	894115.197650605803	4
7	15542	894342.973925949709	5
7	15546	894343.609851455855	4
7	15559	894530.855064649244	3
7	15567	894947.55831513011	2
7	15570	895011.207652699642	1
7	15593	896076.597502184791	0
7	15618	898152.677770070291	1
7	15626	898533.268301465962	2
7	15630	898762.987697639336	1
7	15635	899127.942322534326	2
7	15640	899438.119376410209	3
7	15645	899490.980001128748	4
7	15649	899780.209735762945	3
7	15652	899984.350423544176	2
7	15666	900333.194538581627	1
7	15679	901195.344516535802	2
7	15694	901298.876478035077	1
7	15705	902817.627340887869	2
7	15717	903131.174041591654	3
7	15722	903259.847400865132	4
7	15729	903382.903770862222	3
7	15732	903815.455844294496	2
7	15736	903856.96792320345	3
7	15742	904264.480486941523	4
7	15747	904651.676934310575	5
7	15752	904798.767582684591	6
7	15767	905159.583505759084	5
7	15775	905392.817381193846	4
7	15778	905632.184833784679	3
7	15793	906004.61880120837	4
7	15799	906133.191134681744	5
7	15803	906195.521778834696	4
7	15816	906651.012682824914	3
7	15822	906658.892891310815	2
7	15832	907251.230933082932	3
7	15841	907514.276505718979	2
7	15853	908330.755843884761	1
7	15858	908423.55143310982	0
7	15876	909925.08444636495	1
7	15886	911862.05042333856	2
7	15888	911919.395970591683	1
7	15902	912353.923050782222	0
7	15906	912604.81955201532	1
7	15920	913213.154311926411	2
7	15922	913844.678004632325	1
7	15931	914936.07844921853	0
7	15948	917077.713159533409	1
7	15956	917978.871282218414	2
7	15959	918350.812838687863	1
7	15980	919799.303986096178	2
7	15989	920591.849698383474	3
7	15993	920743.709681712048	2
7	15997	920923.28872147103	3
7	16002	921002.229828939141	4
7	16010	921407.594950576127	3
7	16015	921621.278178791272	2
7	16032	922799.745406773458	1
7	16036	922992.716037083905	2
7	16044	923759.659239259314	1
7	16063	925348.47516019876	2
7	16068	925797.19525041641	3
7	16070	925845.081297120464	2
7	16084	926161.039026191661	1
7	16088	926330.057574313676	2
7	16105	927684.080976948351	3
7	16110	927915.978757211533	4
7	16112	928014.566665050364	3
7	16122	929348.021067527914	2
7	16127	929607.08602657319	1
7	16145	930509.007309345436	2
7	16154	931397.132682716434	3
7	16156	931480.188981322282	2
7	16164	931900.113848147861	1
7	16173	932964.288607345234	0
7	16191	933892.526439791724	1
7	16199	933979.096919617153	2
7	16205	934108.777757091698	3
7	16216	935000.056497481867	4
7	16225	935287.626575392233	5
7	16230	935434.300580441354	6
7	16232	935760.630229269615	5
7	16237	935761.331442456599	4
7	16245	935885.711058293876	3
7	16249	936411.170100260682	2
7	16266	937456.728637310432	1
7	16274	937994.797745424459	0
7	16292	938395.427727802926	1
7	16297	938591.464972081144	2
7	16299	938685.162840731723	1
7	16320	939745.739351414607	2
7	16332	940537.059626176829	3
7	16336	940636.10182049591	2
7	16339	940781.249982265596	1
7	16343	940812.884470487256	2
7	16351	940937.361090731515	3
7	16356	941299.616569581363	2
7	16359	941451.41246642221	1
7	16363	941778.117983428499	2
7	16368	942016.625279701607	3
7	16389	943145.061371582147	2
7	16407	944216.026851320447	3
7	16418	944606.293205775977	4
7	16423	944704.795441535028	5
7	16426	945804.97484399409	4
7	16435	946161.247578899272	3
7	16448	946641.046916882921	2
7	16453	947251.891374974964	3
7	16470	948128.079906028238	4
7	16476	949690.096358295455	5
