file 301662 1483967989                                          
version 2
run QueueMeasurement-101-20170109-14:19:48-6534
attr configname QueueMeasurement
attr datetime 20170109-14:19:48
attr experiment QueueMeasurement
attr inifile queueStudy.ini
attr iterationvars ""
attr iterationvars2 $repetition=101
attr measurement ""
attr network controltower.SimNetwork
attr processid 6534
attr repetition 101
attr replication #101
attr resultdir results
attr runnumber 101
attr seedset 101
param SimNetwork.a.parkingLot.parkingDelay exponential(45min)
param SimNetwork.a.runway.landingTime exponential(5min)
param SimNetwork.a.runway.takeoffTime exponential(5min)
param SimNetwork.a.runway.throughputCheckInterval 16.667min
param SimNetwork.wg.interArrivalTime exponential(16.667min)

vector 5  SimNetwork.a.runway  landedThroughput:vector  ETV
attr source  landedThroughputSignal
vector 6  SimNetwork.a.runway  tookoffThroughput:vector  ETV
attr source  tookoffThroughputSignal
vector 2  SimNetwork.a.landingQueue  queueLength:vector  ETV
attr source  queueLengthSignal
vector 1  SimNetwork.a.landingQueue  queueTime:vector  ETV
attr source  queueTimeSignal
vector 7  SimNetwork.a.parkingLot  parkingOccupancy:vector  ETV
attr source  parkingOccupancy
vector 4  SimNetwork.a.takeoffQueue  queueLength:vector  ETV
attr source  queueLengthSignal
vector 3  SimNetwork.a.takeoffQueue  queueTime:vector  ETV
attr source  queueTimeSignal
vector 0  SimNetwork.wg  responseTime:vector  ETV
attr source  responseTimeSignal
0	1445 38607 1386 16642 75049.905393576513 950336.774064952698 894 333.99354900128 26123.904276679 5009722.3252065 38415335242.775
1	40052 34559 1348 16611 72272.852943400849 949718.965247283137 906 0 2306.0692289046 268911.77695501 248031436.93937
2	74611 53087 1346 16611 72272.852943400849 949718.965247283137 1812 0 5 1460 2494
3	127698 34715 1382 16644 74750.811988475863 950336.774064952698 895 0 7024.1725229907 895327.01758395 2482155014.9089
4	162413 52646 1380 16644 74750.811988475863 950336.774064952698 1796 0 13 3106 13418
5	215059 16835 1344 16624 72001.44 950019 879 0 6 906 1868
6	231894 16835 1344 16624 72001.44 950019 879 0 6 893 2005
7	248729 52933 1351 16633 72530.209900462773 950214.009999512589 1807 0 9 5925 24635
