version 2
run QueueMeasurement-56-20170109-14:19:22-6489
attr configname QueueMeasurement
attr datetime 20170109-14:19:22
attr experiment QueueMeasurement
attr inifile queueStudy.ini
attr iterationvars ""
attr iterationvars2 $repetition=56
attr measurement ""
attr network controltower.SimNetwork
attr processid 6489
attr repetition 56
attr replication #56
attr resultdir results
attr runnumber 56
attr seedset 56
param SimNetwork.a.parkingLot.parkingDelay exponential(45min)
param SimNetwork.a.runway.landingTime exponential(5min)
param SimNetwork.a.runway.takeoffTime exponential(5min)
param SimNetwork.a.runway.throughputCheckInterval 16.667min
param SimNetwork.wg.interArrivalTime exponential(16.667min)

statistic SimNetwork.wg 	responseTime:stats
field count 815
field mean 5138.1012287278
field stddev 2918.9875662878
field sum 4187552.5014132
field sqrsum 28451746220.358
field min 469.65337209035
field max 17306.46808535
attr source  responseTimeSignal
scalar SimNetwork.a.landingQueue 	queueLength:timeavg 	0.21924423016681
attr source  queueLengthSignal
statistic SimNetwork.a.landingQueue 	queueLength:stats
field count 1646
field mean 0.71992709599028
field stddev 0.78041622097727
field sum 1185
field sqrsum 1855
field min 0
field max 6
attr source  queueLengthSignal
statistic SimNetwork.a.landingQueue 	queueTime:stats
field count 823
field mean 233.59478370601
field stddev 412.31149301829
field sum 192248.50699005
field sqrsum 184648879.10817
field min 0
field max 3284.4766099116
attr source  queueTimeSignal
scalar SimNetwork.a.takeoffQueue 	queueLength:timeavg 	0.63357633902162
attr source  queueLengthSignal
statistic SimNetwork.a.takeoffQueue 	queueLength:stats
field count 1639
field mean 1.2800488102502
field stddev 1.7370588302615
field sum 2098
field sqrsum 7628
field min 0
field max 12
attr source  queueLengthSignal
statistic SimNetwork.a.takeoffQueue 	queueTime:stats
field count 816
field mean 650.81560867748
field stddev 1123.7700371809
field sum 531065.53668083
field sqrsum 1374855904.122
field min 0
field max 6890.6193842575
attr source  queueTimeSignal
scalar SimNetwork.a.parkingLot 	parkingOccupancy:timeavg 	2.4151356361121
attr source  parkingOccupancy
statistic SimNetwork.a.parkingLot 	parkingOccupancy:stats
field count 1646
field mean 2.956865127582
field stddev 1.6568798126941
field sum 4867
field sqrsum 18907
field min 0
field max 8
attr source  parkingOccupancy
