version 2
run ResponseMeasurement-121-20170110-19:50:03-23307
attr configname ResponseMeasurement
attr datetime 20170110-19:50:03
attr experiment ResponseMeasurement
attr inifile responseStudy.ini
attr iterationvars ""
attr iterationvars2 $repetition=121
attr measurement ""
attr network controltower.SimNetwork
attr processid 23307
attr repetition 121
attr replication #121
attr resultdir results
attr runnumber 121
attr seedset 121
param SimNetwork.a.parkingLot.parkingDelay "truncnormal(30min, 3min)"
param SimNetwork.a.runway.landingTime "truncnormal(5min, 0.5min)"
param SimNetwork.a.runway.takeoffTime "truncnormal(15min, 1.5min)"
param SimNetwork.a.runway.throughputCheckInterval 100min
param SimNetwork.wg.interArrivalTime exponential(100min)

vector 0  SimNetwork.wg  responseTime:vector  ETV
attr source  responseTimeSignal
vector 4  SimNetwork.a.takeoffQueue  queueLength:vector  ETV
attr source  queueLengthSignal
vector 3  SimNetwork.a.takeoffQueue  queueTime:vector  ETV
attr source  queueTimeSignal
vector 7  SimNetwork.a.parkingLot  parkingOccupancy:vector  ETV
attr source  parkingOccupancy
vector 2  SimNetwork.a.landingQueue  queueLength:vector  ETV
attr source  queueLengthSignal
vector 1  SimNetwork.a.landingQueue  queueTime:vector  ETV
attr source  queueTimeSignal
vector 5  SimNetwork.a.runway  landedThroughput:vector  ETV
attr source  landedThroughputSignal
vector 6  SimNetwork.a.runway  tookoffThroughput:vector  ETV
attr source  tookoffThroughputSignal
0	547	199660.150798987584	5315.2046822569
0	552	200485.006519599709	5974.9148395038
0	563	201633.18215194301	6613.1763097189
0	577	204468.509828473075	6748.2588467589
0	594	215950.635807755979	14351.08700164
0	612	225924.027444868688	12893.363521444
0	640	233747.985043279784	10813.64502101
0	654	235474.835216021786	4913.254298568
0	662	236406.707755194383	4000.181619178
0	680	246507.133949769954	13054.927926036
0	696	250608.202275708244	7451.0048076763
0	713	255470.477131185956	7979.0683115265
0	741	261307.987667773969	8987.5852097825
0	746	262284.946092377482	3887.5528459924
0	763	266474.481321069977	7709.6814393534
0	782	269490.528069927219	6001.0487316815
0	810	272452.382802861456	5959.8434294819
0	820	273789.689053959372	4700.6610068743
0	828	275280.014999359671	5543.5082742376
0	846	283417.178637383646	11471.346843415
0	863	290922.034377723825	10532.792333085
0	880	296325.197058433177	8255.7520703362
0	899	313866.928796760205	20726.458431907
0	928	326526.957654348031	15424.663474708
0	936	327233.861292939651	3619.9051994833
0	950	330295.298008743794	6337.0212343393
0	967	341587.154430462369	14789.359706019
0	998	345885.042273582226	6905.7705268278
0	1011	346867.557171543454	4114.2772913559
0	1033	348802.511083770651	5789.3030078079
0	1044	350030.856237294618	4981.4265168755
0	1049	350884.623831282619	4112.4410636244
0	1070	360822.836876536813	13951.538310157
0	1083	363849.050124302998	5679.0836338232
0	1110	380837.016379102325	20160.903884203
0	1118	381860.800422674581	3984.7210736546
0	1155	390458.187448997061	11381.516365847
0	1160	391351.611396302225	4082.2764370287
0	1171	392230.519534704129	3790.0538724087
0	1184	395415.366966519672	6175.2410989054
0	1201	398478.906462917491	6977.1545054842
0	1218	402712.682303321053	7115.5104739014
0	1234	407368.690185541308	8022.5316114919
0	1263	418516.820406422397	14512.908311227
0	1268	419155.849348658175	3642.3070060585
0	1285	423585.733751857198	7311.1644401793
0	1303	433169.715444902761	12721.082051315
0	1322	455549.475480461942	25470.577200454
0	1339	459791.699501086779	7104.8209504277
0	1364	464182.992725102998	7568.8695859708
0	1375	465462.324622924616	4566.6221574435
0	1389	468661.671056535895	5790.1153081464
0	1415	481334.008389949795	16069.581382205
0	1423	483248.60161536444	5132.7699622779
0	1441	495090.395289551417	14912.893176671
0	1458	503135.614059013427	11466.670488424
0	1483	507573.064866846206	7012.7874028432
0	1491	508887.548377198481	4387.525348097
0	1508	513783.397373170097	7879.1105568882
0	1533	520019.308932394885	9586.0761725325
0	1541	521689.335158941325	5362.8768051962
0	1569	526031.432450406116	7305.786938566
0	1582	527212.70034583192	4373.4748734282
0	1594	529012.184350870659	4565.3653350309
0	1607	531676.069048188115	5799.8898992583
0	1624	535935.015618450689	7316.1507285957
0	1641	544444.181134516284	11684.574020976
0	1659	556921.301578095035	15477.278767121
0	1676	563113.590611472473	9318.9338909849
0	1697	571635.948582683705	11632.574834324
0	1718	574522.174342350028	6095.5800127961
0	1735	576379.580580237167	4773.0704979228
0	1751	578172.826724750733	4999.4247033054
0	1759	579891.258033037334	4920.8584092044
0	1776	584861.411656042092	7931.2412205095
0	1801	591140.613515510376	9442.8000680269
0	1809	592250.390545435496	4133.5584027484
0	1826	597249.226644428313	8196.0129533625
0	1843	602968.850114424744	8760.9638586225
0	1864	612414.342730242012	12190.964021043
0	1877	615067.004750352599	5752.3080881484
0	1894	621112.313460497457	8804.7536888626
0	1915	633249.044125435851	15036.29627558
0	1929	636324.667805466946	6564.5048902075
0	1945	640644.944939990258	8152.868125459
0	1964	654394.282087450003	16597.373314348
0	1993	666404.15102903566	14742.809674461
0	2006	667805.64766310641	4824.9320838348
0	2014	669158.409622284453	4952.942712263
0	2035	681997.314800461262	15768.834786542
0	2052	684970.910638961585	6022.572485282
0	2065	687963.185730042113	5966.8926230085
0	2091	700401.641221410662	15947.918254573
0	2100	702146.40148146884	4807.5013526382
0	2117	713430.905106741272	14187.062812142
0	2134	719884.305640460184	9339.7562547432
0	2155	726384.488545384791	9505.0254997144
0	2168	728950.937373943319	5609.3065250707
0	2185	736075.991008279248	9830.9379729632
0	2203	744236.344450983581	11237.970003773
0	2228	752521.5887714818	10976.363792121
0	2239	753773.288823086982	4367.5294176535
0	2264	756843.171437963685	6257.4395428824
0	2269	757860.991658481432	4448.3552731352
0	2286	762616.214251314695	7895.0105752584
0	2304	778941.579031389343	19462.056520425
0	2321	783261.804792842793	7299.3933438454
0	2350	793526.855795122073	13338.789420063
0	2355	794396.52038130748	3854.8553975985
0	2399	798053.184755099955	2986.4975159618
0	2410	799030.040744984619	8212.2900906749
0	2415	799951.274737984686	4740.0126433681
0	2420	800829.433713007279	4729.5669124919
0	2438	813154.943694972632	16700.723396098
0	2456	822282.885206848616	12107.561005431
0	2473	830513.197879947127	11400.680482237
0	2490	836570.262389252013	8836.7396371421
0	2508	846677.745923964345	13047.196094577
0	2524	850608.872604424507	6975.4780748298
0	2544	854168.67957350758	6537.1333081624
0	2557	857099.864911277666	5916.1719192013
0	2574	860403.641206120055	6994.8856803853
0	2591	865338.075676378418	7990.8400232263
0	2609	877647.68947334553	15395.289833229
0	2637	882814.567883649869	8146.5665339961
0	2642	883664.977728915099	3815.9165852401
0	2659	893277.341551535794	12795.196158351
0	2677	905069.824810717023	14804.054183653
0	2696	919376.101495337525	17062.050892407
0	2713	924204.116951280742	7912.7452796524
0	2729	928710.447844356316	7771.2253921918
0	2748	944663.236528881665	18852.470946064
0	2765	951272.277457465144	9351.6998303548
0	2783	962980.981853779359	14852.636504197
0	2800	967079.908529831798	7350.5387853504
0	2820	993709.005849237873	29645.071947317
0	2837	998186.530915723186	7382.8558356345
0	2863	1008621.172107308691	14111.227483667
0	2871	1010333.562584883309	4480.4231327638
0	2892	1024161.69924428449	17129.006814191
0	2906	1027039.94793957099	6082.0164910325
0	2923	1035589.752026241055	12067.012531459
0	2940	1042175.86681799237	9405.7873752208
0	2957	1046963.460572528716	7540.3279459943
1	565	201633.18215194301	33.63334582663
1	583	213030.663923425152	0
1	601	222934.3400222698	0
1	618	230561.5809174538	0
1	626	232406.526136016353	0
1	642	233747.985043279784	295.77901954564
1	668	243157.19746803195	0
1	685	247491.4088196595	0
1	702	252320.402457991504	0
1	719	258397.393246385118	0
1	727	258764.799881716573	0
1	751	263489.479338245733	0
1	768	266492.539373379553	0
1	784	269490.528069927219	401.50002284212
1	792	269752.905142802834	16.3984176808
1	812	272452.382802861456	506.55100889259
1	834	280389.242044638601	0
1	852	288069.444988097025	0
1	868	293140.470364852741	0
1	887	311102.294179639647	0
1	905	323613.956093456365	0
1	913	323958.276774404485	0
1	938	327233.861292939651	436.06656849623
1	956	338979.271746754443	0
1	973	342753.279880187522	0
1	981	343063.048150530209	49.840074567454
1	1000	345885.042273582226	835.61255316309
1	1013	346867.557171543454	95.374403885189
1	1021	347192.934745121202	321.63617874138
1	1055	358169.966490479813	0
1	1072	360822.836876536813	146.7243816373
1	1090	377876.079349019949	0
1	1099	379076.671083149748	0
1	1124	387269.334959273566	0
1	1132	388440.465662295387	0
1	1140	389240.125867614262	0
1	1173	392230.519534704129	728.76757727083
1	1189	395597.171829419662	0
1	1206	399346.158574049394	0
1	1223	404003.91209519586	0
1	1241	415513.54234259963	0
1	1249	416274.56931167791	0
1	1274	420448.633393588248	0
1	1291	430078.898280008018	0
1	1311	452686.87855065911	0
1	1328	456614.123139132179	0
1	1344	460895.702465481081	0
1	1353	462871.555748389493	0
1	1377	465462.324622924616	197.89761517976
1	1395	478115.83165308654	0
1	1404	480177.502112880526	0
1	1429	491668.943570589882	0
1	1447	500560.277464003004	0
1	1464	504500.023029101452	0
1	1472	505904.28681628194	0
1	1497	510433.232759862372	0
1	1514	516326.458353745098	0
1	1522	518725.645511840148	0
1	1547	522839.225472403689	0
1	1555	524446.819015839716	0
1	1571	526031.432450406116	155.25330147627
1	1596	529012.184350870659	393.31946101566
1	1612	532759.607113540783	0
1	1630	541444.022810974407	0
1	1648	553794.656720487589	0
1	1665	560003.373748359421	0
1	1682	568426.594329553899	0
1	1699	571635.948582683705	29.438500369303
1	1707	573173.402021445307	0
1	1723	574970.399623832912	0
1	1740	576930.170435532554	0
1	1764	581697.813447483432	0
1	1782	588116.83214268714	0
1	1790	589053.213691065794	0
1	1815	594207.886255802262	0
1	1832	600223.378709199476	0
1	1849	609314.696662204244	0
1	1866	612414.342730242012	106.78295860716
1	1883	618212.74784985616	0
1	1900	629760.162915259424	0
1	1917	633249.044125435851	756.96731090462
1	1934	637796.908773102152	0
1	1952	651661.34135457487	0
1	1970	662980.715579271622	0
1	1978	664205.466910021447	0
1	1995	666404.15102903566	175.67101511666
1	2021	678948.338153679546	0
1	2037	681997.314800461262	1.021693427605
1	2054	684970.910638961585	517.18767212428
1	2072	697338.900128830671	0
1	2080	699243.842294599139	0
1	2106	710544.549385716949	0
1	2123	716879.463045670407	0
1	2140	723341.630848872637	0
1	2157	726384.488545384791	139.43551006871
1	2174	732998.374447210553	0
1	2191	741545.224979360793	0
1	2208	749405.759405433505	0
1	2217	750585.731895081312	0
1	2241	753773.288823086982	360.65243774071
1	2249	754721.203676056261	0
1	2274	759479.522510964089	0
1	2293	775962.411448997387	0
1	2310	780188.06637505931	0
1	2327	790541.664983708936	0
1	2335	790837.940497576378	20.189843266632
1	2360	795066.68723913816	0
1	2368	795371.55096148239	160.2888668658
1	2376	796099.866800515331	0
1	2384	796454.220298874311	0
1	2427	810175.324201417987	0
1	2444	819112.517397710207	0
1	2461	827733.522752109897	0
1	2478	833630.549829387789	0
1	2496	843633.394529594697	0
1	2513	847631.546265345164	0
1	2529	851183.692992076328	0
1	2546	854168.67957350758	759.92404777281
1	2562	857347.235653152087	0
1	2579	862252.399640116485	0
1	2597	874668.001349653785	0
1	2614	879849.061143674991	0
1	2622	880482.145393184955	0
1	2648	890265.770627064447	0
1	2666	902314.050602930879	0
1	2684	916291.371671628319	0
1	2701	920939.222452164477	0
1	2718	925810.765582818001	0
1	2736	941920.577627110379	0
1	2754	948128.345349582367	0
1	2771	959729.369744481445	0
1	2788	964063.933901920631	0
1	2809	990803.675080088679	0
1	2825	994509.944623641204	0
1	2843	1005853.139452119512	0
1	2851	1007032.692430093877	0
1	2878	1020957.931448538459	0
1	2894	1024161.69924428449	638.95974950262
1	2912	1032770.079442771587	0
1	2929	1039423.132626534417	0
1	2946	1044093.408910522457	0
2	560	201599.54880611638	1
2	565	201633.18215194301	0
2	581	213030.663923425152	1
2	583	213030.663923425152	0
2	599	222934.3400222698	1
2	601	222934.3400222698	0
2	616	230561.5809174538	1
2	618	230561.5809174538	0
2	624	232406.526136016353	1
2	626	232406.526136016353	0
2	637	233452.20602373414	1
2	642	233747.985043279784	0
2	666	243157.19746803195	1
2	668	243157.19746803195	0
2	683	247491.4088196595	1
2	685	247491.4088196595	0
2	700	252320.402457991504	1
2	702	252320.402457991504	0
2	717	258397.393246385118	1
2	719	258397.393246385118	0
2	725	258764.799881716573	1
2	727	258764.799881716573	0
2	749	263489.479338245733	1
2	751	263489.479338245733	0
2	766	266492.539373379553	1
2	768	266492.539373379553	0
2	779	269089.028047085098	1
2	784	269490.528069927219	0
2	787	269736.506725122034	1
2	792	269752.905142802834	0
2	807	271945.831793968871	1
2	812	272452.382802861456	0
2	832	280389.242044638601	1
2	834	280389.242044638601	0
2	850	288069.444988097025	1
2	852	288069.444988097025	0
2	866	293140.470364852741	1
2	868	293140.470364852741	0
2	885	311102.294179639647	1
2	887	311102.294179639647	0
2	903	323613.956093456365	1
2	905	323613.956093456365	0
2	911	323958.276774404485	1
2	913	323958.276774404485	0
2	933	326797.794724443423	1
2	938	327233.861292939651	0
2	954	338979.271746754443	1
2	956	338979.271746754443	0
2	971	342753.279880187522	1
2	973	342753.279880187522	0
2	976	343013.208075962755	1
2	981	343063.048150530209	0
2	992	345049.429720419135	1
2	1000	345885.042273582226	0
2	1008	346772.182767658265	1
2	1013	346867.557171543454	0
2	1016	346871.298566379821	1
2	1021	347192.934745121202	0
2	1053	358169.966490479813	1
2	1055	358169.966490479813	0
2	1067	360676.112494899509	1
2	1072	360822.836876536813	0
2	1088	377876.079349019949	1
2	1090	377876.079349019949	0
2	1097	379076.671083149748	1
2	1099	379076.671083149748	0
2	1122	387269.334959273566	1
2	1124	387269.334959273566	0
2	1130	388440.465662295387	1
2	1132	388440.465662295387	0
2	1138	389240.125867614262	1
2	1140	389240.125867614262	0
2	1168	391501.751957433298	1
2	1173	392230.519534704129	0
2	1187	395597.171829419662	1
2	1189	395597.171829419662	0
2	1204	399346.158574049394	1
2	1206	399346.158574049394	0
2	1221	404003.91209519586	1
2	1223	404003.91209519586	0
2	1239	415513.54234259963	1
2	1241	415513.54234259963	0
2	1247	416274.56931167791	1
2	1249	416274.56931167791	0
2	1272	420448.633393588248	1
2	1274	420448.633393588248	0
2	1289	430078.898280008018	1
2	1291	430078.898280008018	0
2	1309	452686.87855065911	1
2	1311	452686.87855065911	0
2	1326	456614.123139132179	1
2	1328	456614.123139132179	0
2	1342	460895.702465481081	1
2	1344	460895.702465481081	0
2	1351	462871.555748389493	1
2	1353	462871.555748389493	0
2	1372	465264.427007744852	1
2	1377	465462.324622924616	0
2	1393	478115.83165308654	1
2	1395	478115.83165308654	0
2	1402	480177.502112880526	1
2	1404	480177.502112880526	0
2	1427	491668.943570589882	1
2	1429	491668.943570589882	0
2	1445	500560.277464003004	1
2	1447	500560.277464003004	0
2	1462	504500.023029101452	1
2	1464	504500.023029101452	0
2	1470	505904.28681628194	1
2	1472	505904.28681628194	0
2	1495	510433.232759862372	1
2	1497	510433.232759862372	0
2	1512	516326.458353745098	1
2	1514	516326.458353745098	0
2	1520	518725.645511840148	1
2	1522	518725.645511840148	0
2	1545	522839.225472403689	1
2	1547	522839.225472403689	0
2	1553	524446.819015839716	1
2	1555	524446.819015839716	0
2	1566	525876.179148929841	1
2	1571	526031.432450406116	0
2	1591	528618.864889855004	1
2	1596	529012.184350870659	0
2	1610	532759.607113540783	1
2	1612	532759.607113540783	0
2	1628	541444.022810974407	1
2	1630	541444.022810974407	0
2	1646	553794.656720487589	1
2	1648	553794.656720487589	0
2	1663	560003.373748359421	1
2	1665	560003.373748359421	0
2	1680	568426.594329553899	1
2	1682	568426.594329553899	0
2	1694	571606.510082314402	1
2	1699	571635.948582683705	0
2	1705	573173.402021445307	1
2	1707	573173.402021445307	0
2	1721	574970.399623832912	1
2	1723	574970.399623832912	0
2	1738	576930.170435532554	1
2	1740	576930.170435532554	0
2	1762	581697.813447483432	1
2	1764	581697.813447483432	0
2	1780	588116.83214268714	1
2	1782	588116.83214268714	0
2	1788	589053.213691065794	1
2	1790	589053.213691065794	0
2	1813	594207.886255802262	1
2	1815	594207.886255802262	0
2	1830	600223.378709199476	1
2	1832	600223.378709199476	0
2	1847	609314.696662204244	1
2	1849	609314.696662204244	0
2	1861	612307.559771634856	1
2	1866	612414.342730242012	0
2	1881	618212.74784985616	1
2	1883	618212.74784985616	0
2	1898	629760.162915259424	1
2	1900	629760.162915259424	0
2	1912	632492.076814531232	1
2	1917	633249.044125435851	0
2	1932	637796.908773102152	1
2	1934	637796.908773102152	0
2	1950	651661.34135457487	1
2	1952	651661.34135457487	0
2	1968	662980.715579271622	1
2	1970	662980.715579271622	0
2	1976	664205.466910021447	1
2	1978	664205.466910021447	0
2	1990	666228.480013918996	1
2	1995	666404.15102903566	0
2	2019	678948.338153679546	1
2	2021	678948.338153679546	0
2	2032	681996.293107033657	1
2	2037	681997.314800461262	0
2	2049	684453.722966837307	1
2	2054	684970.910638961585	0
2	2070	697338.900128830671	1
2	2072	697338.900128830671	0
2	2078	699243.842294599139	1
2	2080	699243.842294599139	0
2	2104	710544.549385716949	1
2	2106	710544.549385716949	0
2	2121	716879.463045670407	1
2	2123	716879.463045670407	0
2	2138	723341.630848872637	1
2	2140	723341.630848872637	0
2	2152	726245.053035316077	1
2	2157	726384.488545384791	0
2	2172	732998.374447210553	1
2	2174	732998.374447210553	0
2	2189	741545.224979360793	1
2	2191	741545.224979360793	0
2	2206	749405.759405433505	1
2	2208	749405.759405433505	0
2	2215	750585.731895081312	1
2	2217	750585.731895081312	0
2	2236	753412.63638534627	1
2	2241	753773.288823086982	0
2	2247	754721.203676056261	1
2	2249	754721.203676056261	0
2	2272	759479.522510964089	1
2	2274	759479.522510964089	0
2	2291	775962.411448997387	1
2	2293	775962.411448997387	0
2	2308	780188.06637505931	1
2	2310	780188.06637505931	0
2	2325	790541.664983708936	1
2	2327	790541.664983708936	0
2	2330	790817.750654309746	1
2	2335	790837.940497576378	0
2	2358	795066.68723913816	1
2	2360	795066.68723913816	0
2	2363	795211.262094616591	1
2	2368	795371.55096148239	0
2	2374	796099.866800515331	1
2	2376	796099.866800515331	0
2	2382	796454.220298874311	1
2	2384	796454.220298874311	0
2	2425	810175.324201417987	1
2	2427	810175.324201417987	0
2	2442	819112.517397710207	1
2	2444	819112.517397710207	0
2	2459	827733.522752109897	1
2	2461	827733.522752109897	0
2	2476	833630.549829387789	1
2	2478	833630.549829387789	0
2	2494	843633.394529594697	1
2	2496	843633.394529594697	0
2	2511	847631.546265345164	1
2	2513	847631.546265345164	0
2	2527	851183.692992076328	1
2	2529	851183.692992076328	0
2	2541	853408.755525734768	1
2	2546	854168.67957350758	0
2	2560	857347.235653152087	1
2	2562	857347.235653152087	0
2	2577	862252.399640116485	1
2	2579	862252.399640116485	0
2	2595	874668.001349653785	1
2	2597	874668.001349653785	0
2	2612	879849.061143674991	1
2	2614	879849.061143674991	0
2	2620	880482.145393184955	1
2	2622	880482.145393184955	0
2	2646	890265.770627064447	1
2	2648	890265.770627064447	0
2	2664	902314.050602930879	1
2	2666	902314.050602930879	0
2	2682	916291.371671628319	1
2	2684	916291.371671628319	0
2	2699	920939.222452164477	1
2	2701	920939.222452164477	0
2	2716	925810.765582818001	1
2	2718	925810.765582818001	0
2	2734	941920.577627110379	1
2	2736	941920.577627110379	0
2	2752	948128.345349582367	1
2	2754	948128.345349582367	0
2	2769	959729.369744481445	1
2	2771	959729.369744481445	0
2	2786	964063.933901920631	1
2	2788	964063.933901920631	0
2	2807	990803.675080088679	1
2	2809	990803.675080088679	0
2	2823	994509.944623641204	1
2	2825	994509.944623641204	0
2	2841	1005853.139452119512	1
2	2843	1005853.139452119512	0
2	2849	1007032.692430093877	1
2	2851	1007032.692430093877	0
2	2876	1020957.931448538459	1
2	2878	1020957.931448538459	0
2	2889	1023522.739494781871	1
2	2894	1024161.69924428449	0
2	2910	1032770.079442771587	1
2	2912	1032770.079442771587	0
2	2927	1039423.132626534417	1
2	2929	1039423.132626534417	0
2	2944	1044093.408910522457	1
2	2946	1044093.408910522457	0
3	549	199660.150798987584	2197.0414423097
3	557	200557.345066877185	0
3	573	203615.725026604772	0
3	591	215062.807448069045	0
3	609	224986.312162935491	0
3	634	232861.030317138407	0
3	651	234650.584162859486	0
3	659	235567.537759966174	0
3	676	245550.086193197564	0
3	693	249698.115106418115	0
3	710	254603.597936404743	0
3	735	260590.801780203656	0
3	743	261307.987667773969	117.72149198054
3	760	265622.215865429909	0
3	776	268573.444797130035	0
3	801	271544.826550542888	0
3	817	272767.588014785765	1019.2000627167
3	825	274411.077686429344	0
3	843	282640.183097931826	0
3	860	290053.676136008387	0
3	877	295241.657173614022	0
3	896	313114.856215169156	0
3	922	325630.93551285025	0
3	930	326526.957654348031	269.39127043988
3	946	329332.31683648982	0
3	964	340806.463661429679	0
3	989	344945.120737681584	0
3	1005	346156.056940326753	951.92367237462
3	1030	348051.513490239378	0
3	1038	349099.790009593226	0
3	1046	350030.856237294618	805.56511469972
3	1064	360026.602342736804	0
3	1080	362735.788793164979	0
3	1107	379860.306501552665	0
3	1115	381135.575063806226	0
3	1148	389524.386473093447	37.570719178023
3	1157	390458.187448997061	10.382798958169
3	1165	391358.290080176625	0
3	1181	394523.750534872529	0
3	1198	397548.345442062173	0
3	1214	401717.954873445127	0
3	1231	406228.866602350902	0
3	1257	417727.89215145485	0
3	1265	418516.820406422397	105.87922160626
3	1282	422847.207472477324	0
3	1300	432191.401191441472	0
3	1319	454573.869502680187	0
3	1336	458910.242439266505	0
3	1361	463169.330739369102	271.34603808097
3	1369	464530.807828817532	0
3	1385	467658.620094818495	0
3	1412	480471.768772317217	225.41466216827
3	1420	482367.434267106887	0
3	1438	494035.565655815857	0
3	1455	502279.947755345415	0
3	1480	506678.161531223152	0
3	1488	507986.23611645086	0
3	1505	512580.159250186304	0
3	1530	519068.829873288949	279.46385187505
3	1538	520803.115267754256	0
3	1563	524930.108218224399	0
3	1579	526329.764703060183	0
3	1588	528094.01969763508	0
3	1604	530735.636714688601	0
3	1621	535032.570296473829	0
3	1638	543659.202354809079	0
3	1656	555953.948104348944	0
3	1673	562062.727616792124	0
3	1691	570676.850519242117	0
3	1715	573628.114756048702	0
3	1731	575496.135589892975	0
3	1748	577225.066480393332	0
3	1756	579052.543049640534	0
3	1773	583723.059019234557	0
3	1798	590221.691907732587	0
3	1806	591363.966747808859	0
3	1823	596323.883391587888	0
3	1840	602201.636884192601	0
3	1857	611459.786037918035	0
3	1874	614404.159010192659	0
3	1891	620083.292297467386	0
3	1909	632189.900603722351	0
3	1925	635408.084945295199	0
3	1942	639891.250629867387	0
3	1960	653448.587611004918	0
3	1986	665360.009565744674	0
3	2003	666711.945530257985	222.5250670718
3	2011	668345.593007777688	0
3	2029	681136.191636790597	0
3	2045	683964.97774278552	0
3	2062	687038.84394593384	0
3	2088	699526.384886590389	74.345146962869
3	2096	701286.179123316822	0
3	2114	712552.821620593042	0
3	2131	718877.70913709019	0
3	2148	725458.326542284053	0
3	2165	728251.455742481961	0
3	2182	735104.003378144542	0
3	2199	743378.32146800353	0
3	2225	751752.53723590014	0
3	2233	752812.75387113477	0
3	2257	755850.911552134786	0
3	2266	756843.171437963685	130.3264738862
3	2282	761711.314906305319	0
3	2301	778016.01819466926	0
3	2318	782468.914529793215	0
3	2344	792573.959580641789	0
3	2352	793526.855795122073	700.11224769339
3	2392	797134.036121574962	0
3	2401	798053.184755099955	710.17034641799
3	2412	799030.040744984619	483.99989679258
3	2417	799951.274737984686	1049.41481278
3	2435	812377.810350258207	0
3	2452	821354.237268231672	0
3	2470	829669.408658492309	0
3	2487	835703.252387079318	0
3	2504	845770.397227619603	0
3	2521	849735.764582240826	0
3	2538	853246.082752030006	0
3	2554	856379.686506210977	0
3	2571	859627.701338520533	0
3	2588	864438.65319462158	0
3	2606	876852.374107559305	0
3	2630	881960.817443598838	0
3	2639	882814.567883649869	124.89630823137
3	2656	892232.383583612884	0
3	2674	904270.103122831199	0
3	2693	918411.528329640504	0
3	2709	923266.672350992707	0
3	2726	927877.748448240017	0
3	2745	943975.786370353747	0
3	2762	950313.49010548869	0
3	2780	962000.787613681128	0
3	2797	966286.295789133616	0
3	2817	992792.061226140378	0
3	2834	997011.723622117484	0
3	2859	1007757.286877621676	0
3	2868	1009417.552800963859	0
3	2886	1023183.683392569504	0
3	2903	1026093.006179633827	0
3	2920	1034637.039818830493	0
3	2937	1041235.280512129199	0
3	2954	1046183.656411250613	0
4	549	199660.150798987584	0
4	555	200557.345066877185	1
4	557	200557.345066877185	0
4	571	203615.725026604772	1
4	573	203615.725026604772	0
4	589	215062.807448069045	1
4	591	215062.807448069045	0
4	607	224986.312162935491	1
4	609	224986.312162935491	0
4	632	232861.030317138407	1
4	634	232861.030317138407	0
4	649	234650.584162859486	1
4	651	234650.584162859486	0
4	657	235567.537759966174	1
4	659	235567.537759966174	0
4	674	245550.086193197564	1
4	676	245550.086193197564	0
4	691	249698.115106418115	1
4	693	249698.115106418115	0
4	708	254603.597936404743	1
4	710	254603.597936404743	0
4	733	260590.801780203656	1
4	735	260590.801780203656	0
4	738	261190.266175793425	1
4	743	261307.987667773969	0
4	758	265622.215865429909	1
4	760	265622.215865429909	0
4	774	268573.444797130035	1
4	776	268573.444797130035	0
4	799	271544.826550542888	1
4	801	271544.826550542888	0
4	804	271748.387952069109	1
4	817	272767.588014785765	0
4	823	274411.077686429344	1
4	825	274411.077686429344	0
4	841	282640.183097931826	1
4	843	282640.183097931826	0
4	858	290053.676136008387	1
4	860	290053.676136008387	0
4	875	295241.657173614022	1
4	877	295241.657173614022	0
4	894	313114.856215169156	1
4	896	313114.856215169156	0
4	920	325630.93551285025	1
4	922	325630.93551285025	0
4	925	326257.566383908146	1
4	930	326526.957654348031	0
4	944	329332.31683648982	1
4	946	329332.31683648982	0
4	962	340806.463661429679	1
4	964	340806.463661429679	0
4	987	344945.120737681584	1
4	989	344945.120737681584	0
4	995	345204.133267952133	1
4	1005	346156.056940326753	0
4	1028	348051.513490239378	1
4	1030	348051.513490239378	0
4	1036	349099.790009593226	1
4	1038	349099.790009593226	0
4	1041	349225.291122594896	1
4	1046	350030.856237294618	0
4	1062	360026.602342736804	1
4	1064	360026.602342736804	0
4	1078	362735.788793164979	1
4	1080	362735.788793164979	0
4	1105	379860.306501552665	1
4	1107	379860.306501552665	0
4	1113	381135.575063806226	1
4	1115	381135.575063806226	0
4	1143	389486.815753915424	1
4	1148	389524.386473093447	0
4	1152	390447.804650038892	1
4	1157	390458.187448997061	0
4	1163	391358.290080176625	1
4	1165	391358.290080176625	0
4	1179	394523.750534872529	1
4	1181	394523.750534872529	0
4	1196	397548.345442062173	1
4	1198	397548.345442062173	0
4	1212	401717.954873445127	1
4	1214	401717.954873445127	0
4	1229	406228.866602350902	1
4	1231	406228.866602350902	0
4	1255	417727.89215145485	1
4	1257	417727.89215145485	0
4	1260	418410.941184816134	1
4	1265	418516.820406422397	0
4	1280	422847.207472477324	1
4	1282	422847.207472477324	0
4	1298	432191.401191441472	1
4	1300	432191.401191441472	0
4	1317	454573.869502680187	1
4	1319	454573.869502680187	0
4	1334	458910.242439266505	1
4	1336	458910.242439266505	0
4	1356	462897.984701288131	1
4	1361	463169.330739369102	0
4	1367	464530.807828817532	1
4	1369	464530.807828817532	0
4	1383	467658.620094818495	1
4	1385	467658.620094818495	0
4	1407	480246.354110148951	1
4	1412	480471.768772317217	0
4	1418	482367.434267106887	1
4	1420	482367.434267106887	0
4	1436	494035.565655815857	1
4	1438	494035.565655815857	0
4	1453	502279.947755345415	1
4	1455	502279.947755345415	0
4	1478	506678.161531223152	1
4	1480	506678.161531223152	0
4	1486	507986.23611645086	1
4	1488	507986.23611645086	0
4	1503	512580.159250186304	1
4	1505	512580.159250186304	0
4	1525	518789.366021413901	1
4	1530	519068.829873288949	0
4	1536	520803.115267754256	1
4	1538	520803.115267754256	0
4	1561	524930.108218224399	1
4	1563	524930.108218224399	0
4	1577	526329.764703060183	1
4	1579	526329.764703060183	0
4	1586	528094.01969763508	1
4	1588	528094.01969763508	0
4	1602	530735.636714688601	1
4	1604	530735.636714688601	0
4	1619	535032.570296473829	1
4	1621	535032.570296473829	0
4	1636	543659.202354809079	1
4	1638	543659.202354809079	0
4	1654	555953.948104348944	1
4	1656	555953.948104348944	0
4	1671	562062.727616792124	1
4	1673	562062.727616792124	0
4	1689	570676.850519242117	1
4	1691	570676.850519242117	0
4	1713	573628.114756048702	1
4	1715	573628.114756048702	0
4	1729	575496.135589892975	1
4	1731	575496.135589892975	0
4	1746	577225.066480393332	1
4	1748	577225.066480393332	0
4	1754	579052.543049640534	1
4	1756	579052.543049640534	0
4	1771	583723.059019234557	1
4	1773	583723.059019234557	0
4	1796	590221.691907732587	1
4	1798	590221.691907732587	0
4	1804	591363.966747808859	1
4	1806	591363.966747808859	0
4	1821	596323.883391587888	1
4	1823	596323.883391587888	0
4	1838	602201.636884192601	1
4	1840	602201.636884192601	0
4	1855	611459.786037918035	1
4	1857	611459.786037918035	0
4	1872	614404.159010192659	1
4	1874	614404.159010192659	0
4	1889	620083.292297467386	1
4	1891	620083.292297467386	0
4	1907	632189.900603722351	1
4	1909	632189.900603722351	0
4	1923	635408.084945295199	1
4	1925	635408.084945295199	0
4	1940	639891.250629867387	1
4	1942	639891.250629867387	0
4	1958	653448.587611004918	1
4	1960	653448.587611004918	0
4	1984	665360.009565744674	1
4	1986	665360.009565744674	0
4	1998	666489.420463186188	1
4	2003	666711.945530257985	0
4	2009	668345.593007777688	1
4	2011	668345.593007777688	0
4	2027	681136.191636790597	1
4	2029	681136.191636790597	0
4	2043	683964.97774278552	1
4	2045	683964.97774278552	0
4	2060	687038.84394593384	1
4	2062	687038.84394593384	0
4	2083	699452.03973962752	1
4	2088	699526.384886590389	0
4	2094	701286.179123316822	1
4	2096	701286.179123316822	0
4	2112	712552.821620593042	1
4	2114	712552.821620593042	0
4	2129	718877.70913709019	1
4	2131	718877.70913709019	0
4	2146	725458.326542284053	1
4	2148	725458.326542284053	0
4	2163	728251.455742481961	1
4	2165	728251.455742481961	0
4	2180	735104.003378144542	1
4	2182	735104.003378144542	0
4	2197	743378.32146800353	1
4	2199	743378.32146800353	0
4	2223	751752.53723590014	1
4	2225	751752.53723590014	0
4	2231	752812.75387113477	1
4	2233	752812.75387113477	0
4	2255	755850.911552134786	1
4	2257	755850.911552134786	0
4	2261	756712.844964077481	1
4	2266	756843.171437963685	0
4	2280	761711.314906305319	1
4	2282	761711.314906305319	0
4	2299	778016.01819466926	1
4	2301	778016.01819466926	0
4	2316	782468.914529793215	1
4	2318	782468.914529793215	0
4	2342	792573.959580641789	1
4	2344	792573.959580641789	0
4	2347	792826.74354742868	1
4	2352	793526.855795122073	0
4	2390	797134.036121574962	1
4	2392	797134.036121574962	0
4	2395	797343.014408681966	1
4	2401	798053.184755099955	0
4	2404	798546.040848192039	1
4	2407	798901.859925204718	2
4	2412	799030.040744984619	1
4	2417	799951.274737984686	0
4	2433	812377.810350258207	1
4	2435	812377.810350258207	0
4	2450	821354.237268231672	1
4	2452	821354.237268231672	0
4	2468	829669.408658492309	1
4	2470	829669.408658492309	0
4	2485	835703.252387079318	1
4	2487	835703.252387079318	0
4	2502	845770.397227619603	1
4	2504	845770.397227619603	0
4	2519	849735.764582240826	1
4	2521	849735.764582240826	0
4	2536	853246.082752030006	1
4	2538	853246.082752030006	0
4	2552	856379.686506210977	1
4	2554	856379.686506210977	0
4	2569	859627.701338520533	1
4	2571	859627.701338520533	0
4	2586	864438.65319462158	1
4	2588	864438.65319462158	0
4	2604	876852.374107559305	1
4	2606	876852.374107559305	0
4	2628	881960.817443598838	1
4	2630	881960.817443598838	0
4	2634	882689.671575418496	1
4	2639	882814.567883649869	0
4	2654	892232.383583612884	1
4	2656	892232.383583612884	0
4	2672	904270.103122831199	1
4	2674	904270.103122831199	0
4	2691	918411.528329640504	1
4	2693	918411.528329640504	0
4	2707	923266.672350992707	1
4	2709	923266.672350992707	0
4	2724	927877.748448240017	1
4	2726	927877.748448240017	0
4	2743	943975.786370353747	1
4	2745	943975.786370353747	0
4	2760	950313.49010548869	1
4	2762	950313.49010548869	0
4	2778	962000.787613681128	1
4	2780	962000.787613681128	0
4	2795	966286.295789133616	1
4	2797	966286.295789133616	0
4	2815	992792.061226140378	1
4	2817	992792.061226140378	0
4	2832	997011.723622117484	1
4	2834	997011.723622117484	0
4	2857	1007757.286877621676	1
4	2859	1007757.286877621676	0
4	2866	1009417.552800963859	1
4	2868	1009417.552800963859	0
4	2884	1023183.683392569504	1
4	2886	1023183.683392569504	0
4	2901	1026093.006179633827	1
4	2903	1026093.006179633827	0
4	2918	1034637.039818830493	1
4	2920	1034637.039818830493	0
4	2935	1041235.280512129199	1
4	2937	1041235.280512129199	0
4	2952	1046183.656411250613	1
4	2954	1046183.656411250613	0
5	575	204000	2
5	579	210000	0
5	596	216000	1
5	597	222000	0
5	614	228000	1
5	647	234000	3
5	664	240000	0
5	678	246000	1
5	698	252000	1
5	715	258000	1
5	756	264000	3
5	797	270000	3
5	830	276000	1
5	839	282000	1
5	848	288000	0
5	873	294000	2
5	882	300000	0
5	883	306000	0
5	892	312000	1
5	901	318000	0
5	915	324000	1
5	948	330000	2
5	952	336000	0
5	969	342000	1
5	1026	348000	5
5	1051	354000	0
5	1060	360000	1
5	1085	366000	1
5	1086	372000	0
5	1092	378000	0
5	1120	384000	2
5	1150	390000	3
5	1194	396000	2
5	1216	402000	1
5	1236	408000	1
5	1237	414000	0
5	1270	420000	2
5	1287	426000	1
5	1296	432000	1
5	1305	438000	0
5	1306	444000	0
5	1307	450000	0
5	1324	456000	1
5	1349	462000	2
5	1387	468000	2
5	1391	474000	0
5	1400	480000	1
5	1425	486000	1
5	1434	492000	1
5	1443	498000	0
5	1460	504000	1
5	1493	510000	2
5	1510	516000	1
5	1543	522000	2
5	1584	528000	3
5	1617	534000	2
5	1626	540000	0
5	1643	546000	1
5	1644	552000	0
5	1661	558000	1
5	1678	564000	1
5	1687	570000	1
5	1733	576000	3
5	1766	582000	1
5	1778	588000	1
5	1811	594000	2
5	1828	600000	1
5	1845	606000	1
5	1859	612000	1
5	1879	618000	1
5	1896	624000	1
5	1902	630000	0
5	1927	636000	2
5	1947	642000	1
5	1948	648000	0
5	1962	654000	1
5	1966	660000	0
5	1988	666000	2
5	2016	672000	1
5	2017	678000	0
5	2047	684000	2
5	2067	690000	1
5	2068	696000	0
5	2098	702000	2
5	2102	708000	0
5	2119	714000	1
5	2136	720000	1
5	2150	726000	1
5	2170	732000	1
5	2187	738000	1
5	2201	744000	1
5	2213	750000	1
5	2259	756000	3
5	2284	762000	1
5	2288	768000	0
5	2289	774000	0
5	2306	780000	1
5	2323	786000	1
5	2340	792000	2
5	2397	798000	4
5	2422	804000	0
5	2423	810000	0
5	2440	816000	1
5	2454	822000	1
5	2463	828000	0
5	2483	834000	2
5	2492	840000	0
5	2506	846000	1
5	2534	852000	2
5	2567	858000	2
5	2584	864000	1
5	2593	870000	0
5	2602	876000	1
5	2632	882000	2
5	2644	888000	0
5	2661	894000	1
5	2662	900000	0
5	2679	906000	1
5	2680	912000	0
5	2689	918000	1
5	2711	924000	1
5	2731	930000	1
5	2732	936000	0
5	2738	942000	0
5	2750	948000	1
5	2767	954000	1
5	2773	960000	0
5	2793	966000	2
5	2802	972000	0
5	2803	978000	0
5	2804	984000	0
5	2805	990000	0
5	2830	996000	2
5	2839	1002000	0
5	2861	1008000	2
5	2873	1014000	0
5	2874	1020000	0
5	2899	1026000	2
5	2908	1032000	0
5	2925	1038000	1
5	2942	1044000	1
5	2959	1050000	1
5	2960	1056000	0
5	2961	1062000	0
6	575	204000	4
6	579	210000	1
6	596	216000	1
6	597	222000	0
6	614	228000	1
6	647	234000	1
6	664	240000	2
6	678	246000	0
6	698	252000	2
6	715	258000	1
6	756	264000	2
6	797	270000	2
6	830	276000	3
6	839	282000	0
6	848	288000	1
6	873	294000	1
6	882	300000	1
6	883	306000	0
6	892	312000	0
6	901	318000	1
6	915	324000	0
6	948	330000	2
6	952	336000	1
6	969	342000	1
6	1026	348000	2
6	1051	354000	3
6	1060	360000	0
6	1085	366000	2
6	1086	372000	0
6	1092	378000	0
6	1120	384000	2
6	1150	390000	0
6	1194	396000	4
6	1216	402000	1
6	1236	408000	2
6	1237	414000	0
6	1270	420000	2
6	1287	426000	1
6	1296	432000	0
6	1305	438000	1
6	1306	444000	0
6	1307	450000	0
6	1324	456000	1
6	1349	462000	1
6	1387	468000	2
6	1391	474000	1
6	1400	480000	0
6	1425	486000	2
6	1434	492000	0
6	1443	498000	1
6	1460	504000	1
6	1493	510000	2
6	1510	516000	1
6	1543	522000	2
6	1584	528000	2
6	1617	534000	2
6	1626	540000	1
6	1643	546000	1
6	1644	552000	0
6	1661	558000	1
6	1678	564000	1
6	1687	570000	0
6	1733	576000	2
6	1766	582000	3
6	1778	588000	1
6	1811	594000	2
6	1828	600000	1
6	1845	606000	1
6	1859	612000	0
6	1879	618000	2
6	1896	624000	1
6	1902	630000	0
6	1927	636000	1
6	1947	642000	2
6	1948	648000	0
6	1962	654000	0
6	1966	660000	1
6	1988	666000	0
6	2016	672000	3
6	2017	678000	0
6	2047	684000	1
6	2067	690000	2
6	2068	696000	0
6	2098	702000	1
6	2102	708000	1
6	2119	714000	1
6	2136	720000	1
6	2150	726000	0
6	2170	732000	2
6	2187	738000	1
6	2201	744000	0
6	2213	750000	1
6	2259	756000	2
6	2284	762000	2
6	2288	768000	1
6	2289	774000	0
6	2306	780000	1
6	2323	786000	1
6	2340	792000	0
6	2397	798000	2
6	2422	804000	4
6	2423	810000	0
6	2440	816000	1
6	2454	822000	0
6	2463	828000	1
6	2483	834000	1
6	2492	840000	1
6	2506	846000	0
6	2534	852000	2
6	2567	858000	2
6	2584	864000	1
6	2593	870000	1
6	2602	876000	0
6	2632	882000	1
6	2644	888000	2
6	2661	894000	1
6	2662	900000	0
6	2679	906000	1
6	2680	912000	0
6	2689	918000	0
6	2711	924000	1
6	2731	930000	2
6	2732	936000	0
6	2738	942000	0
6	2750	948000	1
6	2767	954000	1
6	2773	960000	0
6	2793	966000	1
6	2802	972000	1
6	2803	978000	0
6	2804	984000	0
6	2805	990000	0
6	2830	996000	1
6	2839	1002000	1
6	2861	1008000	0
6	2873	1014000	2
6	2874	1020000	0
6	2899	1026000	1
6	2908	1032000	1
6	2925	1038000	1
6	2942	1044000	1
6	2959	1050000	1
6	2960	1056000	0
6	2961	1062000	0
7	554	200557.345066877185	0
7	568	201910.495087572509	1
7	570	203615.725026604772	0
7	586	213365.886121789375	1
7	588	215062.807448069045	0
7	604	223213.105094849126	1
7	606	224986.312162935491	0
7	621	230890.168352701877	1
7	629	232674.769035323545	2
7	631	232861.030317138407	1
7	645	233973.272549451814	2
7	648	234650.584162859486	1
7	656	235567.537759966174	0
7	671	243408.791438280862	1
7	673	245550.086193197564	0
7	688	247813.496607730071	1
7	690	249698.115106418115	0
7	705	252636.263823759206	1
7	707	254603.597936404743	0
7	722	258719.630807586307	1
7	730	259107.240883439664	2
7	732	260590.801780203656	1
7	737	261190.266175793425	0
7	754	263825.062559287353	1
7	757	265622.215865429909	0
7	771	266837.930520512228	1
7	773	268573.444797130035	0
7	790	269752.905142802834	1
7	795	269998.316738971072	2
7	798	271544.826550542888	1
7	803	271748.387952069109	0
7	815	272767.588014785765	1
7	822	274411.077686429344	0
7	837	280648.66568939852	1
7	840	282640.183097931826	0
7	855	288393.481564668875	1
7	857	290053.676136008387	0
7	871	293442.843764667931	1
7	874	295241.657173614022	0
7	890	311370.961089927849	1
7	893	313114.856215169156	0
7	908	323914.049213929077	1
7	917	324232.384350801963	2
7	919	325630.93551285025	1
7	924	326257.566383908146	0
7	941	327552.342226416941	1
7	943	329332.31683648982	0
7	959	339258.879612117019	1
7	961	340806.463661429679	0
7	979	343063.048150530209	1
7	984	343363.205186294593	2
7	986	344945.120737681584	1
7	994	345204.133267952133	0
7	1003	346156.056940326753	1
7	1019	347192.934745121202	2
7	1024	347467.654444850324	3
7	1027	348051.513490239378	2
7	1035	349099.790009593226	1
7	1040	349225.291122594896	0
7	1058	358462.711926776983	1
7	1061	360026.602342736804	0
7	1075	361102.723894481623	1
7	1077	362735.788793164979	0
7	1094	378130.623170024997	1
7	1102	379384.881731622005	2
7	1104	379860.306501552665	1
7	1112	381135.575063806226	0
7	1127	387551.30533063053	1
7	1135	388742.125094709059	2
7	1142	389486.815753915424	1
7	1146	389524.386473093447	2
7	1151	390447.804650038892	1
7	1162	391358.290080176625	0
7	1176	392527.182304812122	1
7	1178	394523.750534872529	0
7	1192	395875.452602094271	1
7	1195	397548.345442062173	0
7	1209	399647.84140823386	1
7	1211	401717.954873445127	0
7	1226	404305.531262892758	1
7	1228	406228.866602350902	0
7	1244	415854.335064889356	1
7	1252	416569.644681733608	2
7	1254	417727.89215145485	1
7	1259	418410.941184816134	0
7	1277	420758.556051940737	1
7	1279	422847.207472477324	0
7	1294	430406.380787811406	1
7	1297	432191.401191441472	0
7	1314	452939.108713826054	1
7	1316	454573.869502680187	0
7	1331	456956.227421848342	1
7	1333	458910.242439266505	0
7	1347	461178.567346970221	1
7	1355	462897.984701288131	0
7	1359	463169.330739369102	1
7	1366	464530.807828817532	0
7	1380	465748.764999354493	1
7	1382	467658.620094818495	0
7	1398	478408.910997302584	1
7	1406	480246.354110148951	0
7	1410	480471.768772317217	1
7	1417	482367.434267106887	0
7	1432	491965.085844806327	1
7	1435	494035.565655815857	0
7	1450	500880.057915107511	1
7	1452	502279.947755345415	0
7	1467	504835.897778350644	1
7	1475	506250.152131354574	2
7	1477	506678.161531223152	1
7	1485	507986.23611645086	0
7	1500	510752.86362423838	1
7	1502	512580.159250186304	0
7	1517	516624.903492937273	1
7	1524	518789.366021413901	0
7	1528	519068.829873288949	1
7	1535	520803.115267754256	0
7	1550	523141.989550065209	1
7	1558	524759.870728004576	2
7	1560	524930.108218224399	1
7	1574	526312.84016224273	2
7	1576	526329.764703060183	1
7	1585	528094.01969763508	0
7	1599	529336.142663201648	1
7	1601	530735.636714688601	0
7	1615	533033.475834368873	1
7	1618	535032.570296473829	0
7	1633	541755.408949755648	1
7	1635	543659.202354809079	0
7	1651	554096.699511054935	1
7	1653	555953.948104348944	0
7	1668	560285.327359994388	1
7	1670	562062.727616792124	0
7	1685	568668.38015534524	1
7	1688	570676.850519242117	0
7	1702	571873.579593845558	1
7	1710	573497.864916989551	2
7	1712	573628.114756048702	1
7	1726	575307.400513002491	2
7	1728	575496.135589892975	1
7	1743	577200.545874843904	2
7	1745	577225.066480393332	1
7	1753	579052.543049640534	0
7	1768	582003.152377754499	1
7	1770	583723.059019234557	0
7	1785	588426.621044992894	1
7	1793	589332.529067329521	2
7	1795	590221.691907732587	1
7	1803	591363.966747808859	0
7	1818	594520.903826302382	1
7	1820	596323.883391587888	0
7	1835	600490.504582125427	1
7	1837	602201.636884192601	0
7	1852	609618.379576321312	1
7	1854	611459.786037918035	0
7	1869	612700.342401635648	1
7	1871	614404.159010192659	0
7	1886	618481.878262525996	1
7	1888	620083.292297467386	0
7	1904	630120.166385795892	1
7	1906	632189.900603722351	0
7	1920	633566.081643306774	1
7	1922	635408.084945295199	0
7	1937	638040.452801316034	1
7	1939	639891.250629867387	0
7	1955	651952.851675429221	1
7	1957	653448.587611004918	0
7	1973	663292.323698260613	1
7	1981	664541.075534376486	2
7	1983	665360.009565744674	1
7	1997	666489.420463186188	0
7	2001	666711.945530257985	1
7	2008	668345.593007777688	0
7	2024	679240.296954416286	1
7	2026	681136.191636790597	0
7	2040	682201.155316358605	1
7	2042	683964.97774278552	0
7	2057	685307.568229636779	1
7	2059	687038.84394593384	0
7	2075	697650.432036762217	1
7	2082	699452.03973962752	0
7	2086	699526.384886590389	1
7	2093	701286.179123316822	0
7	2109	710872.087187129423	1
7	2111	712552.821620593042	0
7	2126	717207.432955028929	1
7	2128	718877.70913709019	0
7	2143	723589.897233016848	1
7	2145	725458.326542284053	0
7	2160	726671.813411758545	1
7	2162	728251.455742481961	0
7	2177	733302.813589020606	1
7	2179	735104.003378144542	0
7	2194	741802.917346641274	1
7	2196	743378.32146800353	0
7	2211	749721.868969278612	1
7	2220	750901.447719511605	2
7	2222	751752.53723590014	1
7	2230	752812.75387113477	0
7	2244	754041.892006005024	1
7	2252	754957.713001172629	2
7	2254	755850.911552134786	1
7	2260	756712.844964077481	0
7	2277	759834.077162441259	1
7	2279	761711.314906305319	0
7	2296	776223.804671957051	1
7	2298	778016.01819466926	0
7	2313	780445.634697955499	1
7	2315	782468.914529793215	0
7	2333	790837.940497576378	1
7	2338	791142.411897216742	2
7	2341	792573.959580641789	1
7	2346	792826.74354742868	0
7	2366	795371.55096148239	1
7	2371	795631.696726712594	2
7	2379	796432.091264153992	3
7	2387	796735.38990581531	4
7	2389	797134.036121574962	3
7	2394	797343.014408681966	2
7	2403	798546.040848192039	1
7	2406	798901.859925204718	0
7	2430	810488.549459860821	1
7	2432	812377.810350258207	0
7	2447	819421.757256571408	1
7	2449	821354.237268231672	0
7	2465	828058.223716052857	1
7	2467	829669.408658492309	0
7	2481	833880.801078354981	1
7	2484	835703.252387079318	0
7	2499	843945.209628805903	1
7	2501	845770.397227619603	0
7	2516	847943.471636601316	1
7	2518	849735.764582240826	0
7	2532	851499.0822038584	1
7	2535	853246.082752030006	0
7	2549	854508.833408364698	1
7	2551	856379.686506210977	0
7	2565	857616.572665984267	1
7	2568	859627.701338520533	0
7	2582	862548.016845006249	1
7	2585	864438.65319462158	0
7	2600	874997.771301965114	1
7	2603	876852.374107559305	0
7	2617	880161.677259292027	1
7	2625	880745.293897613006	2
7	2627	881960.817443598838	1
7	2633	882689.671575418496	0
7	2651	890565.688731557945	1
7	2653	892232.383583612884	0
7	2669	902602.412846225259	1
7	2671	904270.103122831199	0
7	2687	916567.430703957911	1
7	2690	918411.528329640504	0
7	2704	921248.35945041231	1
7	2706	923266.672350992707	0
7	2721	926129.187381085454	1
7	2723	927877.748448240017	0
7	2740	942170.818739702467	1
7	2742	943975.786370353747	0
7	2757	948498.249493778529	1
7	2759	950313.49010548869	0
7	2775	960025.720558445437	1
7	2777	962000.787613681128	0
7	2791	964343.703068662046	1
7	2794	966286.295789133616	0
7	2812	991094.11785817366	1
7	2814	992792.061226140378	0
7	2828	994843.038261336696	1
7	2831	997011.723622117484	0
7	2846	1006163.392551732932	1
7	2854	1007335.237248331547	2
7	2856	1007757.286877621676	1
7	2865	1009417.552800963859	0
7	2881	1021291.552175773294	1
7	2883	1023183.683392569504	0
7	2897	1024437.341310237854	1
7	2900	1026093.006179633827	0
7	2915	1033050.629115722279	1
7	2917	1034637.039818830493	0
7	2932	1039722.091296509206	1
7	2934	1041235.280512129199	0
7	2949	1044385.639976645015	1
7	2951	1046183.656411250613	0
