file 49588 1484074179                                           
version 2
run ResponseMeasurement-7-20170110-19:49:39-23193
attr configname ResponseMeasurement
attr datetime 20170110-19:49:39
attr experiment ResponseMeasurement
attr inifile responseStudy.ini
attr iterationvars ""
attr iterationvars2 $repetition=7
attr measurement ""
attr network controltower.SimNetwork
attr processid 23193
attr repetition 7
attr replication #7
attr resultdir results
attr runnumber 7
attr seedset 7
param SimNetwork.a.parkingLot.parkingDelay "truncnormal(30min, 3min)"
param SimNetwork.a.runway.landingTime "truncnormal(5min, 0.5min)"
param SimNetwork.a.runway.takeoffTime "truncnormal(15min, 1.5min)"
param SimNetwork.a.runway.throughputCheckInterval 100min
param SimNetwork.wg.interArrivalTime exponential(100min)

vector 7  SimNetwork.a.parkingLot  parkingOccupancy:vector  ETV
attr source  parkingOccupancy
vector 4  SimNetwork.a.takeoffQueue  queueLength:vector  ETV
attr source  queueLengthSignal
vector 3  SimNetwork.a.takeoffQueue  queueTime:vector  ETV
attr source  queueTimeSignal
vector 0  SimNetwork.wg  responseTime:vector  ETV
attr source  responseTimeSignal
vector 5  SimNetwork.a.runway  landedThroughput:vector  ETV
attr source  landedThroughputSignal
vector 6  SimNetwork.a.runway  tookoffThroughput:vector  ETV
attr source  tookoffThroughputSignal
vector 2  SimNetwork.a.landingQueue  queueLength:vector  ETV
attr source  queueLengthSignal
vector 1  SimNetwork.a.landingQueue  queueTime:vector  ETV
attr source  queueTimeSignal
0	1470 6700 539 3165 202260.629537724869 1045328.024290604915 157 3311.8522127412 25213.453137692 1360484.8837765 15515897979.628
1	8170 4927 550 3153 207779.138628185159 1041701.090426799714 155 0 838.81735687908 14530.1888028 8179272.2170717
2	13097 8914 548 3153 207779.138628185159 1041701.090426799714 310 0 2 157 159
3	22011 4988 533 3162 201160.231802123815 1044348.717761096889 157 0 2198.0238165277 18448.242771455 20560233.202346
4	26999 9035 531 3162 201160.231802123815 1044348.717761096889 314 0 3 163 173
5	36034 2285 546 3169 204000 1062000 144 0 6 157 313
6	38319 2285 546 3169 204000 1062000 144 0 5 157 325
7	40604 8984 530 3159 201160.231802123815 1044348.717761096889 312 0 4 244 356
