version 2
run ResponseMeasurement-90-20170110-19:49:57-23276
attr configname ResponseMeasurement
attr datetime 20170110-19:49:57
attr experiment ResponseMeasurement
attr inifile responseStudy.ini
attr iterationvars ""
attr iterationvars2 $repetition=90
attr measurement ""
attr network controltower.SimNetwork
attr processid 23276
attr repetition 90
attr replication #90
attr resultdir results
attr runnumber 90
attr seedset 90
param SimNetwork.a.parkingLot.parkingDelay "truncnormal(30min, 3min)"
param SimNetwork.a.runway.landingTime "truncnormal(5min, 0.5min)"
param SimNetwork.a.runway.takeoffTime "truncnormal(15min, 1.5min)"
param SimNetwork.a.runway.throughputCheckInterval 100min
param SimNetwork.wg.interArrivalTime exponential(100min)

vector 5  SimNetwork.a.runway  landedThroughput:vector  ETV
attr source  landedThroughputSignal
vector 6  SimNetwork.a.runway  tookoffThroughput:vector  ETV
attr source  tookoffThroughputSignal
vector 2  SimNetwork.a.landingQueue  queueLength:vector  ETV
attr source  queueLengthSignal
vector 1  SimNetwork.a.landingQueue  queueTime:vector  ETV
attr source  queueTimeSignal
vector 7  SimNetwork.a.parkingLot  parkingOccupancy:vector  ETV
attr source  parkingOccupancy
vector 4  SimNetwork.a.takeoffQueue  queueLength:vector  ETV
attr source  queueLengthSignal
vector 3  SimNetwork.a.takeoffQueue  queueTime:vector  ETV
attr source  queueTimeSignal
vector 0  SimNetwork.wg  responseTime:vector  ETV
attr source  responseTimeSignal
0	577	207410.493594058444	11905.34332424
0	605	212388.114720510007	7835.0015737776
0	610	213198.503037349929	3872.3854010009
0	628	222768.632915173333	12366.83445929
0	655	227645.485367598491	7786.5876454169
0	664	228564.404893623095	3944.0803365077
0	677	231283.074278307398	5502.6090843878
0	702	234470.682276694692	6011.7497990606
0	713	235634.932895498279	4339.6495572831
0	740	238417.191046874704	5797.7512515237
0	750	239614.423388934282	4568.3034486405
0	759	241425.114974718154	5064.010323767
0	784	250124.194907661092	11990.677773645
0	792	251461.959418936755	4302.883011168
0	817	254934.317685290117	6940.8758753934
0	833	257112.98717456292	5168.612736355
0	842	258956.213679261204	5100.2346783518
0	870	264428.95961103283	8645.5194951563
0	875	265315.597513682827	3853.5956851024
0	892	272075.028772357472	10236.196460909
0	909	280949.231800386505	12253.21115639
0	927	290505.243663770751	12530.347717607
0	944	295713.448920382843	8433.855808902
0	972	300563.919801809048	8103.4659555368
0	977	301623.730248331248	4178.0398192143
0	994	310988.782853936887	13360.533218018
0	1023	318043.482816651766	10369.651250965
0	1028	318962.702603695899	3616.6056116792
0	1045	327367.400490037278	11304.536163209
0	1062	330968.652414097041	6651.2987527025
0	1089	335280.998201559726	7619.0597061491
0	1103	337387.044154987401	4744.3776826484
0	1111	338289.943629292815	4063.3624189225
0	1129	350373.634095816628	15159.313839424
0	1147	361619.304286478231	14377.517874155
0	1174	365601.256253973089	6890.5323772523
0	1180	366485.06126847374	3859.78485835
0	1207	370554.539236355878	7131.5438864619
0	1221	372362.360102630953	5248.7005315714
0	1229	373552.019024364315	4227.2337655875
0	1247	387392.30928118495	17039.106056857
0	1264	394043.13599300108	9563.8079756841
0	1295	401822.031400519048	11020.730169591
0	1306	403045.488645530708	4449.5179994635
0	1314	404648.877197615982	5067.3226018268
0	1331	411277.564289495802	10137.595218316
0	1351	419120.16588157145	11353.835024456
0	1376	422139.417886436873	5979.9712713066
0	1381	422960.852320350543	4239.9597455016
0	1398	427855.07905761816	8372.4822619945
0	1423	433990.295512419722	9234.7968635039
0	1431	435716.213005416212	4947.5729527236
0	1448	438799.898010824411	6197.106000247
0	1473	446141.747674129355	10184.993296964
0	1484	447076.505898868915	4064.3087551651
0	1498	450226.875139602444	6158.6995610731
0	1533	453868.473128556584	7230.5753484933
0	1541	454762.327851221264	3897.0229868327
0	1546	455872.599043492404	4083.8363643072
0	1563	461128.577311573478	8977.353525976
0	1580	467883.652151988472	9449.1533311799
0	1598	474964.729043818324	10132.53368736
0	1627	488504.146839560238	16271.429815884
0	1632	489303.725929665072	3700.8049589766
0	1657	496771.519581852408	10581.779109868
0	1677	498112.909882267818	4092.511815583
0	1690	499720.889970603362	5020.7020637389
0	1698	501257.559022310856	4365.6879373297
0	1716	515667.13768749984	17882.38575851
0	1734	524041.298333197255	11690.545644751
0	1761	541193.999299378725	20134.361209189
0	1769	542333.22004365567	4251.8487544755
0	1786	548211.482890376	9115.0829331273
0	1806	553605.506562570236	8565.969852926
0	1819	556506.325699469407	6218.2213103018
0	1837	569777.27975767788	16697.769719468
0	1855	579945.209170382357	13270.281311646
0	1875	584559.135798662007	7743.4895898989
0	1891	587730.280543513621	5718.8707946385
0	1911	590410.58577722708	6326.2908560713
0	1940	593336.024882193635	5928.3434874499
0	1949	594217.52949220702	4473.3010212282
0	1954	595105.911120563654	4803.1125562662
0	1973	599466.630632114297	8835.2492707511
0	1987	602650.74463891812	6096.9959097804
0	2005	616420.632800693486	17176.011983197
0	2024	634982.339461974276	21505.959791382
0	2058	643880.662695674357	11890.876387967
0	2069	645377.853194654564	4466.6885009378
0	2074	646350.378757503559	4079.5759783421
0	2091	652495.387692969711	10189.378594859
0	2130	674514.167984588432	24525.839396775
0	2138	675336.655469631748	4090.3529470313
0	2143	676278.377397402191	4200.54134658
0	2168	682997.045507190263	10208.731869357
0	2177	684807.448314682346	4435.2939709778
0	2193	689332.481621869757	7476.0915763014
0	2230	696611.186244147838	10462.639216207
0	2235	697508.869073892826	3956.9225196167
0	2243	698858.079538294277	5218.8949768816
0	2269	708657.000220592738	13186.552048916
0	2277	710045.484433186741	4466.5410227043
0	2294	717044.414647784715	10072.248658087
0	2312	731683.622922919349	17508.399776576
0	2338	741273.760026179987	12744.143351789
0	2346	742761.994520439322	4591.0951998916
0	2373	761092.279086231957	21693.179669166
0	2382	762893.595739554918	4693.9511894545
0	2400	776463.523154490687	16658.054811694
0	2417	781647.770914732989	8025.6185780755
0	2433	785231.441947532048	6641.6342915745
0	2465	795325.068659114245	13306.638071714
0	2475	796675.884597624797	4282.5520010792
0	2495	798531.923904986378	5447.4638735893
0	2508	800014.650703152681	4908.2744721254
0	2524	801581.760116083045	4856.8847091324
0	2538	803609.093310404841	5145.2318957053
0	2560	806759.325745778818	6353.1338926047
0	2565	807690.539676385043	4284.0890731676
0	2582	812848.191226022864	9361.854474966
0	2613	816781.965194093386	3155.5661065783
0	2626	817972.712143221998	8060.9214255924
0	2642	819801.675710045646	6084.0477280754
0	2655	820933.588471376733	4561.3062623138
0	2664	822951.341552581955	5481.1304446441
0	2681	829261.810641260964	9503.2147175548
0	2701	852040.836039396223	25558.042438893
0	2719	865050.902972473567	15427.981858786
0	2755	872593.456631412088	10554.207517638
0	2763	873542.531286198662	3901.7922145503
0	2771	874478.621713648038	3936.3487884867
0	2785	877377.600432213651	6036.8092565596
0	2821	882144.507342910807	7970.0918970464
0	2832	883013.286408157974	4059.4359047333
0	2845	884318.79091948593	4631.9183914593
0	2858	885771.029115699419	6071.39374326
0	2866	887341.142113972032	4839.5288594311
0	2885	904198.591059152413	20029.184455607
0	2902	911615.233651404806	10535.725539612
0	2923	918089.242683432984	9366.1281759717
0	2936	920983.49388541563	5594.2052499483
0	2965	930237.951851564171	12675.846216886
0	2973	931079.099286832916	3937.9862834063
0	2986	933991.637771775403	6553.337372685
0	3003	941588.136908038209	11221.282138625
0	3020	945851.399031264061	7354.3931016086
0	3045	953037.540234808077	9886.2524368382
0	3054	954212.446222124803	4238.9898608711
0	3072	971840.728489632871	20823.739203987
0	3089	975448.761969649499	6732.385569314
0	3107	984976.576767123728	12906.572052281
0	3144	996089.981378543176	14461.987601566
0	3149	996926.775126841749	3845.0922086002
0	3165	998702.59826917792	4730.3222517144
0	3173	1000324.295905546977	5335.3026629964
0	3193	1005772.938855082112	8343.6936961269
0	3218	1008901.891260248017	5944.4883520797
0	3223	1009850.434894193545	4350.1731133492
0	3252	1021699.820974838631	15353.265767269
0	3260	1022521.818396307734	3951.0665641499
0	3273	1025154.145305215843	6214.9233902282
0	3290	1031459.846127369692	9021.5771674095
0	3317	1045603.366943913702	17086.436074373
0	3333	1047198.760578340736	5023.2552929075
0	3341	1048995.327975417076	4611.1441990561
1	566	204553.113146732371	0
1	582	209326.117636349045	0
1	591	210401.798455883601	0
1	616	219858.897722181583	0
1	633	224620.324557115399	0
1	641	225780.465193919551	0
1	666	228564.404893623095	105.47241598901
1	682	231295.283338215169	0
1	690	232619.439795350959	0
1	715	235634.932895498279	588.81295520448
1	723	236361.104650951111	0
1	742	238417.191046874704	283.67391285907
1	765	247159.076407768798	0
1	773	247993.441809896708	0
1	797	251944.374438207967	0
1	806	253855.979000909396	0
1	822	255783.440115876527	0
1	847	261462.001828580415	0
1	855	261838.832311448721	0
1	880	268696.020643996509	0
1	898	277974.895946163395	0
1	915	287279.593111480865	0
1	932	292460.453846272277	0
1	949	297445.690429116957	0
1	957	297742.581250347483	114.33161442854
1	983	307673.831565687144	0
1	1000	315346.09699201669	0
1	1008	316062.864326828187	0
1	1034	324317.353661394523	0
1	1050	327661.938495410632	0
1	1067	332642.666472338986	0
1	1075	334226.581210370267	0
1	1091	335280.998201559726	66.677945167185
1	1117	347241.786412323383	0
1	1135	358710.723876720777	0
1	1152	362625.276410123721	0
1	1160	363422.995349893974	0
1	1185	367113.659571059528	0
1	1193	369324.785258776832	0
1	1209	370554.539236355878	201.33601202803
1	1236	384479.328017316994	0
1	1253	390801.301230928488	0
1	1270	398595.970646067222	0
1	1278	399581.554595789147	0
1	1297	401822.031400519048	682.06232933931
1	1319	407766.330857115109	0
1	1337	416159.446615130283	0
1	1353	419120.16588157145	399.27330672255
1	1361	419484.991821881174	2.39502625753
1	1386	424755.498648915868	0
1	1403	430768.640052692622	0
1	1412	432602.792010577399	0
1	1436	435956.754377164969	0
1	1453	443012.197143703795	0
1	1462	444068.175578529351	0
1	1486	447076.505898868915	438.60811880561
1	1503	450865.304864388553	0
1	1511	451788.76267918516	0
1	1519	452151.223785597446	0
1	1552	458434.498820808528	0
1	1569	464832.19535645813	0
1	1586	472232.717023676064	0
1	1604	485602.920970688432	0
1	1613	486189.740471984588	0
1	1638	494020.398066684856	0
1	1646	494700.187906864493	0
1	1662	496891.871084981142	0
1	1679	498112.909882267818	328.15795327829
1	1705	512350.75268844635	0
1	1722	521059.638090189284	0
1	1741	538081.371289180206	0
1	1749	539096.399957248668	0
1	1774	545039.536709644222	0
1	1791	550288.104389167626	0
1	1808	553605.506562570236	525.99652436001
1	1826	566674.927858736573	0
1	1844	576815.646208763117	0
1	1861	582011.409748875121	0
1	1877	584559.135798662007	474.84087750618
1	1893	587730.280543513621	322.59914876986
1	1913	590410.58577722708	666.35730624824
1	1921	590693.667431593539	390.86886729606
1	1926	591037.992392057933	406.61103069478
1	1959	596553.748729137753	0
1	1975	599466.630632114297	222.00981461826
1	1994	613476.37967059218	0
1	2013	631989.78630770712	0
1	2030	640911.164693716748	0
1	2039	642270.802779161472	0
1	2047	642557.046195153913	251.0370970435
1	2080	649988.328587813282	0
1	2099	671246.30252260047	0
1	2108	672077.836050822218	0
1	2116	672788.313637833562	0
1	2149	680372.154343704522	0
1	2157	681856.390045568406	0
1	2182	686148.547027940864	0
1	2199	693551.946554276172	0
1	2207	693848.511828022905	209.32726661025
1	2215	695470.448171676757	0
1	2249	705578.943410482439	0
1	2257	706972.165989697753	0
1	2283	714175.223146343667	0
1	2301	728529.616674391243	0
1	2319	738170.899320547741	0
1	2327	739399.099417065964	0
1	2354	758199.644550100388	0
1	2362	759805.468342797003	0
1	2388	773622.152336657473	0
1	2405	778589.807655957521	0
1	2422	782018.430587400687	0
1	2440	792393.332596545643	0
1	2448	793084.460031397058	0
1	2467	795325.068659114245	218.69242808692
1	2480	796724.875406950646	0
1	2497	798531.923904986378	68.062490286836
1	2513	800406.191853174132	0
1	2540	803609.093310404841	202.64270718742
1	2545	803862.857014464848	376.52026340799
1	2570	809911.790717629599	0
1	2587	813626.399087515036	0
1	2595	813930.013949138262	212.38596716799
1	2615	816781.965194093386	409.68298503045
1	2628	817972.712143221998	502.50103528417
1	2644	819801.675710045646	43.079786339482
1	2669	826482.79360050293	0
1	2689	849622.921113688002	0
1	2707	862039.249113773684	0
1	2724	869640.739071648404	0
1	2733	870542.272925161331	0
1	2741	871340.791175654024	0
1	2773	874478.621713648038	304.20626778364
1	2790	878953.850503424699	0
1	2798	879686.872528026656	0
1	2806	879969.136189795333	269.50081735594
1	2834	883013.286408157974	511.67315361709
1	2847	884318.79091948593	149.38431594052
1	2874	901079.508111792519	0
1	2891	908723.114507461301	0
1	2908	915389.288635467343	0
1	2925	918089.242683432984	527.13704875524
1	2942	927141.113003426624	0
1	2950	927473.065512066745	34.765112976369
1	2975	931079.099286832916	712.24451742014
1	2992	938497.005929655457	0
1	3009	943151.287797969851	0
1	3026	949973.456361253693	0
1	3034	951016.989285645571	0
1	3061	968716.376400335541	0
1	3078	972070.0047148427	0
1	3095	981627.993776977226	0
1	3113	993081.682918241536	0
1	3121	993972.276017463523	0
1	3129	994988.9932425506	0
1	3154	997429.245158955242	0
1	3179	1002957.402908168364	0
1	3195	1005772.938855082112	272.67707423776
1	3203	1006346.55520756916	0
1	3229	1018570.751832157816	0
1	3237	1018939.221914987649	0
1	3262	1022521.818396307734	83.549436347558
1	3279	1028516.930869541082	0
1	3297	1042175.505285433268	0
1	3306	1044384.183776360977	0
1	3322	1045881.823346453938	0
2	564	204553.113146732371	1
2	566	204553.113146732371	0
2	580	209326.117636349045	1
2	582	209326.117636349045	0
2	589	210401.798455883601	1
2	591	210401.798455883601	0
2	614	219858.897722181583	1
2	616	219858.897722181583	0
2	631	224620.324557115399	1
2	633	224620.324557115399	0
2	639	225780.465193919551	1
2	641	225780.465193919551	0
2	661	228458.932477634085	1
2	666	228564.404893623095	0
2	680	231295.283338215169	1
2	682	231295.283338215169	0
2	688	232619.439795350959	1
2	690	232619.439795350959	0
2	710	235046.119940293802	1
2	715	235634.932895498279	0
2	721	236361.104650951111	1
2	723	236361.104650951111	0
2	734	238133.517134015632	1
2	742	238417.191046874704	0
2	763	247159.076407768798	1
2	765	247159.076407768798	0
2	771	247993.441809896708	1
2	773	247993.441809896708	0
2	795	251944.374438207967	1
2	797	251944.374438207967	0
2	804	253855.979000909396	1
2	806	253855.979000909396	0
2	820	255783.440115876527	1
2	822	255783.440115876527	0
2	845	261462.001828580415	1
2	847	261462.001828580415	0
2	853	261838.832311448721	1
2	855	261838.832311448721	0
2	878	268696.020643996509	1
2	880	268696.020643996509	0
2	896	277974.895946163395	1
2	898	277974.895946163395	0
2	913	287279.593111480865	1
2	915	287279.593111480865	0
2	930	292460.453846272277	1
2	932	292460.453846272277	0
2	947	297445.690429116957	1
2	949	297445.690429116957	0
2	952	297628.24963591894	1
2	957	297742.581250347483	0
2	981	307673.831565687144	1
2	983	307673.831565687144	0
2	998	315346.09699201669	1
2	1000	315346.09699201669	0
2	1006	316062.864326828187	1
2	1008	316062.864326828187	0
2	1032	324317.353661394523	1
2	1034	324317.353661394523	0
2	1048	327661.938495410632	1
2	1050	327661.938495410632	0
2	1065	332642.666472338986	1
2	1067	332642.666472338986	0
2	1073	334226.581210370267	1
2	1075	334226.581210370267	0
2	1086	335214.320256392541	1
2	1091	335280.998201559726	0
2	1115	347241.786412323383	1
2	1117	347241.786412323383	0
2	1133	358710.723876720777	1
2	1135	358710.723876720777	0
2	1150	362625.276410123721	1
2	1152	362625.276410123721	0
2	1158	363422.995349893974	1
2	1160	363422.995349893974	0
2	1183	367113.659571059528	1
2	1185	367113.659571059528	0
2	1191	369324.785258776832	1
2	1193	369324.785258776832	0
2	1204	370353.203224327848	1
2	1209	370554.539236355878	0
2	1234	384479.328017316994	1
2	1236	384479.328017316994	0
2	1251	390801.301230928488	1
2	1253	390801.301230928488	0
2	1268	398595.970646067222	1
2	1270	398595.970646067222	0
2	1276	399581.554595789147	1
2	1278	399581.554595789147	0
2	1289	401139.969071179739	1
2	1297	401822.031400519048	0
2	1317	407766.330857115109	1
2	1319	407766.330857115109	0
2	1335	416159.446615130283	1
2	1337	416159.446615130283	0
2	1348	418720.892574848899	1
2	1353	419120.16588157145	0
2	1356	419482.596795623644	1
2	1361	419484.991821881174	0
2	1384	424755.498648915868	1
2	1386	424755.498648915868	0
2	1401	430768.640052692622	1
2	1403	430768.640052692622	0
2	1410	432602.792010577399	1
2	1412	432602.792010577399	0
2	1434	435956.754377164969	1
2	1436	435956.754377164969	0
2	1451	443012.197143703795	1
2	1453	443012.197143703795	0
2	1460	444068.175578529351	1
2	1462	444068.175578529351	0
2	1481	446637.897780063306	1
2	1486	447076.505898868915	0
2	1501	450865.304864388553	1
2	1503	450865.304864388553	0
2	1509	451788.76267918516	1
2	1511	451788.76267918516	0
2	1517	452151.223785597446	1
2	1519	452151.223785597446	0
2	1550	458434.498820808528	1
2	1552	458434.498820808528	0
2	1567	464832.19535645813	1
2	1569	464832.19535645813	0
2	1584	472232.717023676064	1
2	1586	472232.717023676064	0
2	1602	485602.920970688432	1
2	1604	485602.920970688432	0
2	1611	486189.740471984588	1
2	1613	486189.740471984588	0
2	1636	494020.398066684856	1
2	1638	494020.398066684856	0
2	1644	494700.187906864493	1
2	1646	494700.187906864493	0
2	1660	496891.871084981142	1
2	1662	496891.871084981142	0
2	1673	497784.751928989526	1
2	1679	498112.909882267818	0
2	1703	512350.75268844635	1
2	1705	512350.75268844635	0
2	1720	521059.638090189284	1
2	1722	521059.638090189284	0
2	1739	538081.371289180206	1
2	1741	538081.371289180206	0
2	1747	539096.399957248668	1
2	1749	539096.399957248668	0
2	1772	545039.536709644222	1
2	1774	545039.536709644222	0
2	1789	550288.104389167626	1
2	1791	550288.104389167626	0
2	1803	553079.510038210225	1
2	1808	553605.506562570236	0
2	1824	566674.927858736573	1
2	1826	566674.927858736573	0
2	1842	576815.646208763117	1
2	1844	576815.646208763117	0
2	1859	582011.409748875121	1
2	1861	582011.409748875121	0
2	1872	584084.294921155826	1
2	1877	584559.135798662007	0
2	1888	587407.681394743765	1
2	1893	587730.280543513621	0
2	1905	589744.228470978836	1
2	1908	590302.798564297474	2
2	1913	590410.58577722708	1
2	1916	590631.381361363153	2
2	1921	590693.667431593539	1
2	1926	591037.992392057933	0
2	1957	596553.748729137753	1
2	1959	596553.748729137753	0
2	1970	599244.620817496042	1
2	1975	599466.630632114297	0
2	1992	613476.37967059218	1
2	1994	613476.37967059218	0
2	2011	631989.78630770712	1
2	2013	631989.78630770712	0
2	2028	640911.164693716748	1
2	2030	640911.164693716748	0
2	2037	642270.802779161472	1
2	2039	642270.802779161472	0
2	2042	642306.009098110408	1
2	2047	642557.046195153913	0
2	2078	649988.328587813282	1
2	2080	649988.328587813282	0
2	2097	671246.30252260047	1
2	2099	671246.30252260047	0
2	2106	672077.836050822218	1
2	2108	672077.836050822218	0
2	2114	672788.313637833562	1
2	2116	672788.313637833562	0
2	2147	680372.154343704522	1
2	2149	680372.154343704522	0
2	2155	681856.390045568406	1
2	2157	681856.390045568406	0
2	2180	686148.547027940864	1
2	2182	686148.547027940864	0
2	2197	693551.946554276172	1
2	2199	693551.946554276172	0
2	2202	693639.184561412658	1
2	2207	693848.511828022905	0
2	2213	695470.448171676757	1
2	2215	695470.448171676757	0
2	2247	705578.943410482439	1
2	2249	705578.943410482439	0
2	2255	706972.165989697753	1
2	2257	706972.165989697753	0
2	2281	714175.223146343667	1
2	2283	714175.223146343667	0
2	2299	728529.616674391243	1
2	2301	728529.616674391243	0
2	2317	738170.899320547741	1
2	2319	738170.899320547741	0
2	2325	739399.099417065964	1
2	2327	739399.099417065964	0
2	2352	758199.644550100388	1
2	2354	758199.644550100388	0
2	2360	759805.468342797003	1
2	2362	759805.468342797003	0
2	2386	773622.152336657473	1
2	2388	773622.152336657473	0
2	2403	778589.807655957521	1
2	2405	778589.807655957521	0
2	2420	782018.430587400687	1
2	2422	782018.430587400687	0
2	2438	792393.332596545643	1
2	2440	792393.332596545643	0
2	2446	793084.460031397058	1
2	2448	793084.460031397058	0
2	2459	795106.376231027322	1
2	2467	795325.068659114245	0
2	2478	796724.875406950646	1
2	2480	796724.875406950646	0
2	2492	798463.861414699542	1
2	2497	798531.923904986378	0
2	2511	800406.191853174132	1
2	2513	800406.191853174132	0
2	2532	803406.450603217417	1
2	2535	803486.336751056855	2
2	2540	803609.093310404841	1
2	2545	803862.857014464848	0
2	2568	809911.790717629599	1
2	2570	809911.790717629599	0
2	2585	813626.399087515036	1
2	2587	813626.399087515036	0
2	2590	813717.627981970274	1
2	2595	813930.013949138262	0
2	2610	816372.282209062935	1
2	2615	816781.965194093386	0
2	2623	817470.21110793783	1
2	2628	817972.712143221998	0
2	2639	819758.595923706164	1
2	2644	819801.675710045646	0
2	2667	826482.79360050293	1
2	2669	826482.79360050293	0
2	2687	849622.921113688002	1
2	2689	849622.921113688002	0
2	2705	862039.249113773684	1
2	2707	862039.249113773684	0
2	2722	869640.739071648404	1
2	2724	869640.739071648404	0
2	2731	870542.272925161331	1
2	2733	870542.272925161331	0
2	2739	871340.791175654024	1
2	2741	871340.791175654024	0
2	2768	874174.415445864393	1
2	2773	874478.621713648038	0
2	2788	878953.850503424699	1
2	2790	878953.850503424699	0
2	2796	879686.872528026656	1
2	2798	879686.872528026656	0
2	2801	879699.635372439396	1
2	2806	879969.136189795333	0
2	2829	882501.613254540883	1
2	2834	883013.286408157974	0
2	2842	884169.406603545413	1
2	2847	884318.79091948593	0
2	2872	901079.508111792519	1
2	2874	901079.508111792519	0
2	2889	908723.114507461301	1
2	2891	908723.114507461301	0
2	2906	915389.288635467343	1
2	2908	915389.288635467343	0
2	2919	917562.105634677742	1
2	2925	918089.242683432984	0
2	2940	927141.113003426624	1
2	2942	927141.113003426624	0
2	2945	927438.300399090376	1
2	2950	927473.065512066745	0
2	2970	930366.854769412777	1
2	2975	931079.099286832916	0
2	2990	938497.005929655457	1
2	2992	938497.005929655457	0
2	3007	943151.287797969851	1
2	3009	943151.287797969851	0
2	3024	949973.456361253693	1
2	3026	949973.456361253693	0
2	3032	951016.989285645571	1
2	3034	951016.989285645571	0
2	3059	968716.376400335541	1
2	3061	968716.376400335541	0
2	3076	972070.0047148427	1
2	3078	972070.0047148427	0
2	3093	981627.993776977226	1
2	3095	981627.993776977226	0
2	3111	993081.682918241536	1
2	3113	993081.682918241536	0
2	3119	993972.276017463523	1
2	3121	993972.276017463523	0
2	3127	994988.9932425506	1
2	3129	994988.9932425506	0
2	3152	997429.245158955242	1
2	3154	997429.245158955242	0
2	3177	1002957.402908168364	1
2	3179	1002957.402908168364	0
2	3190	1005500.261780844351	1
2	3195	1005772.938855082112	0
2	3201	1006346.55520756916	1
2	3203	1006346.55520756916	0
2	3227	1018570.751832157816	1
2	3229	1018570.751832157816	0
2	3235	1018939.221914987649	1
2	3237	1018939.221914987649	0
2	3257	1022438.268959960176	1
2	3262	1022521.818396307734	0
2	3277	1028516.930869541082	1
2	3279	1028516.930869541082	0
2	3295	1042175.505285433268	1
2	3297	1042175.505285433268	0
2	3304	1044384.183776360977	1
2	3306	1044384.183776360977	0
2	3320	1045881.823346453938	1
2	3322	1045881.823346453938	0
3	574	206457.993564802003	0
3	599	211492.19505507983	0
3	607	212388.114720510007	103.2315835579
3	624	221807.948844547574	0
3	649	226764.394904495781	0
3	657	227645.485367598491	6.407206181402
3	674	230595.046050144541	0
3	698	233557.042062704514	0
3	707	234616.980520212096	0
3	731	237628.639717516846	0
3	747	238738.450826113186	475.34814533056
3	756	240495.142824160904	0
3	781	249256.359588494268	0
3	789	250595.844552572823	0
3	814	254140.927372089922	135.43732215866
3	830	256124.08057758123	294.07379407432
3	838	257967.924206731634	0
3	863	263523.107134822665	0
3	872	264428.95961103283	543.25082818661
3	889	271093.091265672541	0
3	906	280116.53028479324	0
3	924	289471.270905425943	0
3	941	294761.930349236158	0
3	965	299411.787108150548	0
3	974	300563.919801809048	907.52375023193
3	991	309954.638294638703	0
3	1016	317159.276246578364	0
3	1025	318043.482816651766	43.005608607839
3	1042	326417.592788425178	0
3	1059	330000.976946759564	0
3	1083	334557.180370665259	0
3	1100	336465.382951663242	0
3	1108	337486.480914774929	0
3	1126	349448.297879008125	0
3	1144	360706.330784279921	0
3	1168	364701.950940592948	0
3	1176	365601.256253973089	291.21122480307
3	1201	369610.38130754115	165.420163556
3	1217	371525.156246156388	0
3	1226	372612.115640593239	0
3	1244	386495.386105245736	0
3	1261	393138.681987025912	0
3	1286	400689.433685664535	0
3	1303	402119.009715199285	413.79101242221
3	1311	403812.955180332361	0
3	1328	410451.586115937966	0
3	1345	418233.434918922379	0
3	1370	421277.752143472633	0
3	1378	422139.417886436873	605.66010604019
3	1395	426959.737699147274	0
3	1420	433044.034366653037	0
3	1428	434895.668411549902	0
3	1444	437969.928237888726	0
3	1470	445247.534383398411	0
3	1478	446177.590454831777	0
3	1494	449253.164054588729	0
3	1527	453013.17023230423	0
3	1535	453868.473128556584	416.79510186953
3	1543	454762.327851221264	283.00782459634
3	1560	460441.834984160928	0
3	1577	466917.599523834466	0
3	1595	474176.206973428176	0
3	1621	487730.162902063074	0
3	1629	488504.146839560238	16.005678476123
3	1654	495746.7608759977	0
3	1670	497184.575233437398	243.13153809715
3	1687	498878.921145320119	0
3	1695	500284.664200806416	0
3	1713	514754.893279258613	0
3	1731	523232.74178864211	0
3	1758	540222.031501883383	0
3	1766	541452.113734840469	0
3	1783	547275.04057101533	0
3	1800	552692.292988017774	0
3	1816	555580.6850442455	0
3	1834	568891.083802688509	0
3	1852	579134.678854848803	0
3	1869	583825.731421628352	0
3	1885	586863.274156006781	0
3	1902	589569.530977058107	0
3	1934	592294.296216212415	0
3	1942	593336.024882193635	602.90089983975
3	1951	594217.52949220702	775.13092885466
3	1967	598694.791225798856	0
3	1984	601737.028337199185	0
3	2002	615404.076840831667	0
3	2021	633969.607027892042	0
3	2055	642989.071108707141	0
3	2063	644338.824675985976	0
3	2071	645377.853194654564	701.87499455015
3	2088	651559.188252446501	0
3	2124	673574.326213959448	0
3	2132	674514.167984588432	370.43973325887
3	2140	675336.655469631748	561.15274414499
3	2165	682186.954840033104	22.561076002618
3	2173	683942.69859112723	0
3	2190	688502.326246834574	0
3	2223	695733.040477203124	74.040584753224
3	2232	696611.186244147838	374.19808508395
3	2240	698032.115652109804	0
3	2265	707727.395068803937	0
3	2274	709240.156631572468	0
3	2291	716237.880142428584	0
3	2309	730875.060621632698	0
3	2335	740339.326446266041	0
3	2343	741866.275392363171	0
3	2370	760154.264452526136	0
3	2378	761832.980777371994	0
3	2397	775593.512869246158	0
3	2414	780639.007062499551	0
3	2430	784449.314587250977	0
3	2456	794489.453521628698	0
3	2472	795639.097090821862	355.37816245824
3	2488	797505.425824136099	0
3	2505	798946.70904935722	0
3	2521	800759.464827620603	150.06666349476
3	2529	802612.675729788633	0
3	2554	805725.680537475348	0
3	2562	806759.325745778818	991.12259426384
3	2579	811858.454911800103	0
3	2603	815943.368233048079	0
3	2620	817105.849776544351	1137.4026040142
3	2636	818993.30291091937	0
3	2652	820064.917370320362	136.18466051925
3	2661	822104.104047602935	0
3	2678	828439.328938101235	0
3	2697	851212.717135740897	0
3	2716	864112.168574400958	0
3	2749	871654.11518867676	0
3	2757	872593.456631412088	44.493525610794
3	2765	873542.531286198662	289.45462753172
3	2782	876435.103662166691	0
3	2814	881087.750422805285	0
3	2823	882144.507342910807	126.02261728084
3	2839	883293.307721343081	974.25100903205
3	2855	884940.585068178563	0
3	2863	886407.364482714935	0
3	2882	903322.772310753007	0
3	2899	910813.388167775039	0
3	2916	917229.793569455259	0
3	2933	920048.918922760871	0
3	2958	929433.505877165018	0
3	2967	930237.951851564171	733.04948987649
3	2983	933219.651596616937	0
3	3000	940645.933644230087	0
3	3017	945059.48897027478	0
3	3042	952107.390193600471	0
3	3050	953251.430657237007	0
3	3069	970946.423090159947	0
3	3086	974415.732233359815	0
3	3103	983942.285802847991	0
3	3137	995295.812160311405	149.75831698381
3	3146	996089.981378543176	296.54600581367
3	3162	997710.559782364195	267.40354656327
3	3170	999567.904578971197	0
3	3187	1004863.184245212618	0
3	3211	1007983.92369027851	0
3	3220	1008901.891260248017	383.11306384401
3	3246	1020670.005673366206	0
3	3254	1021699.820974838631	757.96275404321
3	3270	1024267.875200874099	0
3	3287	1030401.509135598628	0
3	3314	1044681.68790668316	288.5472555688
3	3330	1046344.220479313046	0
3	3338	1048184.265671315099	0
4	572	206457.993564802003	1
4	574	206457.993564802003	0
4	597	211492.19505507983	1
4	599	211492.19505507983	0
4	602	212284.883136952109	1
4	607	212388.114720510007	0
4	622	221807.948844547574	1
4	624	221807.948844547574	0
4	647	226764.394904495781	1
4	649	226764.394904495781	0
4	652	227639.078161417089	1
4	657	227645.485367598491	0
4	672	230595.046050144541	1
4	674	230595.046050144541	0
4	696	233557.042062704514	1
4	698	233557.042062704514	0
4	705	234616.980520212096	1
4	707	234616.980520212096	0
4	729	237628.639717516846	1
4	731	237628.639717516846	0
4	737	238263.102680782624	1
4	747	238738.450826113186	0
4	754	240495.142824160904	1
4	756	240495.142824160904	0
4	779	249256.359588494268	1
4	781	249256.359588494268	0
4	787	250595.844552572823	1
4	789	250595.844552572823	0
4	809	254005.490049931261	1
4	814	254140.927372089922	0
4	825	255830.00678350691	1
4	830	256124.08057758123	0
4	836	257967.924206731634	1
4	838	257967.924206731634	0
4	861	263523.107134822665	1
4	863	263523.107134822665	0
4	866	263885.708782846224	1
4	872	264428.95961103283	0
4	887	271093.091265672541	1
4	889	271093.091265672541	0
4	904	280116.53028479324	1
4	906	280116.53028479324	0
4	922	289471.270905425943	1
4	924	289471.270905425943	0
4	939	294761.930349236158	1
4	941	294761.930349236158	0
4	963	299411.787108150548	1
4	965	299411.787108150548	0
4	968	299656.396051577119	1
4	974	300563.919801809048	0
4	989	309954.638294638703	1
4	991	309954.638294638703	0
4	1014	317159.276246578364	1
4	1016	317159.276246578364	0
4	1020	318000.477208043927	1
4	1025	318043.482816651766	0
4	1040	326417.592788425178	1
4	1042	326417.592788425178	0
4	1057	330000.976946759564	1
4	1059	330000.976946759564	0
4	1081	334557.180370665259	1
4	1083	334557.180370665259	0
4	1098	336465.382951663242	1
4	1100	336465.382951663242	0
4	1106	337486.480914774929	1
4	1108	337486.480914774929	0
4	1124	349448.297879008125	1
4	1126	349448.297879008125	0
4	1142	360706.330784279921	1
4	1144	360706.330784279921	0
4	1166	364701.950940592948	1
4	1168	364701.950940592948	0
4	1171	365310.045029170015	1
4	1176	365601.256253973089	0
4	1196	369444.96114398515	1
4	1201	369610.38130754115	0
4	1215	371525.156246156388	1
4	1217	371525.156246156388	0
4	1224	372612.115640593239	1
4	1226	372612.115640593239	0
4	1242	386495.386105245736	1
4	1244	386495.386105245736	0
4	1259	393138.681987025912	1
4	1261	393138.681987025912	0
4	1284	400689.433685664535	1
4	1286	400689.433685664535	0
4	1292	401705.21870277707	1
4	1303	402119.009715199285	0
4	1309	403812.955180332361	1
4	1311	403812.955180332361	0
4	1326	410451.586115937966	1
4	1328	410451.586115937966	0
4	1343	418233.434918922379	1
4	1345	418233.434918922379	0
4	1368	421277.752143472633	1
4	1370	421277.752143472633	0
4	1373	421533.757780396681	1
4	1378	422139.417886436873	0
4	1393	426959.737699147274	1
4	1395	426959.737699147274	0
4	1418	433044.034366653037	1
4	1420	433044.034366653037	0
4	1426	434895.668411549902	1
4	1428	434895.668411549902	0
4	1442	437969.928237888726	1
4	1444	437969.928237888726	0
4	1468	445247.534383398411	1
4	1470	445247.534383398411	0
4	1476	446177.590454831777	1
4	1478	446177.590454831777	0
4	1492	449253.164054588729	1
4	1494	449253.164054588729	0
4	1525	453013.17023230423	1
4	1527	453013.17023230423	0
4	1530	453451.678026687057	1
4	1535	453868.473128556584	0
4	1538	454479.320026624922	1
4	1543	454762.327851221264	0
4	1558	460441.834984160928	1
4	1560	460441.834984160928	0
4	1575	466917.599523834466	1
4	1577	466917.599523834466	0
4	1593	474176.206973428176	1
4	1595	474176.206973428176	0
4	1619	487730.162902063074	1
4	1621	487730.162902063074	0
4	1624	488488.141161084115	1
4	1629	488504.146839560238	0
4	1652	495746.7608759977	1
4	1654	495746.7608759977	0
4	1665	496941.443695340244	1
4	1670	497184.575233437398	0
4	1685	498878.921145320119	1
4	1687	498878.921145320119	0
4	1693	500284.664200806416	1
4	1695	500284.664200806416	0
4	1711	514754.893279258613	1
4	1713	514754.893279258613	0
4	1729	523232.74178864211	1
4	1731	523232.74178864211	0
4	1756	540222.031501883383	1
4	1758	540222.031501883383	0
4	1764	541452.113734840469	1
4	1766	541452.113734840469	0
4	1781	547275.04057101533	1
4	1783	547275.04057101533	0
4	1798	552692.292988017774	1
4	1800	552692.292988017774	0
4	1814	555580.6850442455	1
4	1816	555580.6850442455	0
4	1832	568891.083802688509	1
4	1834	568891.083802688509	0
4	1850	579134.678854848803	1
4	1852	579134.678854848803	0
4	1867	583825.731421628352	1
4	1869	583825.731421628352	0
4	1883	586863.274156006781	1
4	1885	586863.274156006781	0
4	1900	589569.530977058107	1
4	1902	589569.530977058107	0
4	1932	592294.296216212415	1
4	1934	592294.296216212415	0
4	1937	592733.123982353884	1
4	1942	593336.024882193635	0
4	1945	593442.39856335236	1
4	1951	594217.52949220702	0
4	1965	598694.791225798856	1
4	1967	598694.791225798856	0
4	1982	601737.028337199185	1
4	1984	601737.028337199185	0
4	2000	615404.076840831667	1
4	2002	615404.076840831667	0
4	2019	633969.607027892042	1
4	2021	633969.607027892042	0
4	2053	642989.071108707141	1
4	2055	642989.071108707141	0
4	2061	644338.824675985976	1
4	2063	644338.824675985976	0
4	2066	644675.978200104415	1
4	2071	645377.853194654564	0
4	2086	651559.188252446501	1
4	2088	651559.188252446501	0
4	2122	673574.326213959448	1
4	2124	673574.326213959448	0
4	2127	674143.728251329565	1
4	2132	674514.167984588432	0
4	2135	674775.502725486754	1
4	2140	675336.655469631748	0
4	2160	682164.393764030486	1
4	2165	682186.954840033104	0
4	2171	683942.69859112723	1
4	2173	683942.69859112723	0
4	2188	688502.326246834574	1
4	2190	688502.326246834574	0
4	2218	695658.9998924499	1
4	2223	695733.040477203124	0
4	2227	696236.988159063888	1
4	2232	696611.186244147838	0
4	2238	698032.115652109804	1
4	2240	698032.115652109804	0
4	2263	707727.395068803937	1
4	2265	707727.395068803937	0
4	2272	709240.156631572468	1
4	2274	709240.156631572468	0
4	2289	716237.880142428584	1
4	2291	716237.880142428584	0
4	2307	730875.060621632698	1
4	2309	730875.060621632698	0
4	2333	740339.326446266041	1
4	2335	740339.326446266041	0
4	2341	741866.275392363171	1
4	2343	741866.275392363171	0
4	2368	760154.264452526136	1
4	2370	760154.264452526136	0
4	2376	761832.980777371994	1
4	2378	761832.980777371994	0
4	2395	775593.512869246158	1
4	2397	775593.512869246158	0
4	2412	780639.007062499551	1
4	2414	780639.007062499551	0
4	2428	784449.314587250977	1
4	2430	784449.314587250977	0
4	2454	794489.453521628698	1
4	2456	794489.453521628698	0
4	2462	795283.718928363618	1
4	2472	795639.097090821862	0
4	2486	797505.425824136099	1
4	2488	797505.425824136099	0
4	2503	798946.70904935722	1
4	2505	798946.70904935722	0
4	2516	800609.398164125841	1
4	2521	800759.464827620603	0
4	2527	802612.675729788633	1
4	2529	802612.675729788633	0
4	2552	805725.680537475348	1
4	2554	805725.680537475348	0
4	2557	805768.203151514976	1
4	2562	806759.325745778818	0
4	2577	811858.454911800103	1
4	2579	811858.454911800103	0
4	2601	815943.368233048079	1
4	2603	815943.368233048079	0
4	2606	815968.44717253019	1
4	2620	817105.849776544351	0
4	2634	818993.30291091937	1
4	2636	818993.30291091937	0
4	2647	819928.732709801116	1
4	2652	820064.917370320362	0
4	2659	822104.104047602935	1
4	2661	822104.104047602935	0
4	2676	828439.328938101235	1
4	2678	828439.328938101235	0
4	2695	851212.717135740897	1
4	2697	851212.717135740897	0
4	2714	864112.168574400958	1
4	2716	864112.168574400958	0
4	2747	871654.11518867676	1
4	2749	871654.11518867676	0
4	2752	872548.963105801294	1
4	2757	872593.456631412088	0
4	2760	873253.076658666946	1
4	2765	873542.531286198662	0
4	2780	876435.103662166691	1
4	2782	876435.103662166691	0
4	2812	881087.750422805285	1
4	2814	881087.750422805285	0
4	2818	882018.484725629967	1
4	2823	882144.507342910807	0
4	2826	882319.056712311032	1
4	2839	883293.307721343081	0
4	2853	884940.585068178563	1
4	2855	884940.585068178563	0
4	2861	886407.364482714935	1
4	2863	886407.364482714935	0
4	2880	903322.772310753007	1
4	2882	903322.772310753007	0
4	2897	910813.388167775039	1
4	2899	910813.388167775039	0
4	2914	917229.793569455259	1
4	2916	917229.793569455259	0
4	2931	920048.918922760871	1
4	2933	920048.918922760871	0
4	2956	929433.505877165018	1
4	2958	929433.505877165018	0
4	2961	929504.902361687686	1
4	2967	930237.951851564171	0
4	2981	933219.651596616937	1
4	2983	933219.651596616937	0
4	2998	940645.933644230087	1
4	3000	940645.933644230087	0
4	3015	945059.48897027478	1
4	3017	945059.48897027478	0
4	3040	952107.390193600471	1
4	3042	952107.390193600471	0
4	3048	953251.430657237007	1
4	3050	953251.430657237007	0
4	3067	970946.423090159947	1
4	3069	970946.423090159947	0
4	3084	974415.732233359815	1
4	3086	974415.732233359815	0
4	3101	983942.285802847991	1
4	3103	983942.285802847991	0
4	3132	995146.0538433276	1
4	3137	995295.812160311405	0
4	3140	995793.435372729502	1
4	3146	996089.981378543176	0
4	3157	997443.156235800922	1
4	3162	997710.559782364195	0
4	3168	999567.904578971197	1
4	3170	999567.904578971197	0
4	3185	1004863.184245212618	1
4	3187	1004863.184245212618	0
4	3209	1007983.92369027851	1
4	3211	1007983.92369027851	0
4	3215	1008518.778196404008	1
4	3220	1008901.891260248017	0
4	3244	1020670.005673366206	1
4	3246	1020670.005673366206	0
4	3249	1020941.858220795417	1
4	3254	1021699.820974838631	0
4	3268	1024267.875200874099	1
4	3270	1024267.875200874099	0
4	3285	1030401.509135598628	1
4	3287	1030401.509135598628	0
4	3309	1044393.140651114356	1
4	3314	1044681.68790668316	0
4	3328	1046344.220479313046	1
4	3330	1046344.220479313046	0
4	3336	1048184.265671315099	1
4	3338	1048184.265671315099	0
5	562	204000	0
5	587	210000	2
5	612	216000	1
5	626	222000	1
5	659	228000	2
5	700	234000	3
5	752	240000	3
5	761	246000	0
5	799	252000	2
5	840	258000	3
5	868	264000	2
5	885	270000	1
5	894	276000	0
5	911	282000	1
5	920	288000	1
5	937	294000	1
5	970	300000	2
5	979	306000	0
5	996	312000	1
5	1018	318000	2
5	1030	324000	0
5	1055	330000	2
5	1096	336000	3
5	1113	342000	0
5	1122	348000	1
5	1131	354000	0
5	1140	360000	1
5	1178	366000	2
5	1219	372000	3
5	1231	378000	0
5	1232	384000	0
5	1249	390000	1
5	1266	396000	1
5	1299	402000	2
5	1321	408000	1
5	1333	414000	1
5	1366	420000	3
5	1391	426000	1
5	1408	432000	1
5	1446	438000	2
5	1458	444000	1
5	1496	450000	2
5	1548	456000	3
5	1565	462000	1
5	1582	468000	1
5	1591	474000	1
5	1600	480000	0
5	1609	486000	1
5	1634	492000	1
5	1675	498000	3
5	1700	504000	1
5	1701	510000	0
5	1718	516000	1
5	1727	522000	1
5	1736	528000	0
5	1737	534000	0
5	1754	540000	2
5	1779	546000	1
5	1796	552000	1
5	1821	558000	1
5	1822	564000	0
5	1839	570000	1
5	1840	576000	0
5	1857	582000	1
5	1898	588000	3
5	1947	594000	3
5	1980	600000	2
5	1989	606000	0
5	1990	612000	0
5	2007	618000	1
5	2008	624000	0
5	2009	630000	0
5	2026	636000	1
5	2035	642000	1
5	2076	648000	2
5	2093	654000	1
5	2094	660000	0
5	2095	666000	0
5	2104	672000	1
5	2145	678000	2
5	2175	684000	2
5	2195	690000	1
5	2225	696000	3
5	2245	702000	0
5	2267	708000	2
5	2279	714000	0
5	2296	720000	1
5	2297	726000	0
5	2314	732000	1
5	2315	738000	0
5	2348	744000	2
5	2349	750000	0
5	2350	756000	0
5	2380	762000	2
5	2384	768000	0
5	2393	774000	1
5	2410	780000	1
5	2435	786000	1
5	2436	792000	0
5	2490	798000	4
5	2547	804000	3
5	2572	810000	1
5	2608	816000	3
5	2657	822000	3
5	2674	828000	1
5	2683	834000	0
5	2684	840000	0
5	2685	846000	0
5	2699	852000	1
5	2703	858000	0
5	2712	864000	1
5	2729	870000	1
5	2778	876000	3
5	2816	882000	3
5	2868	888000	2
5	2869	894000	0
5	2870	900000	0
5	2887	906000	1
5	2904	912000	1
5	2921	918000	1
5	2938	924000	1
5	2963	930000	2
5	2988	936000	1
5	3005	942000	1
5	3022	948000	1
5	3052	954000	2
5	3056	960000	0
5	3057	966000	0
5	3074	972000	1
5	3091	978000	1
5	3105	984000	1
5	3109	990000	0
5	3142	996000	3
5	3175	1002000	1
5	3213	1008000	3
5	3225	1014000	0
5	3242	1020000	2
5	3275	1026000	1
5	3292	1032000	1
5	3293	1038000	0
5	3302	1044000	1
5	3343	1050000	2
5	3344	1056000	0
5	3345	1062000	0
6	562	204000	1
6	587	210000	1
6	612	216000	2
6	626	222000	0
6	659	228000	2
6	700	234000	2
6	752	240000	4
6	761	246000	1
6	799	252000	2
6	840	258000	2
6	868	264000	1
6	885	270000	2
6	894	276000	1
6	911	282000	1
6	920	288000	0
6	937	294000	1
6	970	300000	1
6	979	306000	2
6	996	312000	1
6	1018	318000	0
6	1030	324000	2
6	1055	330000	1
6	1096	336000	2
6	1113	342000	2
6	1122	348000	0
6	1131	354000	1
6	1140	360000	0
6	1178	366000	2
6	1219	372000	2
6	1231	378000	2
6	1232	384000	0
6	1249	390000	1
6	1266	396000	1
6	1299	402000	1
6	1321	408000	2
6	1333	414000	1
6	1366	420000	1
6	1391	426000	2
6	1408	432000	1
6	1446	438000	2
6	1458	444000	1
6	1496	450000	2
6	1548	456000	4
6	1565	462000	1
6	1582	468000	1
6	1591	474000	0
6	1600	480000	1
6	1609	486000	0
6	1634	492000	2
6	1675	498000	1
6	1700	504000	3
6	1701	510000	0
6	1718	516000	1
6	1727	522000	0
6	1736	528000	1
6	1737	534000	0
6	1754	540000	0
6	1779	546000	2
6	1796	552000	1
6	1821	558000	2
6	1822	564000	0
6	1839	570000	1
6	1840	576000	0
6	1857	582000	1
6	1898	588000	2
6	1947	594000	2
6	1980	600000	3
6	1989	606000	1
6	1990	612000	0
6	2007	618000	1
6	2008	624000	0
6	2009	630000	0
6	2026	636000	1
6	2035	642000	0
6	2076	648000	3
6	2093	654000	1
6	2094	660000	0
6	2095	666000	0
6	2104	672000	0
6	2145	678000	3
6	2175	684000	1
6	2195	690000	2
6	2225	696000	0
6	2245	702000	3
6	2267	708000	0
6	2279	714000	2
6	2296	720000	1
6	2297	726000	0
6	2314	732000	1
6	2315	738000	0
6	2348	744000	2
6	2349	750000	0
6	2350	756000	0
6	2380	762000	1
6	2384	768000	1
6	2393	774000	0
6	2410	780000	1
6	2435	786000	2
6	2436	792000	0
6	2490	798000	2
6	2547	804000	4
6	2572	810000	2
6	2608	816000	1
6	2657	822000	4
6	2674	828000	1
6	2683	834000	1
6	2684	840000	0
6	2685	846000	0
6	2699	852000	0
6	2703	858000	1
6	2712	864000	0
6	2729	870000	1
6	2778	876000	3
6	2816	882000	1
6	2868	888000	5
6	2869	894000	0
6	2870	900000	0
6	2887	906000	1
6	2904	912000	1
6	2921	918000	0
6	2938	924000	2
6	2963	930000	0
6	2988	936000	3
6	3005	942000	1
6	3022	948000	1
6	3052	954000	1
6	3056	960000	1
6	3057	966000	0
6	3074	972000	1
6	3091	978000	1
6	3105	984000	0
6	3109	990000	1
6	3142	996000	0
6	3175	1002000	4
6	3213	1008000	1
6	3225	1014000	2
6	3242	1020000	0
6	3275	1026000	3
6	3292	1032000	1
6	3293	1038000	0
6	3302	1044000	0
6	3343	1050000	3
6	3344	1056000	0
6	3345	1062000	0
7	569	204875.176912700361	1
7	571	206457.993564802003	0
7	585	209591.419150323167	1
7	594	210657.840552380318	2
7	596	211492.19505507983	1
7	601	212284.883136952109	0
7	619	220163.706381217446	1
7	621	221807.948844547574	0
7	636	224928.96027490785	1
7	644	226057.416296397816	2
7	646	226764.394904495781	1
7	651	227639.078161417089	0
7	669	228880.650595802031	1
7	671	230595.046050144541	0
7	685	231586.092436911505	1
7	693	232959.408327453672	2
7	695	233557.042062704514	1
7	704	234616.980520212096	0
7	718	235917.528731851438	1
7	726	236657.707394539197	2
7	728	237628.639717516846	1
7	736	238263.102680782624	0
7	745	238738.450826113186	1
7	753	240495.142824160904	0
7	768	247454.187551972621	1
7	776	248257.855922941629	2
7	778	249256.359588494268	1
7	786	250595.844552572823	0
7	801	252251.06965923337	1
7	808	254005.490049931261	0
7	812	254140.927372089922	1
7	824	255830.00678350691	0
7	828	256124.08057758123	1
7	835	257967.924206731634	0
7	850	261762.409296257285	1
7	858	262128.199638336412	2
7	860	263523.107134822665	1
7	865	263885.708782846224	0
7	883	269050.695715832789	1
7	886	271093.091265672541	0
7	901	278266.609457453109	1
7	903	280116.53028479324	0
7	918	287585.155063257079	1
7	921	289471.270905425943	0
7	935	292806.467235756903	1
7	938	294761.930349236158	0
7	955	297742.581250347483	1
7	960	298031.356129193995	2
7	962	299411.787108150548	1
7	967	299656.396051577119	0
7	986	307958.098550652139	1
7	988	309954.638294638703	0
7	1003	315645.364062998611	1
7	1011	316349.308462280121	2
7	1013	317159.276246578364	1
7	1019	318000.477208043927	0
7	1037	324627.642623513166	1
7	1039	326417.592788425178	0
7	1053	327967.040409467251	1
7	1056	330000.976946759564	0
7	1070	332960.745749541047	1
7	1078	334504.578093482174	2
7	1080	334557.180370665259	1
7	1094	335599.843475566241	2
7	1097	336465.382951663242	1
7	1105	337486.480914774929	0
7	1120	347578.558744712023	1
7	1123	349448.297879008125	0
7	1138	359027.996142987614	1
7	1141	360706.330784279921	0
7	1155	362919.433592201598	1
7	1163	363678.232506048515	2
7	1165	364701.950940592948	1
7	1170	365310.045029170015	0
7	1188	367442.493123607793	1
7	1195	369444.96114398515	0
7	1199	369610.38130754115	1
7	1212	370895.153738073781	2
7	1214	371525.156246156388	1
7	1223	372612.115640593239	0
7	1239	384801.975032750082	1
7	1241	386495.386105245736	0
7	1256	391116.080513769397	1
7	1258	393138.681987025912	0
7	1273	398902.596900854767	1
7	1281	399853.234242155719	2
7	1283	400689.433685664535	1
7	1291	401705.21870277707	0
7	1301	402119.009715199285	1
7	1308	403812.955180332361	0
7	1323	408057.993699742435	1
7	1325	410451.586115937966	0
7	1340	416461.268516457077	1
7	1342	418233.434918922379	0
7	1359	419484.991821881174	1
7	1364	419746.851757624712	2
7	1367	421277.752143472633	1
7	1372	421533.757780396681	0
7	1389	425077.359336633565	1
7	1392	426959.737699147274	0
7	1406	431058.706988377373	1
7	1415	432926.20184432093	2
7	1417	433044.034366653037	1
7	1425	434895.668411549902	0
7	1439	436245.311090300479	1
7	1441	437969.928237888726	0
7	1456	443320.893247720694	1
7	1465	444403.870615306835	2
7	1467	445247.534383398411	1
7	1475	446177.590454831777	0
7	1489	447344.609529095515	1
7	1491	449253.164054588729	0
7	1506	451125.177540570247	1
7	1514	452026.759102788178	2
7	1522	452449.735251927278	3
7	1524	453013.17023230423	2
7	1529	453451.678026687057	1
7	1537	454479.320026624922	0
7	1555	458739.953214609299	1
7	1557	460441.834984160928	0
7	1572	465130.719762144152	1
7	1574	466917.599523834466	0
7	1589	472551.505200319664	1
7	1592	474176.206973428176	0
7	1607	485899.215335653728	1
7	1616	486465.324223785607	2
7	1618	487730.162902063074	1
7	1623	488488.141161084115	0
7	1641	494279.732313953256	1
7	1649	495047.502587076465	2
7	1651	495746.7608759977	1
7	1664	496941.443695340244	0
7	1668	497184.575233437398	1
7	1682	498360.626770317742	2
7	1684	498878.921145320119	1
7	1692	500284.664200806416	0
7	1708	512729.501372454335	1
7	1710	514754.893279258613	0
7	1725	521375.52843679262	1
7	1728	523232.74178864211	0
7	1744	538388.880433473391	1
7	1752	539409.26855690335	2
7	1755	540222.031501883383	1
7	1763	541452.113734840469	0
7	1777	545365.95018059635	1
7	1780	547275.04057101533	0
7	1794	550561.611180643265	1
7	1797	552692.292988017774	0
7	1811	553894.112984822198	1
7	1813	555580.6850442455	0
7	1829	566951.897676462631	1
7	1831	568891.083802688509	0
7	1847	577128.045364951148	1
7	1849	579134.678854848803	0
7	1864	582271.686063793389	1
7	1866	583825.731421628352	0
7	1880	584889.545855346041	1
7	1882	586863.274156006781	0
7	1896	587991.094000415713	1
7	1899	589569.530977058107	0
7	1919	590693.667431593539	1
7	1924	591037.992392057933	2
7	1929	591339.019042076339	3
7	1931	592294.296216212415	2
7	1936	592733.123982353884	1
7	1944	593442.39856335236	0
7	1962	596838.205846436274	1
7	1964	598694.791225798856	0
7	1978	599769.26028697929	1
7	1981	601737.028337199185	0
7	1997	613726.28851294443	1
7	1999	615404.076840831667	0
7	2016	632275.220087337819	1
7	2018	633969.607027892042	0
7	2033	641231.985041228982	1
7	2045	642557.046195153913	2
7	2050	642914.215031112119	3
7	2052	642989.071108707141	2
7	2060	644338.824675985976	1
7	2065	644675.978200104415	0
7	2083	650243.419165593356	1
7	2085	651559.188252446501	0
7	2102	671560.922738088354	1
7	2111	672371.540754433877	2
7	2119	673037.509964321837	3
7	2121	673574.326213959448	2
7	2126	674143.728251329565	1
7	2134	674775.502725486754	0
7	2152	680659.437969949589	1
7	2159	682164.393764030486	0
7	2163	682186.954840033104	1
7	2170	683942.69859112723	0
7	2185	686384.581899544658	1
7	2187	688502.326246834574	0
7	2205	693848.511828022905	1
7	2210	694157.156019509894	2
7	2217	695658.9998924499	1
7	2221	695733.040477203124	2
7	2226	696236.988159063888	1
7	2237	698032.115652109804	0
7	2252	705910.654571502	1
7	2260	707307.761333698673	2
7	2262	707727.395068803937	1
7	2271	709240.156631572468	0
7	2286	714437.150402022292	1
7	2288	716237.880142428584	0
7	2304	728837.78315923152	1
7	2306	730875.060621632698	0
7	2322	738457.015536217125	1
7	2330	739707.657433106736	2
7	2332	740339.326446266041	1
7	2340	741866.275392363171	0
7	2357	758554.406244429742	1
7	2365	760138.958383249735	2
7	2367	760154.264452526136	1
7	2375	761832.980777371994	0
7	2391	773925.527395752239	1
7	2394	775593.512869246158	0
7	2408	778946.68390503964	1
7	2411	780639.007062499551	0
7	2425	782350.461933469345	1
7	2427	784449.314587250977	0
7	2443	792706.45601663011	1
7	2451	793407.755313235174	2
7	2453	794489.453521628698	1
7	2461	795283.718928363618	0
7	2470	795639.097090821862	1
7	2483	797040.249908251388	2
7	2485	797505.425824136099	1
7	2500	798806.787796411098	2
7	2502	798946.70904935722	1
7	2515	800609.398164125841	0
7	2519	800759.464827620603	1
7	2526	802612.675729788633	0
7	2543	803862.857014464848	1
7	2549	804239.111126910374	2
7	2551	805725.680537475348	1
7	2556	805768.203151514976	0
7	2574	810259.972082094734	1
7	2576	811858.454911800103	0
7	2593	813930.013949138262	1
7	2598	814201.413132932694	2
7	2600	815943.368233048079	1
7	2605	815968.44717253019	0
7	2618	817105.849776544351	1
7	2631	818292.773619671347	2
7	2633	818993.30291091937	1
7	2646	819928.732709801116	0
7	2650	820064.917370320362	1
7	2658	822104.104047602935	0
7	2672	826869.997772322356	1
7	2675	828439.328938101235	0
7	2692	850012.451867081569	1
7	2694	851212.717135740897	0
7	2710	862304.705791124322	1
7	2713	864112.168574400958	0
7	2727	869955.748952371724	1
7	2736	870823.987295905515	2
7	2744	871601.068869218398	3
7	2746	871654.11518867676	2
7	2751	872548.963105801294	1
7	2759	873253.076658666946	0
7	2776	874747.538548703007	1
7	2779	876435.103662166691	0
7	2793	879238.028908821977	1
7	2804	879969.136189795333	2
7	2809	880273.516323524354	3
7	2811	881087.750422805285	2
7	2817	882018.484725629967	1
7	2825	882319.056712311032	0
7	2837	883293.307721343081	1
7	2850	884614.997911143405	2
7	2852	884940.585068178563	1
7	2860	886407.364482714935	0
7	2877	901370.787334051956	1
7	2879	903322.772310753007	0
7	2894	909008.71464234841	1
7	2896	910813.388167775039	0
7	2911	915673.528038519299	1
7	2913	917229.793569455259	0
7	2928	918399.761950121211	1
7	2930	920048.918922760871	0
7	2948	927473.065512066745	1
7	2953	927817.129876120167	2
7	2955	929433.505877165018	1
7	2960	929504.902361687686	0
7	2978	931337.079772752957	1
7	2980	933219.651596616937	0
7	2995	938787.78960123578	1
7	2997	940645.933644230087	0
7	3012	943444.960896411968	1
7	3014	945059.48897027478	0
7	3029	950291.267746729807	1
7	3037	951293.486753320774	2
7	3039	952107.390193600471	1
7	3047	953251.430657237007	0
7	3064	968942.613728453186	1
7	3066	970946.423090159947	0
7	3081	972300.122027760016	1
7	3083	974415.732233359815	0
7	3098	981947.828596041929	1
7	3100	983942.285802847991	0
7	3116	993357.392968984481	1
7	3124	994220.309455587232	2
7	3131	995146.0538433276	1
7	3135	995295.812160311405	2
7	3139	995793.435372729502	1
7	3156	997443.156235800922	0
7	3160	997710.559782364195	1
7	3167	999567.904578971197	0
7	3182	1003312.492276435663	1
7	3184	1004863.184245212618	0
7	3198	1006080.657723731499	1
7	3206	1006630.191537695303	2
7	3208	1007983.92369027851	1
7	3214	1008518.778196404008	0
7	3232	1018860.83084815145	1
7	3240	1019304.071399828529	2
7	3243	1020670.005673366206	1
7	3248	1020941.858220795417	0
7	3265	1022794.713471986121	1
7	3267	1024267.875200874099	0
7	3282	1028782.707958827978	1
7	3284	1030401.509135598628	0
7	3300	1042469.80281780437	1
7	3308	1044393.140651114356	0
7	3312	1044681.68790668316	1
7	3325	1046177.568183432469	2
7	3327	1046344.220479313046	1
7	3335	1048184.265671315099	0
