file 37615 1484074186                                           
version 2
run ResponseMeasurement-40-20170110-19:49:46-23226
attr configname ResponseMeasurement
attr datetime 20170110-19:49:46
attr experiment ResponseMeasurement
attr inifile responseStudy.ini
attr iterationvars ""
attr iterationvars2 $repetition=40
attr measurement ""
attr network controltower.SimNetwork
attr processid 23226
attr repetition 40
attr replication #40
attr resultdir results
attr runnumber 40
attr seedset 40
param SimNetwork.a.parkingLot.parkingDelay "truncnormal(30min, 3min)"
param SimNetwork.a.runway.landingTime "truncnormal(5min, 0.5min)"
param SimNetwork.a.runway.takeoffTime "truncnormal(15min, 1.5min)"
param SimNetwork.a.runway.throughputCheckInterval 100min
param SimNetwork.wg.interArrivalTime exponential(100min)

vector 7  SimNetwork.a.parkingLot  parkingOccupancy:vector  ETV
attr source  parkingOccupancy
vector 4  SimNetwork.a.takeoffQueue  queueLength:vector  ETV
attr source  queueLengthSignal
vector 3  SimNetwork.a.takeoffQueue  queueTime:vector  ETV
attr source  queueTimeSignal
vector 0  SimNetwork.wg  responseTime:vector  ETV
attr source  responseTimeSignal
vector 5  SimNetwork.a.runway  landedThroughput:vector  ETV
attr source  landedThroughputSignal
vector 6  SimNetwork.a.runway  tookoffThroughput:vector  ETV
attr source  tookoffThroughputSignal
vector 2  SimNetwork.a.landingQueue  queueLength:vector  ETV
attr source  queueLengthSignal
vector 1  SimNetwork.a.landingQueue  queueTime:vector  ETV
attr source  queueTimeSignal
0	1476 4863 736 2685 200614.356893657961 1048911.872283835448 114 3027.3229158449 34032.722553945 1207088.998199 18092415628.739
1	6339 3469 742 2693 204794.895420606225 1063487.720657976119 114 0 944.94067288878 5582.3004470663 3520569.1282871
2	9808 6576 740 2693 204794.895420606225 1063487.720657976119 228 0 2 118 122
3	16384 3524 733 2682 199748.517272261604 1047991.590954084265 114 0 1271.6846445334 7946.0805895561 5501716.0982358
4	19908 6573 731 2682 199748.517272261604 1047991.590954084265 228 0 2 116 118
5	26481 2296 738 2689 204000 1062000 144 0 3 114 192
6	28777 2296 738 2689 204000 1062000 144 0 3 115 187
7	31073 6542 730 2679 199748.517272261604 1047991.590954084265 227 0 3 165 225
