file 44190 1484074189                                           
version 2
run ResponseMeasurement-55-20170110-19:49:49-23241
attr configname ResponseMeasurement
attr datetime 20170110-19:49:49
attr experiment ResponseMeasurement
attr inifile responseStudy.ini
attr iterationvars ""
attr iterationvars2 $repetition=55
attr measurement ""
attr network controltower.SimNetwork
attr processid 23241
attr repetition 55
attr replication #55
attr resultdir results
attr runnumber 55
attr seedset 55
param SimNetwork.a.parkingLot.parkingDelay "truncnormal(30min, 3min)"
param SimNetwork.a.runway.landingTime "truncnormal(5min, 0.5min)"
param SimNetwork.a.runway.takeoffTime "truncnormal(15min, 1.5min)"
param SimNetwork.a.runway.throughputCheckInterval 100min
param SimNetwork.wg.interArrivalTime exponential(100min)

vector 7  SimNetwork.a.parkingLot  parkingOccupancy:vector  ETV
attr source  parkingOccupancy
vector 4  SimNetwork.a.takeoffQueue  queueLength:vector  ETV
attr source  queueLengthSignal
vector 3  SimNetwork.a.takeoffQueue  queueTime:vector  ETV
attr source  queueTimeSignal
vector 2  SimNetwork.a.landingQueue  queueLength:vector  ETV
attr source  queueLengthSignal
vector 0  SimNetwork.wg  responseTime:vector  ETV
attr source  responseTimeSignal
vector 1  SimNetwork.a.landingQueue  queueTime:vector  ETV
attr source  queueTimeSignal
vector 5  SimNetwork.a.runway  landedThroughput:vector  ETV
attr source  landedThroughputSignal
vector 6  SimNetwork.a.runway  tookoffThroughput:vector  ETV
attr source  tookoffThroughputSignal
0	1476 5894 563 2894 200885.51187356633 1053604.837273646302 138 3124.4670205854 48751.287678697 1286673.381027 18314685653.652
1	7370 4256 565 2875 200885.51187356633 1050709.113477605205 137 0 888.58293858482 7737.8431960663 3689501.8312302
2	11626 7868 560 2875 200239.82519383171 1050709.113477605205 274 0 2 139 141
3	19494 4293 557 2891 200166.297733820767 1052865.57137481938 138 0 979.64840035887 9576.5412973799 5434641.4392108
4	23787 7924 555 2891 200166.297733820767 1052865.57137481938 276 0 1 138 138
5	31711 2290 578 2897 204000 1062000 144 0 4 138 258
6	34001 2290 578 2897 204000 1062000 144 0 4 138 270
7	36291 7899 554 2888 200166.297733820767 1052865.57137481938 275 0 3 213 297
