file 39663 1484074198                                           
version 2
run ResponseMeasurement-99-20170110-19:49:58-23285
attr configname ResponseMeasurement
attr datetime 20170110-19:49:58
attr experiment ResponseMeasurement
attr inifile responseStudy.ini
attr iterationvars ""
attr iterationvars2 $repetition=99
attr measurement ""
attr network controltower.SimNetwork
attr processid 23285
attr repetition 99
attr replication #99
attr resultdir results
attr runnumber 99
attr seedset 99
param SimNetwork.a.parkingLot.parkingDelay "truncnormal(30min, 3min)"
param SimNetwork.a.runway.landingTime "truncnormal(5min, 0.5min)"
param SimNetwork.a.runway.takeoffTime "truncnormal(15min, 1.5min)"
param SimNetwork.a.runway.throughputCheckInterval 100min
param SimNetwork.wg.interArrivalTime exponential(100min)

vector 2  SimNetwork.a.landingQueue  queueLength:vector  ETV
attr source  queueLengthSignal
vector 1  SimNetwork.a.landingQueue  queueTime:vector  ETV
attr source  queueTimeSignal
vector 7  SimNetwork.a.parkingLot  parkingOccupancy:vector  ETV
attr source  parkingOccupancy
vector 4  SimNetwork.a.takeoffQueue  queueLength:vector  ETV
attr source  queueLengthSignal
vector 3  SimNetwork.a.takeoffQueue  queueTime:vector  ETV
attr source  queueTimeSignal
vector 5  SimNetwork.a.runway  landedThroughput:vector  ETV
attr source  landedThroughputSignal
vector 6  SimNetwork.a.runway  tookoffThroughput:vector  ETV
attr source  tookoffThroughputSignal
vector 0  SimNetwork.wg  responseTime:vector  ETV
attr source  responseTimeSignal
0	1476 5124 561 2606 204180.913413445941 1055432.237603031738 120 3681.0023091311 46682.563995451 1241323.9638536 21231048902.025
1	6600 3857 549 2613 201317.57204177443 1063034.984640301258 121 0 830.82746766359 10059.205331327 5258417.4794012
2	10457 6963 547 2613 201317.57204177443 1063034.984640301258 242 0 1 121 121
3	17420 3836 557 2603 203147.332727443142 1054663.739765751176 120 0 917.90792368759 12416.296339118 7081496.2373462
4	21256 6915 555 2603 203147.332727443142 1054663.739765751176 240 0 2 122 124
5	28171 2277 559 2609 204000 1062000 144 0 5 120 248
6	30448 2277 559 2609 204000 1062000 144 0 4 120 226
7	32725 6938 552 2616 201615.089552268865 1063357.800869818726 241 0 3 193 273
