version 2
run ResponseMeasurement-146-20170110-19:50:12-23332
attr configname ResponseMeasurement
attr datetime 20170110-19:50:12
attr experiment ResponseMeasurement
attr inifile responseStudy.ini
attr iterationvars ""
attr iterationvars2 $repetition=146
attr measurement ""
attr network controltower.SimNetwork
attr processid 23332
attr repetition 146
attr replication #146
attr resultdir results
attr runnumber 146
attr seedset 146
param SimNetwork.a.parkingLot.parkingDelay "truncnormal(30min, 3min)"
param SimNetwork.a.runway.landingTime "truncnormal(5min, 0.5min)"
param SimNetwork.a.runway.takeoffTime "truncnormal(15min, 1.5min)"
param SimNetwork.a.runway.throughputCheckInterval 100min
param SimNetwork.wg.interArrivalTime exponential(100min)

statistic SimNetwork.wg 	responseTime:stats
field count 149
field mean 8837.7003616855
field stddev 5193.115734039
field sum 1316817.3538911
field sqrsum 15628967956.772
field min 3329.9429794366
field max 31726.923685669
attr source  responseTimeSignal
scalar SimNetwork.a.landingQueue 	queueLength:timeavg 	0.012368333287685
attr source  queueLengthSignal
statistic SimNetwork.a.landingQueue 	queueLength:stats
field count 298
field mean 0.50671140939597
field stddev 0.50747469188097
field sum 151
field sqrsum 153
field min 0
field max 2
attr source  queueLengthSignal
statistic SimNetwork.a.landingQueue 	queueTime:stats
field count 149
field mean 71.088283683799
field stddev 195.09555145716
field sum 10592.154268886
field sqrsum 6386194.6488482
field min 0
field max 956.51388184528
attr source  queueTimeSignal
scalar SimNetwork.a.takeoffQueue 	queueLength:timeavg 	0.011915089095811
attr source  queueLengthSignal
statistic SimNetwork.a.takeoffQueue 	queueLength:stats
field count 298
field mean 0.51342281879195
field stddev 0.51393480676589
field sum 153
field sqrsum 157
field min 0
field max 2
attr source  queueLengthSignal
statistic SimNetwork.a.takeoffQueue 	queueTime:stats
field count 149
field mean 68.311456497623
field stddev 198.4446653208
field sum 10178.407018146
field sqrsum 6523584.0169893
field min 0
field max 1033.341460421
attr source  queueTimeSignal
scalar SimNetwork.a.parkingLot 	parkingOccupancy:timeavg 	0.31132338192506
attr source  parkingOccupancy
statistic SimNetwork.a.parkingLot 	parkingOccupancy:stats
field count 298
field mean 0.82214765100671
field stddev 0.73299768605051
field sum 245
field sqrsum 361
field min 0
field max 3
attr source  parkingOccupancy
