file 40502 1484074199                                           
version 2
run ResponseMeasurement-102-20170110-19:49:59-23288
attr configname ResponseMeasurement
attr datetime 20170110-19:49:59
attr experiment ResponseMeasurement
attr inifile responseStudy.ini
attr iterationvars ""
attr iterationvars2 $repetition=102
attr measurement ""
attr network controltower.SimNetwork
attr processid 23288
attr repetition 102
attr replication #102
attr resultdir results
attr runnumber 102
attr seedset 102
param SimNetwork.a.parkingLot.parkingDelay "truncnormal(30min, 3min)"
param SimNetwork.a.runway.landingTime "truncnormal(5min, 0.5min)"
param SimNetwork.a.runway.takeoffTime "truncnormal(15min, 1.5min)"
param SimNetwork.a.runway.throughputCheckInterval 100min
param SimNetwork.wg.interArrivalTime exponential(100min)

vector 2  SimNetwork.a.landingQueue  queueLength:vector  ETV
attr source  queueLengthSignal
vector 1  SimNetwork.a.landingQueue  queueTime:vector  ETV
attr source  queueTimeSignal
vector 7  SimNetwork.a.parkingLot  parkingOccupancy:vector  ETV
attr source  parkingOccupancy
vector 4  SimNetwork.a.takeoffQueue  queueLength:vector  ETV
attr source  queueLengthSignal
vector 3  SimNetwork.a.takeoffQueue  queueTime:vector  ETV
attr source  queueTimeSignal
vector 5  SimNetwork.a.runway  landedThroughput:vector  ETV
attr source  landedThroughputSignal
vector 6  SimNetwork.a.runway  tookoffThroughput:vector  ETV
attr source  tookoffThroughputSignal
vector 0  SimNetwork.wg  responseTime:vector  ETV
attr source  responseTimeSignal
0	1482 5275 529 2639 204374.71687794407 1060443.645559841748 124 3609.230943809 28126.684725168 1251063.8999662 16966460037.274
1	6757 3909 517 2645 201848.686295742967 1062061.461137024929 125 0 892.36792140846 8267.1684842638 4439636.8608881
2	10666 7181 515 2645 201848.686295742967 1062061.461137024929 250 0 1 125 125
3	17847 3836 525 2636 203467.689109010264 1059478.987546372979 124 0 1099.5096015765 7083.4696890838 3765433.6341428
4	21683 7114 523 2636 203467.689109010264 1059478.987546372979 248 0 2 126 128
5	28797 2281 527 2641 204000 1062000 144 0 4 124 200
6	31078 2281 527 2641 204000 1062000 144 0 4 124 220
7	33359 7143 520 2648 202168.125070011464 1062393.672345619822 249 0 3 173 233
