file 26907 1483972263                                           
version 2
run WarmupMeasurement-9-20170109-15:31:03-1932
attr configname WarmupMeasurement
attr datetime 20170109-15:31:03
attr experiment WarmupMeasurement
attr inifile responseStudy.ini
attr iterationvars ""
attr iterationvars2 $repetition=9
attr measurement ""
attr network controltower.SimNetwork
attr processid 1932
attr repetition 9
attr replication #9
attr resultdir results
attr runnumber 9
attr seedset 9
param SimNetwork.a.parkingLot.parkingDelay "truncnormal(30min, 3min)"
param SimNetwork.a.runway.landingTime "truncnormal(5min, 0.5min)"
param SimNetwork.a.runway.takeoffTime "truncnormal(15min, 1.5min)"
param SimNetwork.a.runway.throughputCheckInterval 100min
param SimNetwork.wg.interArrivalTime exponential(100min)

vector 2  SimNetwork.a.landingQueue  queueLength:vector  ETV
attr source  queueLengthSignal
vector 1  SimNetwork.a.landingQueue  queueTime:vector  ETV
attr source  queueTimeSignal
vector 7  SimNetwork.a.parkingLot  parkingOccupancy:vector  ETV
attr source  parkingOccupancy
vector 4  SimNetwork.a.takeoffQueue  queueLength:vector  ETV
attr source  queueLengthSignal
vector 3  SimNetwork.a.takeoffQueue  queueTime:vector  ETV
attr source  queueTimeSignal
vector 0  SimNetwork.wg  responseTime:vector  ETV
attr source  responseTimeSignal
vector 5  SimNetwork.a.runway  landedThroughput:vector  ETV
attr source  landedThroughputSignal
vector 6  SimNetwork.a.runway  tookoffThroughput:vector  ETV
attr source  tookoffThroughputSignal
0	1462 3590 18 1445 3218.059002457219 421922.850846115748 86 3218.0590024572 26113.112665035 694226.51585766 7091426868.3234
1	5052 2676 4 1433 62.570068922204 419267.389065199232 86 0 953.89034416609 9714.4272945863 5918356.4459136
2	7728 4772 2 1433 62.570068922204 419267.389065199232 172 0 2 88 90
3	12500 2659 12 1442 2337.559149721511 420977.285340995277 86 0 831.70820534336 6289.5834119587 3331504.2556089
4	15159 4790 10 1442 2337.559149721511 420977.285340995277 172 0 1 86 86
5	19949 1090 54 1448 6000 432000 72 0 4 86 194
6	21039 1090 54 1448 6000 432000 72 0 3 86 166
7	22129 4778 7 1439 327.152718667017 420977.285340995277 172 0 3 142 210
