file 183613 1483892896                                          
version 2
run ParkingMeasurement-140-20170108-17:28:16-4585
attr configname ParkingMeasurement
attr datetime 20170108-17:28:16
attr experiment ParkingMeasurement
attr inifile parkingStudy.ini
attr iterationvars ""
attr iterationvars2 $repetition=140
attr measurement ""
attr network controltower.SimNetwork
attr processid 4585
attr repetition 140
attr replication #140
attr resultdir results
attr runnumber 140
attr seedset 140
param SimNetwork.a.parkingLot.parkingDelay "truncnormal(60min, 6min)"
param SimNetwork.a.runway.landingTime "truncnormal(15min, 1.5min)"
param SimNetwork.a.runway.takeoffTime "truncnormal(5min, 0.5min)"
param SimNetwork.a.runway.throughputCheckInterval 28.571min
param SimNetwork.wg.interArrivalTime exponential(28.571min)

vector 5  SimNetwork.a.runway  landedThroughput:vector  ETV
attr source  landedThroughputSignal
vector 6  SimNetwork.a.runway  tookoffThroughput:vector  ETV
attr source  tookoffThroughputSignal
vector 7  SimNetwork.a.parkingLot  parkingOccupancy:vector  ETV
attr source  parkingOccupancy
vector 4  SimNetwork.a.takeoffQueue  queueLength:vector  ETV
attr source  queueLengthSignal
vector 3  SimNetwork.a.takeoffQueue  queueTime:vector  ETV
attr source  queueTimeSignal
vector 0  SimNetwork.wg  responseTime:vector  ETV
attr source  responseTimeSignal
vector 2  SimNetwork.a.landingQueue  queueLength:vector  ETV
attr source  queueLengthSignal
vector 1  SimNetwork.a.landingQueue  queueTime:vector  ETV
attr source  queueTimeSignal
0	1482 23467 1959 11206 201491.427861067209 1122930.097543782889 545 4907.4956220733 21715.117202286 4877205.8555798 48592992388.545
1	24949 21324 1971 11211 204038.590710843012 1123022.337386260287 546 0 3106.9291970957 279148.39130985 353021347.54556
2	46273 31839 1969 11211 204038.590710843012 1123022.337386260287 1092 0 4 846 1270
3	78112 21360 1956 11202 201205.660409689319 1122669.038733579891 545 0 14746.359324788 1061333.0478186 6072110537.0067
4	99472 31819 1948 11202 200586.296784590834 1122669.038733579891 1090 0 14 2077 10861
5	131291 10256 1946 11204 200568.42 1122840.3 539 0 3 546 868
6	141547 10256 1946 11204 200568.42 1122840.3 539 0 6 545 1311
7	151803 31810 1947 11199 200586.296784590834 1122669.038733579891 1091 0 5 2742 8398
