version 2
run ParkingMeasurement-74-20170108-17:28:07-4387
attr configname ParkingMeasurement
attr datetime 20170108-17:28:07
attr experiment ParkingMeasurement
attr inifile parkingStudy.ini
attr iterationvars ""
attr iterationvars2 $repetition=74
attr measurement ""
attr network controltower.SimNetwork
attr processid 4387
attr repetition 74
attr replication #74
attr resultdir results
attr runnumber 74
attr seedset 74
param SimNetwork.a.parkingLot.parkingDelay "truncnormal(60min, 6min)"
param SimNetwork.a.runway.landingTime "truncnormal(15min, 1.5min)"
param SimNetwork.a.runway.takeoffTime "truncnormal(5min, 0.5min)"
param SimNetwork.a.runway.throughputCheckInterval 28.571min
param SimNetwork.wg.interArrivalTime exponential(28.571min)

statistic SimNetwork.wg 	responseTime:stats
field count 512
field mean 9156.4577625658
field stddev 3309.4837500304
field sum 4688106.3744337
field sqrsum 48523268859.384
field min 4825.5361838694
field max 22919.782780266
attr source  responseTimeSignal
scalar SimNetwork.a.landingQueue 	queueLength:timeavg 	0.2945354021601
attr source  queueLengthSignal
statistic SimNetwork.a.landingQueue 	queueLength:stats
field count 1028
field mean 0.81712062256809
field stddev 0.83940134753422
field sum 840
field sqrsum 1410
field min 0
field max 5
attr source  queueLengthSignal
statistic SimNetwork.a.landingQueue 	queueTime:stats
field count 514
field mean 528.48167627762
field stddev 699.84377592142
field sum 271639.58160669
field sqrsum 394814353.81788
field min 0
field max 3735.63907335
attr source  queueTimeSignal
scalar SimNetwork.a.takeoffQueue 	queueLength:timeavg 	1.1370986794384
attr source  queueLengthSignal
statistic SimNetwork.a.takeoffQueue 	queueLength:stats
field count 1026
field mean 1.9814814814815
field stddev 2.6753888521836
field sum 2033
field sqrsum 11365
field min 0
field max 14
attr source  queueLengthSignal
statistic SimNetwork.a.takeoffQueue 	queueTime:stats
field count 513
field mean 2045.8257275056
field stddev 2899.9812054694
field sum 1049508.5982104
field sqrsum 6452975879.4001
field min 0
field max 13454.980034817
attr source  queueTimeSignal
scalar SimNetwork.a.parkingLot 	parkingOccupancy:timeavg 	1.9956477935505
attr source  parkingOccupancy
statistic SimNetwork.a.parkingLot 	parkingOccupancy:stats
field count 1028
field mean 2.4513618677043
field stddev 1.2389995388376
field sum 2520
field sqrsum 7754
field min 0
field max 5
attr source  parkingOccupancy
