file 180817 1483892890                                          
version 2
run ParkingMeasurement-111-20170108-17:28:10-4498
attr configname ParkingMeasurement
attr datetime 20170108-17:28:10
attr experiment ParkingMeasurement
attr inifile parkingStudy.ini
attr iterationvars ""
attr iterationvars2 $repetition=111
attr measurement ""
attr network controltower.SimNetwork
attr processid 4498
attr repetition 111
attr replication #111
attr resultdir results
attr runnumber 111
attr seedset 111
param SimNetwork.a.parkingLot.parkingDelay "truncnormal(60min, 6min)"
param SimNetwork.a.runway.landingTime "truncnormal(15min, 1.5min)"
param SimNetwork.a.runway.takeoffTime "truncnormal(5min, 0.5min)"
param SimNetwork.a.runway.throughputCheckInterval 28.571min
param SimNetwork.wg.interArrivalTime exponential(28.571min)

vector 5  SimNetwork.a.runway  landedThroughput:vector  ETV
attr source  landedThroughputSignal
vector 6  SimNetwork.a.runway  tookoffThroughput:vector  ETV
attr source  tookoffThroughputSignal
vector 7  SimNetwork.a.parkingLot  parkingOccupancy:vector  ETV
attr source  parkingOccupancy
vector 4  SimNetwork.a.takeoffQueue  queueLength:vector  ETV
attr source  queueLengthSignal
vector 2  SimNetwork.a.landingQueue  queueLength:vector  ETV
attr source  queueLengthSignal
vector 1  SimNetwork.a.landingQueue  queueTime:vector  ETV
attr source  queueTimeSignal
vector 3  SimNetwork.a.takeoffQueue  queueTime:vector  ETV
attr source  queueTimeSignal
vector 0  SimNetwork.wg  responseTime:vector  ETV
attr source  responseTimeSignal
0	1482 22975 1765 10866 203227.748702062791 1122862.691036012224 534 5052.641836528 20420.871998734 4752356.2882744 46143891395.404
1	24457 21065 1748 10868 201012.30451669744 1122862.691036012224 539 0 3953.499372411 277716.96018576 379872487.04176
2	45522 31408 1748 10868 201012.30451669744 1122862.691036012224 1077 0 5 850 1350
3	76930 20795 1762 10856 202934.927421282321 1122500.155582869756 534 0 10183.762774451 998992.77445639 4633697585.7815
4	97725 31254 1743 10862 200573.399195991269 1122735.71987965132 1071 0 10 2056 8996
5	128979 10222 1741 10864 200568.42 1122840.3 539 0 2 540 870
6	139201 10222 1741 10864 200568.42 1122840.3 539 0 6 534 1360
7	149423 31394 1742 10861 200573.399195991269 1122735.71987965132 1076 0 5 2736 8546
