version 2
run ParkingMeasurement-142-20170108-17:28:17-4591
attr configname ParkingMeasurement
attr datetime 20170108-17:28:17
attr experiment ParkingMeasurement
attr inifile parkingStudy.ini
attr iterationvars ""
attr iterationvars2 $repetition=142
attr measurement ""
attr network controltower.SimNetwork
attr processid 4591
attr repetition 142
attr replication #142
attr resultdir results
attr runnumber 142
attr seedset 142
param SimNetwork.a.parkingLot.parkingDelay "truncnormal(60min, 6min)"
param SimNetwork.a.runway.landingTime "truncnormal(15min, 1.5min)"
param SimNetwork.a.runway.takeoffTime "truncnormal(5min, 0.5min)"
param SimNetwork.a.runway.throughputCheckInterval 28.571min
param SimNetwork.wg.interArrivalTime exponential(28.571min)

vector 7  SimNetwork.a.parkingLot  parkingOccupancy:vector  ETV
attr source  parkingOccupancy
vector 2  SimNetwork.a.landingQueue  queueLength:vector  ETV
attr source  queueLengthSignal
vector 1  SimNetwork.a.landingQueue  queueTime:vector  ETV
attr source  queueTimeSignal
vector 5  SimNetwork.a.runway  landedThroughput:vector  ETV
attr source  landedThroughputSignal
vector 6  SimNetwork.a.runway  tookoffThroughput:vector  ETV
attr source  tookoffThroughputSignal
vector 4  SimNetwork.a.takeoffQueue  queueLength:vector  ETV
attr source  queueLengthSignal
vector 3  SimNetwork.a.takeoffQueue  queueTime:vector  ETV
attr source  queueTimeSignal
vector 0  SimNetwork.wg  responseTime:vector  ETV
attr source  responseTimeSignal
0	2093	201618.710470865448	14087.498715865
0	2104	201983.626293970382	10411.847236031
0	2109	202243.470299309698	8093.1030648738
0	2115	202530.010940984691	7969.9669816571
0	2123	202810.353135063424	8115.9245936772
0	2136	203933.132847906818	9262.1174081272
0	2142	204217.713494783661	9360.9015717663
0	2153	204567.647165017432	8724.7357869299
0	2167	205748.700216032922	10618.989675203
0	2184	207426.412677304676	10026.308400682
0	2212	210317.815651734813	7570.7201637704
0	2217	210649.484053668669	6330.1284882761
0	2246	212993.42779764626	7004.1808675331
0	2259	214225.935231814629	6768.821652943
0	2276	215612.461562383761	6613.2013643778
0	2305	218049.96255546671	6882.2759156621
0	2310	218330.741964913681	7049.8217854112
0	2330	220190.211491237759	7265.4794496328
0	2335	220435.767576781117	6025.5261743867
0	2344	222361.818725081789	6357.075929136
0	2379	226429.423936961817	9913.8966569846
0	2407	229307.852113830494	5795.7366164389
0	2415	229590.632187569572	10440.778907954
0	2429	230895.37489698146	6769.8780144469
0	2438	231778.864749696662	7604.8722540803
0	2463	234385.197217625581	7076.5379901898
0	2474	234703.195361932045	6789.1386822328
0	2492	237142.259102171016	4705.189548007
0	2497	237411.402350004479	8094.4744735259
0	2523	240238.016047860239	7527.2218837159
0	2532	242819.306493606888	8308.0683839237
0	2541	243462.895553325394	5892.4115925088
0	2569	250900.296554817824	12913.324112875
0	2586	253604.194472589001	7079.7102001952
0	2597	257628.666021403852	8598.522941517
0	2632	263189.079000780337	10880.211895835
0	2644	264720.62669981463	6925.2031439695
0	2658	265989.753992788664	6277.8210172093
0	2692	270480.306116396176	10173.690059928
0	2713	273037.717834065321	8382.274272741
0	2718	273327.927047730271	5721.7126397949
0	2735	274713.839967740749	6406.74808422
0	2743	275958.440831231149	7398.096516095
0	2769	278574.344743099281	6720.5272408379
0	2787	281188.324138528047	7839.9989764243
0	2795	281506.253220273609	5348.752021647
0	2821	284760.717880807668	7483.4670799186
0	2830	287786.985908779363	7796.0854268557
0	2839	288777.87891484139	6062.0713631027
0	2869	298598.6195890093	15496.180516831
0	2882	301919.214203678222	8270.8604954704
0	2916	305600.75976119585	8942.6953629823
0	3016	313913.752898190762	12186.851172125
0	3021	314199.532854377743	11586.222721538
0	3029	314533.131758726469	9036.2505240725
0	3034	314895.580116073513	11567.310672544
0	3042	315241.548422193297	9035.6822714725
0	3056	316521.928887921278	10290.08937887
0	3064	316836.897929347266	10082.75994023
0	3070	317152.396582101379	9734.3647179599
0	3081	317464.229277398442	8344.1756538934
0	3111	320289.239139248879	10669.299020273
0	3120	320593.619245702208	8818.2128377277
0	3130	321780.83087682278	9469.924053318
0	3182	326088.518752247992	10868.693501315
0	3187	326377.621219076254	9051.8775075357
0	3195	326663.177918400749	8617.6628101301
0	3200	326967.273390194445	8516.5968825159
0	3205	327264.706512976447	6686.3553038507
0	3214	328025.813427258588	6087.2092930807
0	3234	329931.05117473678	7957.4240559677
0	3239	330240.449779994863	7432.8341455547
0	3265	333881.89202986447	10309.830436949
0	3275	336555.89098679825	7865.9042259039
0	3284	337818.259467185681	6218.53701739
0	3335	343326.99679400374	10919.753133389
0	3343	344209.462191043005	6184.1402339136
0	3355	344607.75943102663	6539.3506321784
0	3371	345932.853165815848	7540.7031389506
0	3385	347115.333020020165	6524.7297066658
0	3403	349839.028526828316	7918.6935181321
0	3423	351567.442984239512	7154.9963895591
0	3436	352798.451082146942	7063.4352163433
0	3457	355768.864188174479	5300.0539212267
0	3465	356102.02120465758	8984.8938251831
0	3574	366102.417336579807	14546.561205637
0	3579	366431.435838377375	12364.582125148
0	3587	366685.353589044115	10913.558853145
0	3604	367784.163903812767	10158.154014673
0	3609	368069.648118068167	10009.317533782
0	3614	368341.035851631356	10242.646708655
0	3623	368616.047778100099	9156.638910583
0	3628	368945.241205092579	9129.6626710352
0	3633	369224.652179631747	9183.9473731074
0	3641	369527.153403051	6997.8832140669
0	3655	370722.58550089268	7516.842970974
0	3672	372365.527614934223	8380.3923462198
0	3681	374432.451949644894	7904.6924094863
0	3698	376390.676408425346	6907.5388751835
0	3708	380146.023525113889	8947.40855194
0	3796	390868.263611714594	15711.854979139
0	3801	391169.670864507013	9564.6435367385
0	3809	391462.92458991926	7641.7588774512
0	3817	391770.119548695792	7306.6406035756
0	3831	392826.357286477325	7173.9268042577
0	3836	393088.022866146044	6456.9826235377
0	3856	394549.777598279203	7369.4768497003
0	3861	394855.061704878458	6816.5943983081
0	3878	397182.923414532137	8570.5010527235
0	3887	398619.346633395319	7145.8319783262
0	3904	400900.287988008579	7550.4416055601
0	3938	404516.642620422309	8439.3067235217
0	3967	407929.038233521916	8180.5070546001
0	3979	408265.132447032599	6933.8070008728
0	3989	409471.841119411731	7564.314346944
0	4001	410777.099320831369	7653.5721916916
0	4015	412245.048524523314	6308.7650125859
0	4024	413263.770742105913	7248.6352872569
0	4049	415701.328230051883	7562.8459199215
0	4081	419149.67427736617	8490.7361716916
0	4092	420326.676258564516	6609.3301452744
0	4112	422295.88417593571	7746.098946985
0	4117	422654.899037461483	6346.0412723731
0	4126	423883.464162304042	7292.3015530096
0	4180	429379.124291243179	10409.882217067
0	4188	429690.837260491624	8646.9033282949
0	4202	430894.52755348994	6196.7758089638
0	4210	431413.261441785182	6677.9311347117
0	4222	432330.174367940831	7180.800093089
0	4227	432580.713284018454	7179.5318277243
0	4253	435494.070094449157	8218.0704749195
0	4282	438947.671041488047	9312.5717333372
0	4287	439204.832467492401	5817.8778472995
0	4325	444000.683292929212	9861.4627511681
0	4330	444252.467874737904	7372.0331034319
0	4339	445919.094342436406	9002.2532833699
0	4347	446554.567985241881	5597.3308945199
0	4381	449897.160287157677	8772.3079636191
0	4398	451429.003058176339	9569.5353934617
0	4426	453756.810067711156	6822.5685248906
0	4431	454044.15378587785	6309.2854434482
0	4440	454883.210070167853	6283.7273229475
0	4477	458727.939483324409	8424.5023443862
0	4482	458974.741777774588	7419.694934239
0	4491	459975.871356386031	8251.0206836424
0	4536	464259.82188446768	8872.9834196957
0	4541	464532.402211978015	8749.1777211653
0	4550	465219.280458460462	9244.5034450031
0	4562	466865.240050672982	6328.1894667856
0	4598	469697.219914186081	8669.3926233089
0	4609	471029.753240803728	9741.4170401682
0	4629	472833.026446630339	11161.211377465
0	4638	473166.501721806277	6575.5522322901
0	4643	473481.726093586712	6533.5751717476
0	4652	475411.981464524911	7529.1242147539
0	4660	476169.714160951886	6512.3973855133
0	4737	487627.364318142268	16159.046516496
0	4742	487912.916245041548	6858.8556615479
0	4747	488193.943274859464	6262.7041878477
0	4756	489188.310137758164	7245.86973515
0	4764	489792.297302671621	6174.2459683577
0	4773	490317.280057898474	6584.6750941198
0	4815	494509.381659673928	10591.042152803
0	4823	494871.027581892587	8977.3845878843
0	4835	495876.91888197297	5500.1163232854
0	4849	497144.292961647194	6763.3369971257
0	4874	499768.830206050936	7767.5827412113
0	4883	500842.624330824563	8253.1442566665
0	4911	503243.963926535874	7405.7009848078
0	4916	503568.464608189915	5867.1111901262
0	4925	505493.34412993723	7427.5118466822
0	4934	506916.4116679502	5669.6771568155
0	4953	511931.787130142505	10054.024554384
0	5027	519253.53012700192	11908.901727206
0	5033	519599.409305728644	7081.2927210249
0	5041	519900.494624520114	6366.0200019505
0	5055	521217.198256768833	7366.8498257013
0	5063	521620.506397924763	6385.0476290577
0	5071	522217.678950324217	6959.3624628119
0	5080	523064.005549654125	6573.4802481475
0	5097	524635.375055804293	7289.8366497046
0	5123	528055.722189353558	8245.9320284535
0	5139	529566.349593339633	6322.5268840587
0	5177	533258.75983669276	8123.7198061045
0	5182	533567.896350771996	6795.356415002
0	5199	535504.099016761041	7178.8361233037
0	5207	536017.221150738091	5676.0161640988
0	5236	539020.340526505239	8614.8012467367
0	5241	539279.557628313843	8265.5957123301
0	5259	542382.477468598203	8526.7622518875
0	5279	543753.209384908708	6778.6210466798
0	5293	545616.217507710376	7842.7095971292
0	5313	548157.349319729942	6898.2275034571
0	5318	548461.265783724749	5884.823759494
0	5328	551713.872834370964	8147.1726551158
0	5395	559393.947035149454	12555.47910808
0	5400	559692.378868958492	6487.3951141399
0	5405	559996.609949792162	6786.2815006571
0	5454	564009.978001897841	9506.6642093022
0	5459	564279.002626766176	7791.6054835735
0	5470	564566.762730452982	7350.3783774342
0	5495	566705.561874702403	9077.867097195
0	5500	567039.903322837606	7002.3303619444
0	5508	567332.451075636219	7280.7133939082
0	5514	567619.194561517374	7454.2827321744
0	5526	570174.695357853204	9664.9618221276
0	5534	570469.867310390992	5964.3057382813
0	5574	575304.570420311961	9967.981467108
0	5646	581749.632824652483	11454.833043625
0	5674	583938.76321903595	13249.775739848
0	5679	584183.140362413357	13148.201725821
0	5690	584448.303996718715	13356.242664816
0	5699	584730.616168475854	8493.1250425439
0	5709	585847.563278938505	9523.6860560235
0	5717	586113.625424841929	9138.060457336
0	5734	587280.774512515623	9955.6300474562
0	5739	587549.624121082818	8132.9298498305
0	5744	587794.985079930736	7595.5315781374
0	5750	588050.50480300921	6384.0950002339
0	5758	588657.251141544132	6586.5888130078
0	5778	590437.790795916693	5840.0706730679
0	5809	594341.586048979896	8465.0529743115
0	5817	594806.110551927075	5500.0662249884
0	5846	597616.317913576936	7303.9685785244
0	5860	599003.852178855109	7506.8599787321
0	5872	600288.727854726782	7239.5089931135
0	5900	602329.399260289186	6918.147126344
0	5914	603787.524010236668	8272.0882055219
0	5939	605876.034132780852	8324.589582299
0	5944	606165.169673746807	6008.700750122
0	5956	607277.993434304175	6351.278040927
0	5970	609479.416770878737	7324.7016613998
0	5987	610911.223928880802	7335.6757642931
0	5995	611947.888179828604	7481.3240709352
0	6013	614220.238164834885	6993.8115677582
0	6055	618835.263348197991	8969.7060266741
0	6064	619267.17175991748	6711.9139316592
0	6075	619746.474288688438	5462.1811195336
0	6101	622422.028512422158	7697.8353175525
0	6106	622725.916723455662	6107.6843211436
0	6115	624795.400033796367	8129.083989464
0	6132	626643.262256012722	7109.5922963784
0	6158	629924.78024050929	8712.8467751288
0	6187	634205.883300694099	8721.2558967369
0	6193	634523.164470867945	6922.9527693115
0	6238	639033.01071122836	11226.078771928
0	6243	639282.160957168023	7224.2625345658
0	6255	639989.095048634935	4857.738541861
0	6260	640298.683130215923	7920.2071802809
0	6269	641638.933107112311	5814.3060696584
0	6278	642949.259296085154	6698.1568310887
0	6344	658369.528619665304	20616.019928999
0	6354	659531.13991196497	7961.1386318698
0	6359	659816.068515179707	7211.9677715735
0	6376	661348.954210349583	7612.1399030622
0	6391	662530.032287198528	5653.1034695616
0	6402	663719.183070947451	7461.0807935342
0	6410	664756.879664046987	6431.6510619426
0	6436	667442.725823670842	7346.4661915719
0	6493	673233.784449316521	10721.93581703
0	6498	673505.39261600827	8105.4313900292
0	6510	673803.191814334236	8042.6856589286
0	6532	675718.08174766443	7448.0485806681
0	6537	675992.879738193231	7538.3762928953
0	6548	676462.879848363089	7308.8522852389
0	6556	676750.721503621178	6081.4697355411
0	6590	679954.203114962803	8720.1597862966
0	6595	680223.830300474706	6466.3283962281
0	6604	681428.164584989935	7454.3588207339
0	6621	682858.486610688917	6352.4765691864
0	6629	683514.279408625914	6006.01618333
0	6675	688108.078614723352	10564.499168692
0	6683	688409.464292029874	6672.9656592961
0	6697	689860.183608338077	6323.1122981471
0	6706	691019.28082424778	5949.1375642946
0	6714	691567.789254001945	5653.3782445702
0	6731	693295.513386347179	7095.9509604999
0	6744	696948.812978869452	8759.5234722129
0	6827	705678.839848803813	14053.301720443
0	6832	705965.047636009811	9092.517118027
0	6840	706211.471235187454	7884.0852129445
0	6846	706480.488840306357	7886.5033796679
0	6851	706764.839982277431	7630.4118943063
0	6862	707526.74272895571	7784.4500930061
0	6870	707857.112675736281	7681.90368709
0	6884	709174.084814215667	8800.5697830963
0	6910	712555.027005102217	11892.1823378
0	6931	715467.403343173409	7830.8892918642
0	6936	715795.866802560394	6319.1014966021
0	6962	718828.976706344919	7732.8662366208
0	6979	720555.635955188476	6475.7426013845
0	6987	721504.134687761303	5316.3819373722
0	6996	723241.902022205264	6867.575040473
0	7035	729518.626600808992	10588.872163323
0	7040	729780.214497552215	5847.7659103193
0	7066	732361.142889746977	7220.3096138883
0	7095	736432.606847654729	8210.5882835863
0	7100	736751.416558528141	6668.214589503
0	7146	741436.125861469939	10228.399698865
0	7154	741724.063830723398	7455.8399142982
0	7159	742021.948158751289	7594.8717076759
0	7168	742543.849313393268	5083.027415701
0	7180	744273.674965051626	6306.3198080125
0	7210	747383.230155884272	8813.0655225573
0	7231	749851.2449343108	5821.6682185608
0	7236	750128.086556059828	10463.272000256
0	7244	750826.778886644608	6011.9418825845
0	7299	756281.32605035824	10624.249980975
0	7304	756549.364857184658	7964.9026209052
0	7332	758826.994868985657	7098.4884872028
0	7340	759078.519044482239	7226.8285034963
0	7348	759376.524284585691	7468.3365453752
0	7374	761317.247511563744	8471.9862537204
0	7379	761632.744780541723	7885.5094634344
0	7388	762918.172308720487	6170.0062818389
0	7396	764228.340733188698	7217.9110030975
0	7405	764898.59617191096	5700.3291557335
0	7452	771585.499696393293	12004.339230311
0	7460	771916.151358934623	5106.6964242699
0	7514	776927.846235962616	9219.2319752101
0	7519	777249.568011797923	9144.5467129911
0	7527	777581.983082585865	6958.9165653724
0	7547	778736.913507494068	6895.6947985639
0	7552	778995.366518014204	5160.8499518792
0	7557	779259.785332855581	6830.8822876223
0	7569	780176.604832420735	6048.1613976116
0	7583	782379.492485098938	6973.9688185235
0	7596	785837.767413671577	8440.0453541026
0	7644	790605.941665542422	10555.702563554
0	7656	792127.422945365649	6338.520898497
0	7661	792483.59426705779	6565.3717533729
0	7669	793168.395033948213	6090.2680122077
0	7681	793893.057277052862	5926.6782513691
0	7697	799196.925710772226	9889.1260267686
0	7724	804989.095228271381	11210.656490529
0	7782	811187.043827564348	11215.305365623
0	7810	813401.411680535212	9756.0915561607
0	7815	813693.138464533022	7482.9687141834
0	7820	814001.159464190424	7564.0297756577
0	7829	814326.233581218309	7603.9608759815
0	7834	814703.981322904307	6782.1431128413
0	7851	816162.953186281275	7620.5746534708
0	7870	817597.970877836493	6421.9001987205
0	7913	821794.715460323448	10110.142507649
0	7918	822063.813012396679	7206.1991190173
0	7926	822526.736916036754	6150.1443500372
0	7938	823800.498123722918	6265.3687049765
0	7955	824870.839268760373	5273.9478391796
0	7960	825157.415252421796	6196.0513558474
0	7978	828436.851271467695	8274.5352279436
0	7995	830381.458656144525	6581.9633045221
0	8021	834510.27201740209	8817.2706510033
0	8050	837118.395341119141	8031.0144521335
0	8055	837410.198644161871	5989.4823589507
0	8072	839754.482437918054	7210.1561577973
0	8121	843916.299508550529	9073.9417969131
0	8135	845286.531710259589	10081.07826867
0	8143	845573.346865888787	7850.9873833037
0	8148	845852.597527015368	5856.7351531456
0	8156	846344.322446900616	5797.9188152843
0	8165	847383.370308896061	5897.7710846089
0	8199	851541.494595149629	8959.3800549911
0	8294	859634.181753485877	15964.878705391
0	8302	859932.114016884306	11403.390266075
0	8307	860255.508006136182	10999.154261839
0	8316	860559.170919228164	10392.809935978
0	8321	860854.130844934778	8876.9679436168
0	8326	861159.637753415677	8942.1969558131
0	8331	861426.747813029023	8296.9859065011
0	8339	861699.333636664181	7322.2663648433
0	8344	862032.249650456595	6898.8982331805
0	8350	862327.556460790483	6358.2077310645
0	8358	863254.385114476933	6341.3148421783
0	8436	876374.734959196675	18167.612938697
0	8441	876713.129106940808	8774.3555126954
0	8449	877004.103824489491	6361.2917460331
0	8454	877291.124553803077	5963.6710025338
0	8486	879605.497491209923	8017.26861299
0	8499	880830.577198817725	7817.5213768531
0	8504	881100.445162954798	7522.4410006794
0	8513	882300.941969995103	7419.1028607643
0	8522	883472.332759700755	5944.8293996254
0	8531	884639.901976157584	6497.4960560501
0	8578	891784.665996360406	12246.113439828
0	8583	892164.462183269852	6288.4004130833
0	8608	894391.750806781608	8019.2533120883
0	8648	898236.197426855839	8586.1060113328
0	8654	898482.585341622278	8292.5252621757
0	8659	898820.713832554778	6585.2448442706
0	8671	900034.68114045284	6867.0742300871
0	8684	901407.925497921831	6272.096772292
0	8693	902254.008690018498	6467.0133484151
0	8702	904892.310851546852	8127.5184867464
0	8755	912357.910223882395	12659.997629424
0	8763	913473.906711284724	6246.735671504
0	8772	913791.011839442786	6196.4533382922
0	8780	914761.11985903026	6408.9936844026
0	8789	915890.079359439783	7146.1789005616
0	8825	922393.576315900682	11538.217161597
0	8845	924614.705733796008	7650.0194499422
0	8862	926475.495600323024	7201.1993230373
0	8884	928271.116215079774	7113.4332809297
0	8893	929416.076646970928	6052.596832233
0	8938	933856.929577688354	9437.0158714729
0	8943	934131.029184762088	7830.0404756641
0	8987	937730.116365361296	10606.730836925
0	8992	937994.432133957912	7763.8061121497
0	8997	938255.662657173785	7778.7041398643
0	9005	938591.439868348867	8077.3612882565
0	9042	941788.35739408948	9512.5008047661
0	9047	942023.02146093205	7387.0223402649
0	9052	942291.090952026688	7443.8270772555
0	9072	944027.125514978393	8032.5176787067
0	9077	944363.682315957034	5850.261943909
0	9094	946006.269802531404	7165.0644209465
0	9112	948090.497074128057	7653.3676171621
0	9121	949764.604263147122	6988.7340484808
0	9130	952036.129328172329	7400.088567742
0	9166	958571.970559116686	11525.937482511
0	9174	959613.110924782138	6013.45318643
0	9184	962223.080877656705	7671.7292634618
0	9247	969281.446742444733	12540.516094357
0	9252	969545.257269576374	6660.9143969793
0	9260	969919.489733126827	5847.4046377308
0	9309	974423.642890441806	9593.5735697215
0	9314	974695.728183003939	8475.8331875411
0	9319	975010.12122111279	8121.568685846
0	9328	975960.028155124853	8945.375492695
0	9339	976822.130941304672	6250.5703700772
0	9344	977094.298672625712	6588.2849834426
0	9353	977940.536949336017	7091.8375117088
0	9381	984306.173330049019	12809.828566769
0	9390	986569.065812589834	6952.0367927699
0	9453	994177.715032682011	12452.40886612
0	9459	994487.548133156512	7904.9423843535
0	9467	994849.693369422641	5908.6599226317
0	9476	996197.893483286644	5813.8169785302
0	9487	997123.055148183644	6647.7098374214
0	9510	999437.253782731576	8528.5409756585
0	9519	1001244.160566827449	9154.4665879562
0	9544	1004264.00017492743	7410.8425687089
0	9565	1007800.044272450136	10051.155637596
0	9571	1008139.537014440857	5875.6699472432
0	9599	1011334.165124989693	8336.8596853114
0	9714	1021282.556813560963	14928.161335564
0	9719	1021591.615846610184	12522.369585274
0	9725	1021913.405281553861	12338.44877937
0	9730	1022191.786123065931	11137.144753915
0	9735	1022464.206054994155	11051.165467484
0	9743	1022741.359455670285	10883.393226649
0	9820	1029443.056950813405	17252.44834277
0	9828	1029804.527577766002	15297.787811846
0	9833	1030071.491250204523	15062.939043218
0	9842	1030396.418446810216	14854.493337362
0	9850	1030675.747879074649	13968.648433345
0	9866	1031821.495780208066	13814.536365401
0	9872	1032154.136810434121	12906.460003881
0	9877	1032486.112029993893	9855.5630153418
0	9882	1032734.355029769342	9352.2084691282
0	9890	1033001.117622987445	9323.1880780675
0	9895	1033322.166790649517	8944.9175529895
0	9900	1033625.444620859892	8870.7989139056
0	9906	1033955.388919084109	8577.3249759973
0	9914	1035389.326368512378	7385.1392722866
0	9973	1043818.17012413034	13217.262306208
0	9982	1044153.74568788344	6573.6160822051
0	10007	1046369.664218108774	7920.7642471925
0	10029	1048408.830815525233	9078.3379429569
0	10037	1048716.458804531492	7170.6041017857
0	10042	1048998.324073910654	6707.7854524919
0	10051	1050399.85925799143	6408.0188345543
0	10074	1051878.369089932625	7324.3754767974
0	10093	1054082.673582974454	7736.7188089789
0	10105	1055483.906825183861	8510.0014022446
0	10119	1056663.934799954266	5822.904635166
0	10254	1068170.208596979891	16300.480979815
0	10265	1068477.426390080772	16304.652704632
0	10278	1069462.018578080162	14142.940123966
0	10284	1069770.399575264464	12539.086430077
0	10292	1070079.138565781024	12268.88592593
0	10300	1070365.901836545848	12062.778031046
0	10305	1070681.285577077657	12741.518205605
0	10310	1070992.495363427504	11649.813189691
0	10315	1071297.399388979669	11591.812344741
0	10321	1071586.874368050652	11038.726301108
0	10332	1071873.25690586876	9767.836252344
0	10342	1073075.594364978692	9708.0376096628
0	10351	1073337.226239021761	8174.1131821649
0	10356	1073629.430034557015	7988.7035162984
0	10361	1074000.641047121256	7677.9774248471
0	10415	1079134.942589884746	10893.143512998
0	10420	1079416.001067533423	7617.5268846162
0	10428	1079776.869511970791	5727.8600668088
0	10437	1080738.34324789932	5746.9352732215
0	10446	1082126.059957534586	6429.5721820798
0	10454	1083093.914039678856	6684.5997876934
0	10501	1094785.937043059834	17945.461660632
0	10509	1095276.384633752093	5357.0515283491
0	10529	1096613.249360664007	6339.8952421867
0	10684	1109575.593234222146	17204.428045449
0	10695	1109858.29121885565	17001.796387125
0	10735	1112810.556308968513	17265.49228265
0	10746	1113150.885522571593	16722.449442255
0	10768	1115322.476057828056	18272.252793627
0	10773	1115579.339126371421	18363.519991703
0	10778	1115868.115805757971	18265.377187211
0	10787	1116164.86444660709	16228.454299504
0	10792	1116463.84206452712	16109.22135356
0	10797	1116781.487877049935	16339.223648449
0	10802	1117071.577903224495	16592.985174145
0	10807	1117328.220029065842	16208.827497146
0	10812	1117604.045473180951	16625.679585576
0	10818	1117887.978550501922	16500.71457461
0	10826	1118194.188795558088	15155.844062282
0	10868	1121983.609452141472	16476.887942718
0	10873	1122264.159775199043	15750.270462106
0	10878	1122625.812249607366	13029.167073939
0	10887	1122920.741751118142	13115.983112569
1	2081	200449.722389413603	3049.618112791
1	2125	202810.353135063424	63.257647098974
1	2155	204567.647165017432	248.29159962482
1	2172	205989.246930113199	0
1	2189	207457.113578871647	0
1	2197	208999.260198005928	0
1	2223	211167.686639804658	0
1	2231	211885.864708800648	604.94452929819
1	2248	212993.42779764626	68.695756041347
1	2265	214410.24140239445	0
1	2282	216004.742795945751	0
1	2293	216844.851745711236	329.324465734
1	2315	219149.853279615605	0
1	2350	223512.115497391605	0
1	2364	224473.664764384768	348.16788185021
1	2370	225272.585574719275	1098.5930791029
1	2384	227308.659227435753	0
1	2396	228166.33383210047	252.2771524012
1	2417	229590.632187569572	273.70431109097
1	2443	232437.069554163983	0
1	2455	233255.696668276384	544.90250413203
1	2476	234703.195361932045	191.9572522489
1	2502	237570.483960816569	0
1	2511	238507.624050633913	520.65160869121
1	2547	246524.484272393794	0
1	2557	249030.143079886812	0
1	2575	252308.867104945015	0
1	2602	257795.423555845153	0
1	2611	259711.932975579408	0
1	2620	260570.923756710237	264.30770024169
1	2646	264720.62669981463	65.183138490298
1	2664	267606.214407935326	0
1	2672	268441.842897174569	134.75101365386
1	2684	269251.009826280979	690.66551114487
1	2698	271853.817502261419	0
1	2723	273348.325162103711	0
1	2749	276157.501198626638	0
1	2757	277277.250800889031	0
1	2775	279990.90048192362	0
1	2800	282715.807551738666	0
1	2809	283733.035134799007	630.59606262112
1	2847	293648.353708207777	0
1	2857	296658.064398213541	0
1	2884	301919.214203678222	192.31247761239
1	2892	302685.998181201811	72.688048361644
1	2901	303673.156135022722	344.88669149311
1	2918	305600.75976119585	103.87852654191
1	2929	306635.939949702425	430.07379898168
1	2944	307510.355393247758	1278.5158841964
1	2952	308349.212679370539	1595.0746902534
1	2961	309313.649312849836	1895.6174487084
1	2969	310155.04389749552	1034.9902739905
1	2981	310944.212629006725	1324.2725100312
1	2989	311898.20767762711	122.80126965256
1	3004	312820.68345765623	509.77663415145
1	3044	315241.548422193297	21.723171260707
1	3083	317464.229277398442	138.4855658579
1	3091	318302.578359364543	257.06325109391
1	3100	319121.710648170837	671.03414049225
1	3122	320593.619245702208	15.268036576468
1	3135	321938.604134177885	0
1	3153	322928.518690907331	954.89157213822
1	3164	323851.144048504589	1043.5284140644
1	3173	324932.278223421777	1360.2166305068
1	3219	328689.986760894372	0
1	3245	331599.722449795682	0
1	3254	332648.119226281398	240.87556566664
1	3289	338025.321957129429	0
1	3300	338798.265205391308	729.85640654309
1	3306	339729.043851239522	1336.8938243743
1	3314	340649.569789426669	58.966476072292
1	3323	341920.33500869626	0
1	3357	344607.75943102663	195.31283634626
1	3373	345932.853165815848	197.8373000122
1	3390	347117.127379474463	0
1	3408	350468.810266947746	0
1	3425	351567.442984239512	11.586853296765
1	3442	354066.853713229764	0
1	3467	356102.02120465758	330.22646875842
1	3476	357626.009889139755	0
1	3491	358446.441427226486	386.11084294059
1	3496	359430.368829304928	1331.9796863287
1	3511	360239.537347274511	780.12847975742
1	3519	361180.727742945814	1365.1492088884
1	3525	362190.849451489082	2150.1446449647
1	3536	363133.900132349978	604.62994336591
1	3554	364031.752750781521	826.01022086285
1	3562	364899.568289000153	914.43302028568
1	3589	366685.353589044115	157.5940488855
1	3643	369527.153403051	44.015869809181
1	3660	371198.614973173925	0
1	3686	375156.408632575334	0
1	3714	381605.027327768542	0
1	3723	383821.165712468036	0
1	3732	384774.509023400399	311.03007828023
1	3741	385815.041101869283	162.61061964963
1	3752	386778.725903252823	147.68566064445
1	3761	387769.781734171394	589.48098559249
1	3772	388687.543709318092	649.07640274771
1	3781	389544.045690456711	931.62332864805
1	3819	391770.119548695792	296.60489362663
1	3841	393349.846382448446	0
1	3867	396077.3358969006	0
1	3893	399748.531178921832	0
1	3910	401331.325446159847	0
1	3918	402281.209014288417	373.68224182069
1	3927	403172.15831974268	48.631190602896
1	3944	405936.283511937419	0
1	3956	406874.60314220716	859.46768735815
1	3981	408265.132447032599	126.65013690218
1	4003	410777.099320831369	118.16121515678
1	4029	413717.346113290153	0
1	4037	414720.684167048482	170.89893809778
1	4054	416308.857765088401	0
1	4063	417338.401516993508	747.23890769912
1	4083	419149.67427736617	180.4322031898
1	4097	421043.933932196696	0
1	4131	424697.751744526139	0
1	4146	425494.820500943524	759.49019387001
1	4154	426504.187717171976	1354.8134423202
1	4163	427377.483508029319	1976.3020517352
1	4168	428277.782155878191	1001.7825363486
1	4190	429690.837260491624	55.737952340748
1	4232	433386.954620192863	0
1	4244	434250.858942901202	111.63840114007
1	4258	436880.434771306005	0
1	4267	437848.578334227813	931.73727516134
1	4293	440957.237090722019	0
1	4307	441866.828531722672	741.97620818407
1	4313	442819.668149499012	960.20048478433
1	4352	446934.241542820578	0
1	4364	447850.647998607658	115.77965617798
1	4372	448759.957975574293	160.47522835395
1	4386	450303.43713893819	0
1	4403	451555.046843535589	0
1	4411	452440.501439824916	715.65076708128
1	4445	455386.838464771956	0
1	4460	456366.616779970135	583.39228915743
1	4468	457308.216416200249	1333.4394027429
1	4496	460537.050583887361	0
1	4514	461580.735863328171	552.90857245097
1	4522	462366.530049400007	1078.1938487645
1	4528	463142.883884688613	1471.0688155228
1	4564	466865.240050672982	274.2905611568
1	4575	467718.991662913437	770.84074107434
1	4587	468514.681373006726	631.82412323569
1	4600	469697.219914186081	39.903138747478
1	4615	471468.317801646276	0
1	4668	481054.060583493618	0
1	4680	482013.634494702761	82.395407690992
1	4685	482864.782371064013	922.34196845584
1	4697	483809.56465101595	191.51331670208
1	4705	484669.100859959953	936.49589618133
1	4714	485561.638357999362	1643.2988511286
1	4725	486486.606313995911	592.96331998764
1	4778	490376.802558687618	0
1	4786	491209.320769512716	828.36480499127
1	4798	492154.286045612784	153.0385807732
1	4806	493283.19605027666	693.71597611861
1	4837	495876.91888197297	38.655940244897
1	4854	497701.353418063732	0
1	4865	498620.863528370256	555.03124511525
1	4888	501246.734511134725	0
1	4896	502028.161700950634	150.39912519247
1	4939	507344.628399795623	0
1	4958	512518.116584703761	0
1	4967	513534.47462256961	0
1	4976	514399.509786008383	549.1613549409
1	4987	515467.762718319493	232.30394945241
1	4993	516268.191498226286	1009.875010714
1	5001	517144.824757738969	654.29945623236
1	5016	518133.604726873251	788.06632077357
1	5043	519900.494624520114	90.704463620087
1	5085	523243.822709280942	0
1	5102	525135.040030588295	0
1	5111	526772.539935769979	0
1	5128	528325.262893457307	0
1	5145	530341.204986639311	0
1	5156	531198.857595993232	793.31831622468
1	5165	532148.391139644823	1134.4292236611
1	5187	533855.715216710711	0
1	5213	536974.58833822886	0
1	5224	537928.636969961141	155.12905937997
1	5247	541259.121816272856	0
1	5264	542576.442024230729	0
1	5281	543753.209384908708	186.50920565354
1	5298	546838.467927069508	0
1	5334	553204.983754818622	0
1	5343	554140.667899673005	930.33945053798
1	5351	555026.534829401872	523.22103680624
1	5360	556487.397143192669	0
1	5369	557254.916650957972	38.532297939199
1	5383	558276.443377581329	648.74860007391
1	5410	560037.572960893211	0
1	5428	560943.646447558189	891.90876583015
1	5436	561768.870030576673	1603.9582012337
1	5442	562653.581875918792	2143.8483401931
1	5472	564566.762730452982	61.201158343249
1	5480	565440.08489327132	103.49594006738
1	5536	570469.867310390992	175.06752936364
1	5551	571453.57869516535	764.59121597699
1	5556	572338.195384750982	1303.2567481588
1	5562	573241.501226932103	2149.4398950299
1	5580	576237.491125931982	0
1	5597	577203.465667193156	879.58844427816
1	5609	578067.722918085851	1092.1579505799
1	5614	578921.869578794685	1596.7251137353
1	5623	579727.341900680573	310.64762942821
1	5631	580570.700843914992	371.24734212169
1	5648	581749.632824652483	83.223021877192
1	5659	582617.93501014539	547.27268160902
1	5701	584730.616168475854	132.89604562701
1	5719	586113.625424841929	237.09235017354
1	5763	589306.044326938709	0
1	5780	590437.790795916693	125.44146086419
1	5789	591496.992200122974	0
1	5797	593049.218861613248	0
1	5823	595411.252133945175	0
1	5834	596326.766375022859	811.33057030814
1	5848	597616.317913576936	64.873363095044
1	5874	600288.727854726782	132.25893110197
1	5885	601226.601218322349	299.88582494516
1	5902	602329.399260289186	174.68415081027
1	5916	603787.524010236668	211.975845649
1	5924	604797.049848115129	330.48573922171
1	5958	607277.993434304175	51.566837227466
1	5975	609865.557321523847	0
1	6001	612555.257828258275	0
1	6018	614284.293169154881	0
1	6026	615166.652126960213	442.45893209059
1	6035	616618.232402312028	0
1	6047	617505.686108331084	839.37006399875
1	6077	619746.474288688438	212.80432905412
1	6086	621211.933465380512	0
1	6120	625484.627403957185	0
1	6138	627600.211701556426	0
1	6146	628610.827658740282	803.89571944034
1	6164	632057.898422602174	0
1	6176	632978.337230462709	599.86128052764
1	6198	635131.356506773973	0
1	6207	636031.83500392059	207.20796646667
1	6218	637029.83807841467	778.73561341823
1	6230	637946.436823469224	192.92813280325
1	6288	651570.001280095196	0
1	6296	652604.100743606218	0
1	6305	653736.814307287392	0
1	6314	656258.102277413234	0
1	6329	657119.460514417572	242.53169678066
1	6346	658369.528619665304	44.300017560881
1	6365	660096.259632098892	0
1	6393	662530.032287198528	18.183654912439
1	6416	665399.961225979094	0
1	6424	666217.181153734665	456.67499832902
1	6441	668270.033166996363	0
1	6453	669244.125133031994	789.62168773404
1	6461	670164.045578752658	1010.0180156284
1	6473	671102.044834084158	432.79306600413
1	6481	671973.544446599297	739.50111793306
1	6512	673803.191814334236	45.689910087637
1	6520	674567.370999617693	593.56523536171
1	6558	676750.721503621178	244.71146211865
1	6570	677791.366143370396	283.10291807447
1	6578	678675.518372627033	1131.9389265956
1	6609	681736.498632733798	0
1	6634	683537.07131019102	0
1	6643	685070.143259953196	0
1	6652	686011.916931064071	97.505921632368
1	6663	686942.117766614517	742.55534076728
1	6685	688409.464292029874	220.17478537328
1	6719	691625.538128361156	0
1	6746	696948.812978869452	76.282460886664
1	6755	698327.386022242981	0
1	6766	699390.853000188123	796.86753954965
1	6781	700470.415691980714	1335.9876040096
1	6793	701392.708694007183	1650.4160580576
1	6798	702311.98072255133	2136.771733905
1	6807	703361.818467324456	2988.3034362051
1	6815	704368.631870773835	3705.7872034716
1	6872	707857.112675736281	220.59862442709
1	6889	709476.765305958272	0
1	6898	711096.110469724099	0
1	6916	714079.893353804009	0
1	6941	716187.752750389053	0
1	6950	717155.386339430876	781.0593576986
1	6967	718929.754437486122	0
1	7002	723932.448587232874	0
1	7011	725140.833275858653	0
1	7020	728222.018564068469	0
1	7045	730083.201969025094	0
1	7054	731207.726162605302	0
1	7072	734268.223916425238	0
1	7083	735226.123924333492	799.04747325812
1	7106	737460.821897692265	0
1	7114	738270.75641358744	303.40125654833
1	7129	739215.274569105147	645.10993577821
1	7137	740189.660035461741	524.84547965804
1	7182	744273.674965051626	244.09824930161
1	7190	745253.970912706349	439.13390864622
1	7202	746080.563017870459	423.48694848753
1	7216	748584.462236279503	0
1	7250	751728.506381782863	0
1	7261	752468.010255807959	616.31971482202
1	7270	753310.392664031979	1402.2049248215
1	7281	754225.869541200387	1380.608283357
1	7287	755121.372208480723	1374.1368913734
1	7309	756748.166026881621	0
1	7321	757717.083759142154	706.654029051
1	7350	759376.524284585691	178.25726840826
1	7362	760194.526033402004	613.36556731989
1	7411	766809.454934664682	0
1	7419	767708.614260752497	0
1	7428	768593.975732625453	488.9544338186
1	7437	770623.066517213494	0
1	7462	771916.151358934623	74.93265000447
1	7470	772866.239487007742	437.33644177451
1	7482	773886.919089445055	52.402523310048
1	7493	774778.565993967395	650.12255915828
1	7502	775652.485021953369	246.9613553779
1	7529	777581.983082585865	184.26102301692
1	7571	780176.604832420735	126.36573043187
1	7598	785837.767413671577	48.865366802971
1	7606	786774.63080321239	856.40828952754
1	7615	787664.173127316367	586.04610557585
1	7623	788513.995231622607	547.61620593888
1	7632	789346.977905435188	39.178221431517
1	7683	793893.057277052862	114.61853931066
1	7702	799971.738461940997	0
1	7712	803645.320124374471	0
1	7730	806210.169750349654	0
1	7741	807247.480981135448	810.3512926027
1	7750	808049.632987683117	1327.3602824463
1	7761	808868.85648136722	947.01827130422
1	7767	809953.097082092756	1410.7185492823
1	7784	811187.043827564348	10.973148448348
1	7795	812208.277142392853	523.70418971791
1	7839	814857.613893379392	0
1	7856	816376.592565999573	0
1	7872	817597.970877836493	62.841459090026
1	7881	818961.363896574381	0
1	7893	819640.564185523116	43.672755942299
1	7901	820497.263178805835	334.94713528175
1	7940	823800.498123722918	1.002772100451
1	7965	825693.00136639879	0
1	7983	829087.380888985608	0
1	8001	831420.71628521118	0
1	8009	832544.326280120731	0
1	8026	834842.357711637417	0
1	8038	835850.159947410316	644.70650582069
1	8060	837722.359482585133	0
1	8078	839995.862373869735	0
1	8089	840954.472040185936	408.06840856962
1	8098	841909.189757576193	423.59053328904
1	8106	842602.657268833418	20.542728674911
1	8123	843916.299508550529	246.99646045554
1	8170	848528.723750809394	0
1	8182	849528.506258611557	272.15251431472
1	8191	850348.496240958698	182.13525770887
1	8204	851977.162901317955	0
1	8213	852900.295362685699	682.85456508312
1	8225	853790.229533855317	660.46762732743
1	8236	854714.656250828783	337.58897900789
1	8248	855621.389565812816	488.03814853677
1	8259	856572.480669984099	603.13194025814
1	8268	857366.6162016779	453.54592937922
1	8282	858391.430307170224	184.30828667005
1	8366	867938.773594245393	0
1	8375	870642.812078456408	0
1	8384	871580.30406883783	252.85051756857
1	8395	872422.488477285399	834.2595990655
1	8404	873338.209994196813	325.15417223217
1	8412	874084.211871853331	506.20770957797
1	8421	875038.358824451524	156.51971522076
1	8459	877527.503360075345	0
1	8474	878435.719831364492	293.31391125705
1	8488	879605.497491209923	66.944934677949
1	8536	885876.061770186506	0
1	8545	886743.540852781386	371.04335808803
1	8554	889650.091415523063	0
1	8563	890552.688839671848	362.62876022528
1	8588	892235.46898828422	0
1	8597	893167.606910365701	0
1	8614	895135.828725629833	0
1	8625	896228.365809921159	441.37046831779
1	8637	897163.48478581209	398.69242101161
1	8673	900034.68114045284	336.76854599463
1	8709	907227.171039780716	0
1	8717	908040.707293936696	446.1487927861
1	8729	909192.401911713197	840.27573708555
1	8734	910067.507528283826	1323.6070694057
1	8743	910990.975275998793	135.61612169496
1	8794	916964.686283853855	0
1	8804	919274.296277285708	0
1	8813	921157.682934150094	0
1	8830	923363.479814737949	0
1	8847	924614.705733796008	194.79202758057
1	8864	926475.495600323024	174.50689122499
1	8872	927270.565295886114	147.17976745015
1	8898	930230.626021808249	0
1	8913	931183.075361701798	706.11684439232
1	8918	931916.102539026129	1402.0239589337
1	8930	932696.05071450388	420.1941251805
1	8949	934635.999120667112	0
1	8963	935457.917898905758	610.65402413453
1	8972	936358.808460477073	364.20062420538
1	9007	938591.439868348867	78.019496300826
1	9019	939589.605665188659	748.40028360374
1	9030	940546.720741112898	109.59128414692
1	9057	942775.870214666273	0
1	9083	944636.040760430323	0
1	9100	947046.033076605709	0
1	9136	953599.657738352107	0
1	9144	954617.105642545088	65.754028350226
1	9154	956740.930648087681	0
1	9189	962884.342872597099	0
1	9198	964072.085095396069	0
1	9206	964996.955544142129	166.88622342177
1	9215	966219.894995462875	0
1	9230	967210.470351984572	321.91781671782
1	9235	968167.334791636815	1152.682129207
1	9266	970506.013689183147	0
1	9280	971443.855437758771	872.29486653133
1	9292	972392.756050704412	1544.0566130772
1	9300	973283.43088356376	1787.086120284
1	9359	979617.029019819892	0
1	9368	981725.306166562175	0
1	9395	986582.605748802985	0
1	9404	988941.033446790967	0
1	9413	990384.076504756468	0
1	9428	991245.53939149867	770.19408073641
1	9436	992187.251257954319	1278.5384508812
1	9442	993017.433974864907	927.7399959937
1	9489	997123.055148183644	269.89754196509
1	9498	998095.234102384021	346.34546752944
1	9524	1002263.867067197682	0
1	9536	1003031.15132739099	33.845887712671
1	9551	1006354.395477997267	0
1	9576	1009069.246261335792	0
1	9585	1010066.672665308871	491.71616312491
1	9601	1011334.165124989693	279.52375583834
1	9616	1012454.939449791071	1041.8988622805
1	9622	1013372.985202164037	1515.0189731426
1	9633	1014228.717276696056	2038.108668653
1	9645	1015192.628761243158	685.88899532285
1	9656	1016166.406918816552	1157.85471183
1	9668	1017032.611910302831	1490.6868008546
1	9673	1017989.102553419084	1282.0031076894
1	9688	1019006.514334575146	999.55491976767
1	9699	1019980.528284710356	732.85147815739
1	9745	1022741.359455670285	110.81044101817
1	9763	1023839.877611932542	457.7310512914
1	9774	1024687.71988563806	1009.7903407181
1	9786	1025532.086164072317	1154.8369264123
1	9791	1026593.857452968163	1839.2117460139
1	9800	1027328.947571506865	1950.8836284201
1	9808	1028255.190883877777	251.00378765203
1	9852	1030675.747879074649	74.840061152572
1	9921	1037580.129605678361	0
1	9929	1038505.253729001965	56.353758085714
1	9938	1039373.674708539735	43.181835971411
1	9947	1041545.854702745742	0
1	9959	1042425.649467251729	135.11084583302
1	9984	1044153.74568788344	161.90526444628
1	9992	1044986.924530614941	432.9309174797
1	10009	1046369.664218108774	23.709444113191
1	10017	1047198.428226830224	224.52280389098
1	10056	1050841.030164788238	0
1	10076	1051878.369089932625	8.641472767302
1	10085	1052842.36365952012	669.58997407145
1	10107	1055483.906825183861	164.82837106932
1	10124	1057231.313145187608	0
1	10139	1058202.88119109801	392.62855124712
1	10147	1059239.946716830183	1300.1793453571
1	10159	1060138.782193529038	1835.6583880292
1	10170	1060947.423310096817	1604.7411363604
1	10179	1061792.894323726655	2087.307279488
1	10190	1062659.092839595716	2110.944772653
1	10199	1063530.737899412845	1425.3172458881
1	10207	1064423.49233702574	1055.9355817099
1	10222	1065274.794242784548	111.6811859277
1	10230	1066127.127348667804	486.40083040921
1	10245	1067143.891044671084	821.22742239693
1	10267	1068477.426390080772	235.62731319397
1	10334	1071873.25690586876	74.782722951547
1	10366	1074049.009445161999	0
1	10375	1075020.06476233475	28.656787656974
1	10383	1075989.405009589928	292.91723413516
1	10398	1076905.967556556922	496.65330457144
1	10403	1077954.190439881389	1113.7150574532
1	10463	1089919.333105402963	0
1	10472	1090846.677431568088	573.3233130908
1	10481	1092371.165188773177	0
1	10489	1093381.636154733203	525.14132300248
1	10515	1095545.064026318155	0
1	10531	1096613.249360664007	184.81328034716
1	10543	1097435.435359035151	385.21209483409
1	10554	1098285.008806784533	1069.1896721158
1	10560	1099075.108607996709	1472.3699894497
1	10571	1100160.461340329804	224.05119322647
1	10589	1101098.10138729982	743.48067633296
1	10606	1101995.582352825444	1553.3181242241
1	10615	1103014.117141754152	2535.5244126745
1	10626	1103892.479052104002	2914.1131644986
1	10635	1104813.580632016019	3694.1881000963
1	10647	1105706.021537449904	4318.7575615583
1	10655	1106609.430539398163	3571.0858061224
1	10663	1107410.476075676852	1903.754566253
1	10672	1108378.352818783356	1864.4635056906
1	10697	1109858.29121885565	261.64604318735
1	10711	1110703.932780250636	899.17414170123
1	10720	1111731.173365546328	1747.2681351874
1	10748	1113150.885522571593	144.15821794063
1	10756	1114123.634977825076	1068.0277195557
1	10828	1118194.188795558088	38.682669676762
1	10845	1119188.81355488015	473.59573399284
1	10854	1120135.639041137651	1281.7921780083
1	10859	1120879.685856082973	1582.1286486012
2	2081	200449.722389413603	0
2	2120	202747.09548796445	1
2	2125	202810.353135063424	0
2	2150	204319.355565392608	1
2	2155	204567.647165017432	0
2	2170	205989.246930113199	1
2	2172	205989.246930113199	0
2	2187	207457.113578871647	1
2	2189	207457.113578871647	0
2	2195	208999.260198005928	1
2	2197	208999.260198005928	0
2	2221	211167.686639804658	1
2	2223	211167.686639804658	0
2	2226	211280.920179502455	1
2	2231	211885.864708800648	0
2	2243	212924.732041604913	1
2	2248	212993.42779764626	0
2	2263	214410.24140239445	1
2	2265	214410.24140239445	0
2	2280	216004.742795945751	1
2	2282	216004.742795945751	0
2	2288	216515.52727997724	1
2	2293	216844.851745711236	0
2	2313	219149.853279615605	1
2	2315	219149.853279615605	0
2	2348	223512.115497391605	1
2	2350	223512.115497391605	0
2	2356	224125.496882534558	1
2	2359	224173.992495616399	2
2	2364	224473.664764384768	1
2	2370	225272.585574719275	0
2	2382	227308.659227435753	1
2	2384	227308.659227435753	0
2	2387	227914.056679699273	1
2	2396	228166.33383210047	0
2	2412	229316.927876478605	1
2	2417	229590.632187569572	0
2	2441	232437.069554163983	1
2	2443	232437.069554163983	0
2	2446	232710.79416414435	1
2	2455	233255.696668276384	0
2	2471	234511.238109683144	1
2	2476	234703.195361932045	0
2	2500	237570.483960816569	1
2	2502	237570.483960816569	0
2	2505	237986.972441942698	1
2	2511	238507.624050633913	0
2	2545	246524.484272393794	1
2	2547	246524.484272393794	0
2	2555	249030.143079886812	1
2	2557	249030.143079886812	0
2	2573	252308.867104945015	1
2	2575	252308.867104945015	0
2	2600	257795.423555845153	1
2	2602	257795.423555845153	0
2	2609	259711.932975579408	1
2	2611	259711.932975579408	0
2	2614	260306.616056468543	1
2	2620	260570.923756710237	0
2	2641	264655.443561324332	1
2	2646	264720.62669981463	0
2	2662	267606.214407935326	1
2	2664	267606.214407935326	0
2	2667	268307.091883520714	1
2	2672	268441.842897174569	0
2	2675	268560.344315136114	1
2	2684	269251.009826280979	0
2	2696	271853.817502261419	1
2	2698	271853.817502261419	0
2	2721	273348.325162103711	1
2	2723	273348.325162103711	0
2	2747	276157.501198626638	1
2	2749	276157.501198626638	0
2	2755	277277.250800889031	1
2	2757	277277.250800889031	0
2	2773	279990.90048192362	1
2	2775	279990.90048192362	0
2	2798	282715.807551738666	1
2	2800	282715.807551738666	0
2	2804	283102.439072177883	1
2	2809	283733.035134799007	0
2	2845	293648.353708207777	1
2	2847	293648.353708207777	0
2	2855	296658.064398213541	1
2	2857	296658.064398213541	0
2	2879	301726.901726065835	1
2	2884	301919.214203678222	0
2	2887	302613.310132840167	1
2	2892	302685.998181201811	0
2	2895	303328.269443529611	1
2	2901	303673.156135022722	0
2	2913	305496.881234653944	1
2	2918	305600.75976119585	0
2	2921	306205.866150720748	1
2	2924	306231.839509051315	2
2	2929	306635.939949702425	1
2	2932	306754.13798911713	2
2	2939	307418.031864141473	3
2	2944	307510.355393247758	2
2	2952	308349.212679370539	1
2	2956	309120.053623504994	2
2	2961	309313.649312849836	1
2	2964	309619.940118975532	2
2	2969	310155.04389749552	1
2	2981	310944.212629006725	0
2	2984	311775.406407974553	1
2	2989	311898.20767762711	0
2	2996	312310.906823504776	1
2	3004	312820.68345765623	0
2	3039	315219.82525093259	1
2	3044	315241.548422193297	0
2	3078	317325.74371154054	1
2	3083	317464.229277398442	0
2	3086	318045.515108270633	1
2	3091	318302.578359364543	0
2	3094	318450.676507678587	1
2	3100	319121.710648170837	0
2	3117	320578.35120912574	1
2	3122	320593.619245702208	0
2	3133	321938.604134177885	1
2	3135	321938.604134177885	0
2	3138	321973.627118769111	1
2	3148	322807.615634440141	2
2	3153	322928.518690907331	1
2	3159	323572.06159291501	2
2	3164	323851.144048504589	1
2	3173	324932.278223421777	0
2	3217	328689.986760894372	1
2	3219	328689.986760894372	0
2	3243	331599.722449795682	1
2	3245	331599.722449795682	0
2	3248	332407.243660614759	1
2	3254	332648.119226281398	0
2	3287	338025.321957129429	1
2	3289	338025.321957129429	0
2	3292	338068.40879884822	1
2	3295	338392.150026865241	2
2	3300	338798.265205391308	1
2	3306	339729.043851239522	0
2	3309	340590.603313354377	1
2	3314	340649.569789426669	0
2	3321	341920.33500869626	1
2	3323	341920.33500869626	0
2	3351	344412.446594680368	1
2	3357	344607.75943102663	0
2	3368	345735.015865803652	1
2	3373	345932.853165815848	0
2	3388	347117.127379474463	1
2	3390	347117.127379474463	0
2	3406	350468.810266947746	1
2	3408	350468.810266947746	0
2	3420	351555.856130942747	1
2	3425	351567.442984239512	0
2	3440	354066.853713229764	1
2	3442	354066.853713229764	0
2	3462	355771.794735899157	1
2	3467	356102.02120465758	0
2	3474	357626.009889139755	1
2	3476	357626.009889139755	0
2	3479	358060.330584285897	1
2	3482	358098.389142976206	2
2	3491	358446.441427226486	1
2	3496	359430.368829304928	0
2	3499	359459.408867517091	1
2	3502	359815.578534057411	2
2	3506	360040.704806524344	3
2	3511	360239.537347274511	2
2	3519	361180.727742945814	1
2	3525	362190.849451489082	0
2	3531	362529.270188984065	1
2	3536	363133.900132349978	0
2	3542	363205.742529918673	1
2	3549	363985.135268714468	2
2	3554	364031.752750781521	1
2	3562	364899.568289000153	0
2	3584	366527.759540158613	1
2	3589	366685.353589044115	0
2	3638	369483.137533241819	1
2	3643	369527.153403051	0
2	3658	371198.614973173925	1
2	3660	371198.614973173925	0
2	3684	375156.408632575334	1
2	3686	375156.408632575334	0
2	3712	381605.027327768542	1
2	3714	381605.027327768542	0
2	3721	383821.165712468036	1
2	3723	383821.165712468036	0
2	3727	384463.478945120165	1
2	3732	384774.509023400399	0
2	3735	385652.430482219648	1
2	3741	385815.041101869283	0
2	3747	386631.040242608374	1
2	3752	386778.725903252823	0
2	3755	387180.300748578901	1
2	3761	387769.781734171394	0
2	3764	388038.467306570378	1
2	3767	388612.422361808661	2
2	3772	388687.543709318092	1
2	3781	389544.045690456711	0
2	3814	391473.514655069165	1
2	3819	391770.119548695792	0
2	3839	393349.846382448446	1
2	3841	393349.846382448446	0
2	3865	396077.3358969006	1
2	3867	396077.3358969006	0
2	3891	399748.531178921832	1
2	3893	399748.531178921832	0
2	3908	401331.325446159847	1
2	3910	401331.325446159847	0
2	3913	401907.526772467724	1
2	3918	402281.209014288417	0
2	3922	403123.527129139784	1
2	3927	403172.15831974268	0
2	3942	405936.283511937419	1
2	3944	405936.283511937419	0
2	3947	406015.135454849014	1
2	3956	406874.60314220716	0
2	3973	408138.482310130422	1
2	3981	408265.132447032599	0
2	3998	410658.938105674584	1
2	4003	410777.099320831369	0
2	4027	413717.346113290153	1
2	4029	413717.346113290153	0
2	4032	414549.785228950704	1
2	4037	414720.684167048482	0
2	4052	416308.857765088401	1
2	4054	416308.857765088401	0
2	4058	416591.162609294392	1
2	4063	417338.401516993508	0
2	4075	418969.242074176369	1
2	4083	419149.67427736617	0
2	4095	421043.933932196696	1
2	4097	421043.933932196696	0
2	4129	424697.751744526139	1
2	4131	424697.751744526139	0
2	4134	424735.330307073517	1
2	4138	425149.374274851786	2
2	4141	425401.181456294163	3
2	4146	425494.820500943524	2
2	4154	426504.187717171976	1
2	4158	427275.999619529636	2
2	4163	427377.483508029319	1
2	4168	428277.782155878191	0
2	4185	429635.099308150876	1
2	4190	429690.837260491624	0
2	4230	433386.954620192863	1
2	4232	433386.954620192863	0
2	4239	434139.220541761136	1
2	4244	434250.858942901202	0
2	4256	436880.434771306005	1
2	4258	436880.434771306005	0
2	4261	436916.841059066477	1
2	4267	437848.578334227813	0
2	4291	440957.237090722019	1
2	4293	440957.237090722019	0
2	4296	441124.852323538597	1
2	4302	441859.467664714686	2
2	4307	441866.828531722672	1
2	4313	442819.668149499012	0
2	4350	446934.241542820578	1
2	4352	446934.241542820578	0
2	4359	447734.868342429675	1
2	4364	447850.647998607658	0
2	4367	448599.482747220341	1
2	4372	448759.957975574293	0
2	4384	450303.43713893819	1
2	4386	450303.43713893819	0
2	4401	451555.046843535589	1
2	4403	451555.046843535589	0
2	4406	451724.85067274364	1
2	4411	452440.501439824916	0
2	4443	455386.838464771956	1
2	4445	455386.838464771956	0
2	4451	455783.224490812706	1
2	4454	455974.777013457333	2
2	4460	456366.616779970135	1
2	4468	457308.216416200249	0
2	4494	460537.050583887361	1
2	4496	460537.050583887361	0
2	4499	461027.827290877199	1
2	4506	461288.336200635525	2
2	4514	461580.735863328171	1
2	4517	461671.815069165824	2
2	4522	462366.530049400007	1
2	4528	463142.883884688613	0
2	4559	466590.94948951618	1
2	4564	466865.240050672982	0
2	4567	466948.150921839099	1
2	4575	467718.991662913437	0
2	4578	467882.857249771035	1
2	4587	468514.681373006726	0
2	4595	469657.316775438603	1
2	4600	469697.219914186081	0
2	4613	471468.317801646276	1
2	4615	471468.317801646276	0
2	4666	481054.060583493618	1
2	4668	481054.060583493618	0
2	4672	481931.239087011769	1
2	4675	481942.440402608176	2
2	4680	482013.634494702761	1
2	4685	482864.782371064013	0
2	4689	483618.051334313873	1
2	4692	483732.604963778627	2
2	4697	483809.56465101595	1
2	4700	483918.339506870791	2
2	4705	484669.100859959953	1
2	4714	485561.638357999362	0
2	4720	485893.642994008275	1
2	4725	486486.606313995911	0
2	4776	490376.802558687618	1
2	4778	490376.802558687618	0
2	4781	490380.955964521447	1
2	4786	491209.320769512716	0
2	4793	492001.247464839588	1
2	4798	492154.286045612784	0
2	4801	492589.480074158049	1
2	4806	493283.19605027666	0
2	4832	495838.262941728073	1
2	4837	495876.91888197297	0
2	4852	497701.353418063732	1
2	4854	497701.353418063732	0
2	4860	498065.832283255003	1
2	4865	498620.863528370256	0
2	4886	501246.734511134725	1
2	4888	501246.734511134725	0
2	4891	501877.762575758165	1
2	4896	502028.161700950634	0
2	4937	507344.628399795623	1
2	4939	507344.628399795623	0
2	4956	512518.116584703761	1
2	4958	512518.116584703761	0
2	4965	513534.47462256961	1
2	4967	513534.47462256961	0
2	4970	513850.348431067484	1
2	4976	514399.509786008383	0
2	4979	515235.458768867083	1
2	4982	515258.316487512327	2
2	4987	515467.762718319493	1
2	4993	516268.191498226286	0
2	4996	516490.525301506611	1
2	5001	517144.824757738969	0
2	5007	517345.538406099684	1
2	5016	518133.604726873251	0
2	5038	519809.790160900027	1
2	5043	519900.494624520114	0
2	5083	523243.822709280942	1
2	5085	523243.822709280942	0
2	5100	525135.040030588295	1
2	5102	525135.040030588295	0
2	5109	526772.539935769979	1
2	5111	526772.539935769979	0
2	5126	528325.262893457307	1
2	5128	528325.262893457307	0
2	5143	530341.204986639311	1
2	5145	530341.204986639311	0
2	5148	530405.539279768549	1
2	5151	531013.961915983765	2
2	5156	531198.857595993232	1
2	5165	532148.391139644823	0
2	5185	533855.715216710711	1
2	5187	533855.715216710711	0
2	5211	536974.58833822886	1
2	5213	536974.58833822886	0
2	5219	537773.507910581171	1
2	5224	537928.636969961141	0
2	5245	541259.121816272856	1
2	5247	541259.121816272856	0
2	5262	542576.442024230729	1
2	5264	542576.442024230729	0
2	5276	543566.700179255172	1
2	5281	543753.209384908708	0
2	5296	546838.467927069508	1
2	5298	546838.467927069508	0
2	5332	553204.983754818622	1
2	5334	553204.983754818622	0
2	5337	553210.32844913502	1
2	5343	554140.667899673005	0
2	5346	554503.313792595634	1
2	5351	555026.534829401872	0
2	5358	556487.397143192669	1
2	5360	556487.397143192669	0
2	5364	557216.384353018773	1
2	5369	557254.916650957972	0
2	5372	557627.694777507415	1
2	5383	558276.443377581329	0
2	5408	560037.572960893211	1
2	5410	560037.572960893211	0
2	5413	560051.737681728036	1
2	5416	560164.911829342934	2
2	5419	560509.73353572565	3
2	5428	560943.646447558189	2
2	5436	561768.870030576673	1
2	5442	562653.581875918792	0
2	5464	564505.561572109733	1
2	5472	564566.762730452982	0
2	5475	565336.588953203935	1
2	5480	565440.08489327132	0
2	5531	570294.799781027357	1
2	5536	570469.867310390992	0
2	5539	570688.987479188356	1
2	5543	571034.938636592165	2
2	5546	571092.061331902244	3
2	5551	571453.57869516535	2
2	5556	572338.195384750982	1
2	5562	573241.501226932103	0
2	5578	576237.491125931982	1
2	5580	576237.491125931982	0
2	5583	576323.877222914995	1
2	5592	576975.564967505912	2
2	5597	577203.465667193156	1
2	5600	577325.144465059396	2
2	5609	578067.722918085851	1
2	5614	578921.869578794685	0
2	5617	579416.69427125236	1
2	5623	579727.341900680573	0
2	5626	580199.453501793299	1
2	5631	580570.700843914992	0
2	5643	581666.409802775291	1
2	5648	581749.632824652483	0
2	5651	582070.66232853637	1
2	5659	582617.93501014539	0
2	5696	584597.72012284884	1
2	5701	584730.616168475854	0
2	5714	585876.533074668384	1
2	5719	586113.625424841929	0
2	5761	589306.044326938709	1
2	5763	589306.044326938709	0
2	5775	590312.349335052501	1
2	5780	590437.790795916693	0
2	5787	591496.992200122974	1
2	5789	591496.992200122974	0
2	5795	593049.218861613248	1
2	5797	593049.218861613248	0
2	5821	595411.252133945175	1
2	5823	595411.252133945175	0
2	5826	595515.435804714722	1
2	5834	596326.766375022859	0
2	5843	597551.444550481892	1
2	5848	597616.317913576936	0
2	5869	600156.468923624811	1
2	5874	600288.727854726782	0
2	5880	600926.715393377189	1
2	5885	601226.601218322349	0
2	5897	602154.715109478911	1
2	5902	602329.399260289186	0
2	5911	603575.548164587666	1
2	5916	603787.524010236668	0
2	5919	604466.564108893419	1
2	5924	604797.049848115129	0
2	5953	607226.426597076709	1
2	5958	607277.993434304175	0
2	5973	609865.557321523847	1
2	5975	609865.557321523847	0
2	5999	612555.257828258275	1
2	6001	612555.257828258275	0
2	6016	614284.293169154881	1
2	6018	614284.293169154881	0
2	6021	614724.193194869626	1
2	6026	615166.652126960213	0
2	6033	616618.232402312028	1
2	6035	616618.232402312028	0
2	6038	616666.316044332337	1
2	6047	617505.686108331084	0
2	6072	619533.669959634315	1
2	6077	619746.474288688438	0
2	6084	621211.933465380512	1
2	6086	621211.933465380512	0
2	6118	625484.627403957185	1
2	6120	625484.627403957185	0
2	6136	627600.211701556426	1
2	6138	627600.211701556426	0
2	6141	627806.93193929994	1
2	6146	628610.827658740282	0
2	6162	632057.898422602174	1
2	6164	632057.898422602174	0
2	6167	632378.475949935067	1
2	6176	632978.337230462709	0
2	6196	635131.356506773973	1
2	6198	635131.356506773973	0
2	6201	635824.627037453922	1
2	6207	636031.83500392059	0
2	6210	636251.102464996437	1
2	6218	637029.83807841467	0
2	6225	637753.50869066597	1
2	6230	637946.436823469224	0
2	6286	651570.001280095196	1
2	6288	651570.001280095196	0
2	6294	652604.100743606218	1
2	6296	652604.100743606218	0
2	6303	653736.814307287392	1
2	6305	653736.814307287392	0
2	6312	656258.102277413234	1
2	6314	656258.102277413234	0
2	6324	656876.928817636915	1
2	6329	657119.460514417572	0
2	6341	658325.228602104423	1
2	6346	658369.528619665304	0
2	6363	660096.259632098892	1
2	6365	660096.259632098892	0
2	6388	662511.848632286089	1
2	6393	662530.032287198528	0
2	6414	665399.961225979094	1
2	6416	665399.961225979094	0
2	6419	665760.506155405647	1
2	6424	666217.181153734665	0
2	6439	668270.033166996363	1
2	6441	668270.033166996363	0
2	6444	668454.503445297955	1
2	6448	669154.027563124217	2
2	6453	669244.125133031994	1
2	6461	670164.045578752658	0
2	6468	670669.251768080029	1
2	6473	671102.044834084158	0
2	6476	671234.043328666236	1
2	6481	671973.544446599297	0
2	6507	673757.501904246599	1
2	6512	673803.191814334236	0
2	6515	673973.805764255986	1
2	6520	674567.370999617693	0
2	6553	676506.01004150253	1
2	6558	676750.721503621178	0
2	6562	677508.263225295921	1
2	6565	677543.579446031422	2
2	6570	677791.366143370396	1
2	6578	678675.518372627033	0
2	6607	681736.498632733798	1
2	6609	681736.498632733798	0
2	6632	683537.07131019102	1
2	6634	683537.07131019102	0
2	6641	685070.143259953196	1
2	6643	685070.143259953196	0
2	6647	685914.411009431703	1
2	6652	686011.916931064071	0
2	6655	686199.562425847234	1
2	6663	686942.117766614517	0
2	6680	688189.289506656597	1
2	6685	688409.464292029874	0
2	6717	691625.538128361156	1
2	6719	691625.538128361156	0
2	6741	696872.530517982788	1
2	6746	696948.812978869452	0
2	6753	698327.386022242981	1
2	6755	698327.386022242981	0
2	6758	698593.985460638476	1
2	6761	699134.428087971096	2
2	6766	699390.853000188123	1
2	6770	699742.292635949582	2
2	6773	700175.208988646299	3
2	6776	700373.515031119395	4
2	6781	700470.415691980714	3
2	6787	700662.844667302218	4
2	6793	701392.708694007183	3
2	6798	702311.98072255133	2
2	6807	703361.818467324456	1
2	6815	704368.631870773835	0
2	6867	707636.514051309194	1
2	6872	707857.112675736281	0
2	6887	709476.765305958272	1
2	6889	709476.765305958272	0
2	6896	711096.110469724099	1
2	6898	711096.110469724099	0
2	6914	714079.893353804009	1
2	6916	714079.893353804009	0
2	6939	716187.752750389053	1
2	6941	716187.752750389053	0
2	6944	716374.32698173228	1
2	6950	717155.386339430876	0
2	6965	718929.754437486122	1
2	6967	718929.754437486122	0
2	7000	723932.448587232874	1
2	7002	723932.448587232874	0
2	7009	725140.833275858653	1
2	7011	725140.833275858653	0
2	7018	728222.018564068469	1
2	7020	728222.018564068469	0
2	7043	730083.201969025094	1
2	7045	730083.201969025094	0
2	7052	731207.726162605302	1
2	7054	731207.726162605302	0
2	7070	734268.223916425238	1
2	7072	734268.223916425238	0
2	7075	734427.076451075376	1
2	7083	735226.123924333492	0
2	7104	737460.821897692265	1
2	7106	737460.821897692265	0
2	7109	737967.355157039107	1
2	7114	738270.75641358744	0
2	7117	738570.164633326941	1
2	7129	739215.274569105147	0
2	7132	739664.814555803705	1
2	7137	740189.660035461741	0
2	7177	744029.576715750016	1
2	7182	744273.674965051626	0
2	7185	744814.83700406013	1
2	7190	745253.970912706349	0
2	7193	745657.076069382928	1
2	7202	746080.563017870459	0
2	7214	748584.462236279503	1
2	7216	748584.462236279503	0
2	7248	751728.506381782863	1
2	7250	751728.506381782863	0
2	7253	751851.690540985943	1
2	7256	751908.187739210499	2
2	7261	752468.010255807959	1
2	7265	752845.261257843346	2
2	7270	753310.392664031979	1
2	7276	753747.235317107293	2
2	7281	754225.869541200387	1
2	7287	755121.372208480723	0
2	7307	756748.166026881621	1
2	7309	756748.166026881621	0
2	7315	757010.429730091151	1
2	7321	757717.083759142154	0
2	7345	759198.267016177427	1
2	7350	759376.524284585691	0
2	7357	759581.16046608211	1
2	7362	760194.526033402004	0
2	7409	766809.454934664682	1
2	7411	766809.454934664682	0
2	7417	767708.614260752497	1
2	7419	767708.614260752497	0
2	7423	768105.02129880685	1
2	7428	768593.975732625453	0
2	7435	770623.066517213494	1
2	7437	770623.066517213494	0
2	7457	771841.218708930153	1
2	7462	771916.151358934623	0
2	7465	772428.903045233233	1
2	7470	772866.239487007742	0
2	7477	773834.516566135007	1
2	7482	773886.919089445055	0
2	7485	774128.443434809119	1
2	7493	774778.565993967395	0
2	7497	775405.523666575464	1
2	7502	775652.485021953369	0
2	7524	777397.722059568949	1
2	7529	777581.983082585865	0
2	7566	780050.239101988862	1
2	7571	780176.604832420735	0
2	7593	785788.902046868606	1
2	7598	785837.767413671577	0
2	7601	785918.222513684854	1
2	7606	786774.63080321239	0
2	7610	787078.127021740514	1
2	7615	787664.173127316367	0
2	7618	787966.379025683725	1
2	7623	788513.995231622607	0
2	7627	789307.799684003671	1
2	7632	789346.977905435188	0
2	7678	793778.438737742205	1
2	7683	793893.057277052862	0
2	7700	799971.738461940997	1
2	7702	799971.738461940997	0
2	7710	803645.320124374471	1
2	7712	803645.320124374471	0
2	7728	806210.169750349654	1
2	7730	806210.169750349654	0
2	7733	806437.12968853275	1
2	7736	806722.272705236839	2
2	7741	807247.480981135448	1
2	7745	807921.838210063001	2
2	7750	808049.632987683117	1
2	7753	808542.37853281043	2
2	7761	808868.85648136722	1
2	7767	809953.097082092756	0
2	7779	811176.070679116	1
2	7784	811187.043827564348	0
2	7787	811684.572952674945	1
2	7795	812208.277142392853	0
2	7837	814857.613893379392	1
2	7839	814857.613893379392	0
2	7854	816376.592565999573	1
2	7856	816376.592565999573	0
2	7867	817535.129418746467	1
2	7872	817597.970877836493	0
2	7879	818961.363896574381	1
2	7881	818961.363896574381	0
2	7888	819596.891429580817	1
2	7893	819640.564185523116	0
2	7896	820162.316043524081	1
2	7901	820497.263178805835	0
2	7935	823799.495351622467	1
2	7940	823800.498123722918	0
2	7963	825693.00136639879	1
2	7965	825693.00136639879	0
2	7981	829087.380888985608	1
2	7983	829087.380888985608	0
2	7999	831420.71628521118	1
2	8001	831420.71628521118	0
2	8007	832544.326280120731	1
2	8009	832544.326280120731	0
2	8024	834842.357711637417	1
2	8026	834842.357711637417	0
2	8030	835205.45344158963	1
2	8038	835850.159947410316	0
2	8058	837722.359482585133	1
2	8060	837722.359482585133	0
2	8076	839995.862373869735	1
2	8078	839995.862373869735	0
2	8084	840546.403631616311	1
2	8089	840954.472040185936	0
2	8092	841485.599224287148	1
2	8098	841909.189757576193	0
2	8101	842582.114540158507	1
2	8106	842602.657268833418	0
2	8118	843669.30304809499	1
2	8123	843916.299508550529	0
2	8168	848528.723750809394	1
2	8170	848528.723750809394	0
2	8177	849256.353744296837	1
2	8182	849528.506258611557	0
2	8185	850166.360983249831	1
2	8191	850348.496240958698	0
2	8202	851977.162901317955	1
2	8204	851977.162901317955	0
2	8208	852217.440797602577	1
2	8213	852900.295362685699	0
2	8216	853129.761906527888	1
2	8225	853790.229533855317	0
2	8231	854377.067271820893	1
2	8236	854714.656250828783	0
2	8239	855133.351417276048	1
2	8248	855621.389565812816	0
2	8251	855969.348729725955	1
2	8259	856572.480669984099	0
2	8262	856913.070272298682	1
2	8268	857366.6162016779	0
2	8277	858207.122020500175	1
2	8282	858391.430307170224	0
2	8364	867938.773594245393	1
2	8366	867938.773594245393	0
2	8373	870642.812078456408	1
2	8375	870642.812078456408	0
2	8379	871327.453551269257	1
2	8384	871580.30406883783	0
2	8387	871588.2288782199	1
2	8395	872422.488477285399	0
2	8399	873013.055821964641	1
2	8404	873338.209994196813	0
2	8407	873578.004162275359	1
2	8412	874084.211871853331	0
2	8416	874881.839109230767	1
2	8421	875038.358824451524	0
2	8457	877527.503360075345	1
2	8459	877527.503360075345	0
2	8466	878142.405920107444	1
2	8474	878435.719831364492	0
2	8483	879538.552556531974	1
2	8488	879605.497491209923	0
2	8534	885876.061770186506	1
2	8536	885876.061770186506	0
2	8540	886372.497494693352	1
2	8545	886743.540852781386	0
2	8552	889650.091415523063	1
2	8554	889650.091415523063	0
2	8558	890190.060079446565	1
2	8563	890552.688839671848	0
2	8586	892235.46898828422	1
2	8588	892235.46898828422	0
2	8595	893167.606910365701	1
2	8597	893167.606910365701	0
2	8612	895135.828725629833	1
2	8614	895135.828725629833	0
2	8620	895786.995341603371	1
2	8625	896228.365809921159	0
2	8629	896764.792364800482	1
2	8637	897163.48478581209	0
2	8667	899697.912594458212	1
2	8673	900034.68114045284	0
2	8707	907227.171039780716	1
2	8709	907227.171039780716	0
2	8712	907594.558501150592	1
2	8717	908040.707293936696	0
2	8720	908352.126174627649	1
2	8724	908743.900458878171	2
2	8729	909192.401911713197	1
2	8734	910067.507528283826	0
2	8738	910855.359154303833	1
2	8743	910990.975275998793	0
2	8792	916964.686283853855	1
2	8794	916964.686283853855	0
2	8802	919274.296277285708	1
2	8804	919274.296277285708	0
2	8811	921157.682934150094	1
2	8813	921157.682934150094	0
2	8828	923363.479814737949	1
2	8830	923363.479814737949	0
2	8842	924419.913706215436	1
2	8847	924614.705733796008	0
2	8859	926300.988709098032	1
2	8864	926475.495600323024	0
2	8867	927123.385528435966	1
2	8872	927270.565295886114	0
2	8896	930230.626021808249	1
2	8898	930230.626021808249	0
2	8904	930476.95851730948	1
2	8907	930514.078580092383	2
2	8913	931183.075361701798	1
2	8918	931916.102539026129	0
2	8924	932275.856589323381	1
2	8930	932696.05071450388	0
2	8947	934635.999120667112	1
2	8949	934635.999120667112	0
2	8955	934847.263874771233	1
2	8963	935457.917898905758	0
2	8967	935994.607836271691	1
2	8972	936358.808460477073	0
2	9002	938513.420372048041	1
2	9007	938591.439868348867	0
2	9013	938841.205381584919	1
2	9019	939589.605665188659	0
2	9025	940437.129456965978	1
2	9030	940546.720741112898	0
2	9055	942775.870214666273	1
2	9057	942775.870214666273	0
2	9081	944636.040760430323	1
2	9083	944636.040760430323	0
2	9098	947046.033076605709	1
2	9100	947046.033076605709	0
2	9134	953599.657738352107	1
2	9136	953599.657738352107	0
2	9139	954551.351614194862	1
2	9144	954617.105642545088	0
2	9152	956740.930648087681	1
2	9154	956740.930648087681	0
2	9187	962884.342872597099	1
2	9189	962884.342872597099	0
2	9196	964072.085095396069	1
2	9198	964072.085095396069	0
2	9201	964830.069320720355	1
2	9206	964996.955544142129	0
2	9213	966219.894995462875	1
2	9215	966219.894995462875	0
2	9219	966888.552535266749	1
2	9222	967014.652662429849	2
2	9230	967210.470351984572	1
2	9235	968167.334791636815	0
2	9264	970506.013689183147	1
2	9266	970506.013689183147	0
2	9269	970571.560571227439	1
2	9275	970848.699437627229	2
2	9280	971443.855437758771	1
2	9283	971496.344763279788	2
2	9292	972392.756050704412	1
2	9300	973283.43088356376	0
2	9357	979617.029019819892	1
2	9359	979617.029019819892	0
2	9366	981725.306166562175	1
2	9368	981725.306166562175	0
2	9393	986582.605748802985	1
2	9395	986582.605748802985	0
2	9402	988941.033446790967	1
2	9404	988941.033446790967	0
2	9411	990384.076504756468	1
2	9413	990384.076504756468	0
2	9416	990475.34531076226	1
2	9420	990908.71280707307	2
2	9428	991245.53939149867	1
2	9431	992089.693978871208	2
2	9436	992187.251257954319	1
2	9442	993017.433974864907	0
2	9484	996853.157606218552	1
2	9489	997123.055148183644	0
2	9493	997748.888634854578	1
2	9498	998095.234102384021	0
2	9522	1002263.867067197682	1
2	9524	1002263.867067197682	0
2	9531	1002997.305439678319	1
2	9536	1003031.15132739099	0
2	9549	1006354.395477997267	1
2	9551	1006354.395477997267	0
2	9574	1009069.246261335792	1
2	9576	1009069.246261335792	0
2	9579	1009574.956502183961	1
2	9585	1010066.672665308871	0
2	9596	1011054.641369151351	1
2	9601	1011334.165124989693	0
2	9604	1011413.04058751061	1
2	9608	1011857.966229021444	2
2	9611	1012190.608608043078	3
2	9616	1012454.939449791071	2
2	9622	1013372.985202164037	1
2	9633	1014228.717276696056	0
2	9636	1014506.739765920304	1
2	9640	1015008.552206986539	2
2	9645	1015192.628761243158	1
2	9648	1015541.92510944822	2
2	9656	1016166.406918816552	1
2	9663	1016707.099445729713	2
2	9668	1017032.611910302831	1
2	9673	1017989.102553419084	0
2	9676	1018006.959414807479	1
2	9688	1019006.514334575146	0
2	9694	1019247.676806552964	1
2	9699	1019980.528284710356	0
2	9740	1022630.549014652113	1
2	9745	1022741.359455670285	0
2	9751	1023382.146560641141	1
2	9758	1023677.929544919982	2
2	9763	1023839.877611932542	1
2	9769	1024377.249237660047	2
2	9774	1024687.71988563806	1
2	9777	1024754.645706954286	2
2	9781	1025378.063943086764	3
2	9786	1025532.086164072317	2
2	9791	1026593.857452968163	1
2	9800	1027328.947571506865	0
2	9803	1028004.187096225751	1
2	9808	1028255.190883877777	0
2	9847	1030600.907817922077	1
2	9852	1030675.747879074649	0
2	9919	1037580.129605678361	1
2	9921	1037580.129605678361	0
2	9924	1038448.899970916251	1
2	9929	1038505.253729001965	0
2	9933	1039330.492872568324	1
2	9938	1039373.674708539735	0
2	9945	1041545.854702745742	1
2	9947	1041545.854702745742	0
2	9954	1042290.538621418709	1
2	9959	1042425.649467251729	0
2	9979	1043991.840423437157	1
2	9984	1044153.74568788344	0
2	9987	1044553.993613135239	1
2	9992	1044986.924530614941	0
2	10004	1046345.954773995583	1
2	10009	1046369.664218108774	0
2	10012	1046973.905422939248	1
2	10017	1047198.428226830224	0
2	10054	1050841.030164788238	1
2	10056	1050841.030164788238	0
2	10071	1051869.727617165323	1
2	10076	1051878.369089932625	0
2	10079	1052172.773685448668	1
2	10085	1052842.36365952012	0
2	10102	1055319.078454114541	1
2	10107	1055483.906825183861	0
2	10122	1057231.313145187608	1
2	10124	1057231.313145187608	0
2	10131	1057810.252639850887	1
2	10134	1057939.767371473114	2
2	10139	1058202.88119109801	1
2	10142	1058303.123805499875	2
2	10147	1059239.946716830183	1
2	10150	1059342.682173736432	2
2	10154	1059705.587044238677	3
2	10159	1060138.782193529038	2
2	10165	1060548.14806694273	3
2	10170	1060947.423310096817	2
2	10179	1061792.894323726655	1
2	10182	1062105.420653524782	2
2	10190	1062659.092839595716	1
2	10194	1063367.556755315887	2
2	10199	1063530.737899412845	1
2	10207	1064423.49233702574	0
2	10217	1065163.113056856844	1
2	10222	1065274.794242784548	0
2	10225	1065640.726518258595	1
2	10230	1066127.127348667804	0
2	10234	1066322.66362227415	1
2	10245	1067143.891044671084	0
2	10259	1068241.7990768868	1
2	10267	1068477.426390080772	0
2	10329	1071798.474182917213	1
2	10334	1071873.25690586876	0
2	10364	1074049.009445161999	1
2	10366	1074049.009445161999	0
2	10370	1074991.407974677776	1
2	10375	1075020.06476233475	0
2	10378	1075696.487775454767	1
2	10383	1075989.405009589928	0
2	10389	1076409.314251985484	1
2	10393	1076840.475382428159	2
2	10398	1076905.967556556922	1
2	10403	1077954.190439881389	0
2	10461	1089919.333105402963	1
2	10463	1089919.333105402963	0
2	10467	1090273.354118477286	1
2	10472	1090846.677431568088	0
2	10479	1092371.165188773177	1
2	10481	1092371.165188773177	0
2	10484	1092856.494831730728	1
2	10489	1093381.636154733203	0
2	10513	1095545.064026318155	1
2	10515	1095545.064026318155	0
2	10526	1096428.436080316852	1
2	10531	1096613.249360664007	0
2	10534	1097050.223264201057	1
2	10538	1097215.819134668757	2
2	10543	1097435.435359035151	1
2	10546	1097602.738618547053	2
2	10554	1098285.008806784533	1
2	10560	1099075.108607996709	0
2	10566	1099936.410147103337	1
2	10571	1100160.461340329804	0
2	10574	1100354.62071096686	1
2	10577	1100442.264228601342	2
2	10580	1100478.592729079608	3
2	10584	1100978.365887605394	4
2	10589	1101098.10138729982	3
2	10592	1101119.392531919673	4
2	10595	1101387.263975891604	5
2	10606	1101995.582352825444	4
2	10615	1103014.117141754152	3
2	10618	1103038.344733275806	4
2	10626	1103892.479052104002	3
2	10635	1104813.580632016019	2
2	10641	1105506.721509423804	3
2	10647	1105706.021537449904	2
2	10650	1106513.889313092727	3
2	10655	1106609.430539398163	2
2	10663	1107410.476075676852	1
2	10672	1108378.352818783356	0
2	10689	1109596.645175668301	1
2	10692	1109804.758638549401	2
2	10697	1109858.29121885565	1
2	10706	1109983.905230358921	2
2	10711	1110703.932780250636	1
2	10720	1111731.173365546328	0
2	10740	1113006.727304630967	1
2	10743	1113055.607258269394	2
2	10748	1113150.885522571593	1
2	10756	1114123.634977825076	0
2	10823	1118155.506125881326	1
2	10828	1118194.188795558088	0
2	10837	1118715.217820887307	1
2	10840	1118853.846863129395	2
2	10845	1119188.81355488015	1
2	10848	1119297.557207481761	2
2	10854	1120135.639041137651	1
2	10859	1120879.685856082973	0
3	2090	201282.986641695393	5438.3627648311
3	2095	201618.710470865448	3007.1811970739
3	2106	201983.626293970382	2002.7700348667
3	2111	202243.470299309698	1356.7146013227
3	2117	202530.010940984691	881.36196644087
3	2133	203633.500244959515	1751.8039817602
3	2138	203933.132847906818	924.70045182497
3	2147	204259.488244441298	0
3	2163	205450.531110971913	445.9053449589
3	2180	207091.00761580923	0
3	2206	209995.105598869515	506.20502298462
3	2214	210317.815651734813	11.364536722553
3	2240	212714.581837768224	713.61212712863
3	2256	213928.795361588469	589.71138875183
3	2273	215332.757047716258	0
3	2302	217747.49104833725	1371.3952924994
3	2307	218049.96255546671	979.76491693306
3	2324	219927.558346873647	750.25967456546
3	2332	220190.211491237759	18.466442486806
3	2341	222067.543742088257	0
3	2375	226132.769532897799	2197.3626179052
3	2404	229014.869929687285	891.11757702144
3	2409	229307.852113830494	735.65739860825
3	2426	230597.051173954508	944.86527654682
3	2435	231450.477355184555	0
3	2460	234028.956602302319	1064.0546397194
3	2468	234413.172366489818	0
3	2486	236881.449057532141	0
3	2494	237142.259102171016	232.99892303268
3	2519	239881.101466326818	0
3	2529	242533.534606113836	0
3	2537	243202.993520256683	0
3	2566	250631.977899977437	0
3	2583	253260.504452822418	0
3	2594	257350.939488339126	0
3	2629	262849.301228533178	0
3	2638	264419.147177963723	0
3	2654	265674.615114344819	0
3	2689	270178.175064134511	1279.4411221576
3	2710	272704.470928761287	770.48820052215
3	2715	273037.717834065321	931.92261175575
3	2732	274403.507344918912	0
3	2740	275721.326336395589	0
3	2766	278252.914055796018	483.13362854972
3	2783	280903.914890285115	185.85021263614
3	2792	281231.606332119962	0
3	2817	284500.96528217017	48.012375757456
3	2827	287483.718460349599	0
3	2836	288546.710197158905	0
3	2866	298294.424793195906	0
3	2875	301595.021045305991	0
3	2910	305350.428179797902	0
3	3012	313588.502194995183	6783.9627866785
3	3018	313913.752898190762	5837.4332418687
3	3023	314199.532854377743	4002.426705538
3	3031	314533.131758726469	4119.4983946313
3	3036	314895.580116073513	2979.0744836686
3	3053	316218.578497090937	3644.559947456
3	3058	316521.928887921278	3209.7823389361
3	3066	316836.897929347266	2452.0561942137
3	3072	317152.396582101379	1132.36898114
3	3105	319942.000922058185	3138.8244158872
3	3113	320289.239139248879	2966.2495218198
3	3127	321437.439620737381	1337.8958851051
3	3179	325782.44181173276	3462.8106871537
3	3184	326088.518752247992	3469.4293497081
3	3189	326377.621219076254	3139.4837396858
3	3197	326663.177918400749	1912.4174181627
3	3202	326967.273390194445	364.34296973707
3	3211	327722.914359184754	0
3	3231	329622.763726165439	668.55879858234
3	3236	329931.05117473678	931.25834175351
3	3262	333507.216984967561	844.39541979356
3	3272	336329.938737687085	0
3	3280	337466.926723912336	0
3	3332	343054.191452436251	489.33977324202
3	3340	343881.361611334884	0
3	3348	344326.450150174433	0
3	3365	345652.89191338583	618.73685490409
3	3382	346825.841140995174	134.42418263964
3	3399	349542.799273937208	0
3	3416	351265.043392227055	168.22944901714
3	3433	352511.851517796313	552.72555858459
3	3451	355459.272136979699	0
3	3459	355768.864188174479	55.697689812405
3	3568	365762.660406462889	7517.0434447042
3	3576	366102.417336579807	5291.9766474922
3	3581	366431.435838377375	4000.487327759
3	3598	367465.815212379711	4262.0237320339
3	3606	367784.163903812767	3987.3491700156
3	3611	368069.648118068167	3864.8053253345
3	3616	368341.035851631356	2410.1973950119
3	3625	368616.047778100099	1645.5956139186
3	3630	368945.241205092579	1416.4505705017
3	3635	369224.652179631747	652.43249404837
3	3652	370471.761991849908	854.84395275348
3	3669	372071.994053903606	794.0589211847
3	3678	374133.702336316453	0
3	3695	376080.867582871291	341.19867184055
3	3705	379858.444972884975	0
3	3789	390544.864618165556	4703.8864687527
3	3798	390868.263611714594	1946.2071091639
3	3803	391169.670864507013	1605.7938236989
3	3811	391462.92458991926	787.90617305326
3	3827	392557.191329223381	1280.2336314845
3	3833	392826.357286477325	744.42548991935
3	3849	394248.999500988773	886.03908600879
3	3858	394549.777598279203	212.73244939099
3	3875	396925.729245187396	788.11941700986
3	3884	398252.420821121452	0
3	3901	400596.819676289159	314.30808442408
3	3935	404135.754769794324	617.00563169255
3	3964	407671.83224786204	1011.333588135
3	3969	407929.038233521916	1028.8782244755
3	3986	409213.508939277456	1064.4362323661
3	3995	410482.260672419666	0
3	4012	411938.90531305551	0
3	4020	412974.133979915358	0
3	4046	415467.351913710495	302.76400886025
3	4072	418853.118731478929	0
3	4089	419997.080683730776	923.66479907462
3	4109	422065.197361872314	986.19842373304
3	4114	422295.88417593571	750.29705673052
3	4123	423613.152841776662	0
3	4177	429105.037474376542	3099.2980301308
3	4182	429379.124291243179	444.95103751798
3	4199	430604.441200419628	277.25694981638
3	4207	431184.199457685786	0
3	4216	432016.414775462794	0
3	4224	432330.174367940831	157.5784002758
3	4249	435168.010413601491	1506.9347224766
3	4275	438643.612039867954	727.96153780997
3	4284	438947.671041488047	145.71943218307
3	4321	443670.400469274088	2001.8266961845
3	4327	444000.683292929212	940.49404387475
3	4335	445663.711501981801	0
3	4344	446255.618420928273	0
3	4378	449604.907952061015	2379.2268628754
3	4395	451113.668879192767	17.194681110658
3	4423	453417.784970884494	778.12677388282
3	4428	453756.810067711156	898.64971078116
3	4437	454592.73534877577	0
3	4474	458392.509903017961	2943.8272100548
3	4479	458727.939483324409	1488.7662288577
3	4488	459695.982973591455	0
3	4533	463959.37469680485	2856.0581102801
3	4538	464259.82188446768	2836.7229023039
3	4547	464869.531965614416	0
3	4556	466532.005712715679	0
3	4592	469389.862953556664	2247.6632986679
3	4606	470688.837115148161	2802.2439562571
3	4626	472479.662286681899	965.71279495035
3	4631	472833.026446630339	1197.8580527331
3	4640	473166.501721806277	270.35148300524
3	4649	475140.287430813546	0
3	4657	475872.864167175594	0
3	4734	487387.832262908913	1950.2588829592
3	4739	487627.364318142268	1834.9915045736
3	4744	487912.916245041548	613.29495914885
3	4753	488878.543079153545	0
3	4761	489478.111023498425	0
3	4769	490034.225743594386	0
3	4812	494239.013622457952	2743.6319080796
3	4820	494582.919613141388	0
3	4829	495554.965563648494	0
3	4845	496830.477247670427	234.8451102011
3	4871	499452.24579642404	1709.1873130042
[...]
7	5090	524357.517952121287	1
7	5105	526037.692255238304	2
7	5113	527475.671281429324	1
7	5117	527729.77235261561	2
7	5130	529136.0152772934	1
7	5134	529195.575108145596	2
7	5154	531198.857595993232	3
7	5158	531373.74619262117	2
7	5163	532148.391139644823	3
7	5167	532223.270888092848	2
7	5171	532993.717339635107	3
7	5190	534769.9872848005	4
7	5193	535180.695061261135	3
7	5201	535692.74246946251	2
7	5215	537187.62623439257	1
7	5222	537928.636969961141	2
7	5227	538504.869055695086	1
7	5231	538760.242794578761	2
7	5249	541698.861048696897	1
7	5254	542103.901520901041	2
7	5266	543063.373938440342	1
7	5271	543462.582997606984	2
7	5284	544697.453702458749	3
7	5287	545317.782956881236	2
7	5301	547408.064914423334	1
7	5305	547823.751608041013	2
7	5309	547922.574474538425	1
7	5322	551388.086658684168	0
7	5341	554140.667899673005	1
7	5349	555026.534829401872	2
7	5355	555958.797802234857	3
7	5367	557254.916650957972	4
7	5374	557925.936010787056	3
7	5377	558235.015735082146	2
7	5381	558276.443377581329	3
7	5387	559055.741501781681	4
7	5391	559093.729836316277	3
7	5422	560698.460558999901	2
7	5426	560943.646447558189	3
7	5430	561569.024293220778	2
7	5434	561768.870030576673	3
7	5440	562653.581875918792	4
7	5444	563025.727919345978	3
7	5448	563702.162201837468	4
7	5466	564556.074833248804	3
7	5478	565440.08489327132	4
7	5482	565486.168573743589	3
7	5486	565863.435410442548	2
7	5490	566381.676013434148	3
7	5504	567066.108084636496	2
7	5517	569872.928728967436	1
7	5522	570028.54204693217	0
7	5549	571453.57869516535	1
7	5554	572338.195384750982	2
7	5560	573241.501226932103	3
7	5565	574099.876879678414	4
7	5568	574961.010763532961	3
7	5585	576648.568317281855	2
7	5588	576757.539213908934	1
7	5595	577203.465667193156	2
7	5603	577975.114015924988	1
7	5607	578067.722918085851	2
7	5612	578921.869578794685	3
7	5621	579727.341900680573	4
7	5629	580570.700843914992	5
7	5633	580712.466160942239	4
7	5638	581408.939894544286	5
7	5653	582093.409573953864	4
7	5657	582617.93501014539	5
7	5662	582852.419036112651	4
7	5666	583588.88783300163	5
7	5670	583616.26356821411	4
7	5683	584214.820345563473	3
7	5686	584306.016570920325	2
7	5704	585572.308703684704	3
7	5722	586625.818478785478	2
7	5725	586861.45038204991	1
7	5729	587022.845194679472	2
7	5752	588386.069453976317	1
7	5766	589753.51487907151	0
7	5770	590096.974438431308	1
7	5783	591341.138222033202	2
7	5792	592338.051505797516	3
7	5800	593793.91109087134	2
7	5804	594045.165686210365	3
7	5811	594484.859180426137	2
7	5828	595823.945627723226	1
7	5832	596326.766375022859	2
7	5838	597293.947055281636	3
7	5850	597764.274973800429	2
7	5855	598657.580395826704	3
7	5862	599936.757949074837	2
7	5876	600360.36504806318	1
7	5883	601226.601218322349	2
7	5887	601352.423968195388	1
7	5892	602078.758431641555	2
7	5906	603440.074702971328	3
7	5922	604797.049848115129	4
7	5926	604833.377573628317	3
7	5930	605339.538560055046	2
7	5934	605572.108527010599	3
7	5947	606968.150293673268	2
7	5961	608153.951578673074	3
7	5964	609155.560107838618	2
7	5977	609890.786399332025	1
7	5982	610614.2929122661	2
7	5989	611683.14855535762	1
7	6004	613434.912869777099	2
7	6007	613909.664978892349	1
7	6024	615166.652126960213	2
7	6030	616115.260740394698	3
7	6040	616891.564234477596	2
7	6045	617505.686108331084	3
7	6050	618555.620244272049	4
7	6058	619019.236626614319	3
7	6066	619408.28829508726	2
7	6081	620634.536796732029	3
7	6088	621597.92136004722	2
7	6092	622100.846536838835	3
7	6097	622417.260763314235	2
7	6109	624548.037013408822	1
7	6123	626091.494846620348	0
7	6127	626316.896329139162	1
7	6144	628610.827658740282	2
7	6150	629573.622520920095	3
7	6152	629626.901466812858	2
7	6170	632613.221031109498	1
7	6174	632978.337230462709	2
7	6178	633685.971939843306	1
7	6182	633922.707123948727	2
7	6205	636031.83500392059	3
7	6212	636945.166772929038	2
7	6216	637029.83807841467	3
7	6220	637603.594091071365	2
7	6228	637946.436823469224	3
7	6233	638732.026903043492	4
7	6246	639753.697829846691	3
7	6251	639862.0752666875	2
7	6263	641402.537105671416	1
7	6271	642593.010125141091	0
7	6291	652306.412404959158	1
7	6300	653538.057413939203	2
7	6308	654639.47439795975	3
7	6316	656346.139362886536	2
7	6320	656718.622726151803	1
7	6327	657119.460514417572	2
7	6332	658052.852676781528	3
7	6337	658278.201530318289	2
7	6349	659210.686069805755	3
7	6367	660504.257350136732	2
7	6371	661068.439474758528	3
7	6379	662217.897812106217	2
7	6384	662264.886880269202	1
7	6397	663441.543981902929	2
7	6404	664442.504873457824	1
7	6422	666217.181153734665	2
7	6427	667026.907318564956	1
7	6431	667144.217274001703	2
7	6451	669244.125133031994	3
7	6455	669802.742371410339	2
7	6459	670164.045578752658	3
7	6464	670612.997439958931	2
7	6471	671102.044834084158	3
7	6479	671973.544446599297	4
7	6484	672259.12887992828	3
7	6488	672953.375055493084	4
7	6502	673538.135188356733	3
7	6518	674567.370999617693	4
7	6522	674766.128505914722	3
7	6526	675382.983028166523	4
7	6539	676199.131559305205	3
7	6544	676307.031560073333	2
7	6568	677791.366143370396	3
7	6572	677876.732736196908	2
7	6576	678675.518372627033	3
7	6581	678950.273378585599	2
7	6585	679635.187652633966	3
7	6598	681112.553598962962	2
7	6611	681905.487435099249	1
7	6616	682585.934291681264	2
7	6623	683216.568359107263	1
7	6638	684340.031506352721	2
7	6650	686011.916931064071	3
7	6657	686240.561557152462	2
7	6661	686942.117766614517	3
7	6667	687806.477794511849	4
7	6671	688032.184322333246	3
7	6689	689338.472507088552	4
7	6691	689564.562075337449	3
7	6699	690731.660977473463	2
7	6708	691269.562139532306	1
7	6722	692548.87687373399	2
7	6725	693037.864587042013	1
7	6735	696632.236024947541	0
7	6750	697820.657190993366	1
7	6764	699390.853000188123	2
7	6779	700470.415691980714	3
7	6783	700535.718890060358	2
7	6791	701392.708694007183	3
7	6796	702311.98072255133	4
7	6800	702826.983808364859	3
7	6805	703361.818467324456	4
7	6809	704362.211672240722	3
7	6813	704368.631870773835	4
7	6818	704956.802404073247	3
7	6822	705365.936278855811	4
7	6836	706099.516324402814	3
7	6853	707165.376091644987	2
7	6858	707492.134083224765	1
7	6875	708523.253786934412	0
7	6879	708856.890444356963	1
7	6893	710385.927399439644	2
7	6902	711895.484777378003	3
7	6904	712299.289886456693	2
7	6918	714696.316054050942	1
7	6923	715163.291838839337	2
7	6927	715280.548499227432	1
7	6948	717155.386339430876	2
7	6953	718064.758261010539	3
7	6956	718597.075059104325	2
7	6970	719874.834584339463	3
7	6973	720260.823049236158	2
7	6981	721211.707075484616	1
7	6990	723004.617351737423	0
7	7005	724888.626848235055	1
7	7014	725916.287709965818	2
7	7022	728431.975802301179	1
7	7026	728944.948988712104	0
7	7030	729237.913794507318	1
7	7049	731060.65978572736	2
7	7058	732008.637934727806	3
7	7060	732079.358222159577	2
7	7077	734552.083716969112	1
7	7081	735226.123924333492	2
7	7086	735539.279131468431	1
7	7090	736133.818296628105	2
7	7112	738270.75641358744	3
7	7119	738738.273467200801	2
7	7123	739162.682142706265	1
7	7127	739215.274569105147	2
7	7135	740189.660035461741	3
7	7141	741126.830757051573	4
7	7150	741610.078440976002	3
7	7161	742225.431101548727	2
7	7170	743937.057043469394	1
7	7188	745253.970912706349	2
7	7196	745766.264325432211	1
7	7200	746080.563017870459	2
7	7205	747034.670820442449	3
7	7219	749201.128382409881	2
7	7223	749508.822801680371	3
7	7227	749643.013348367978	2
7	7238	750577.130353203272	1
7	7259	752468.010255807959	2
7	7268	753310.392664031979	3
7	7272	753313.206471638323	2
7	7279	754225.869541200387	3
7	7285	755121.372208480723	4
7	7291	756005.281809392004	5
7	7295	756102.03261726804	4
7	7311	756891.215089014352	3
7	7319	757717.083759142154	4
7	7323	758426.102356694451	3
7	7327	758512.434547233563	4
7	7336	758884.445642788159	3
7	7352	759403.485478870612	2
7	7360	760194.526033402004	3
7	7364	760554.732344190592	2
7	7368	761037.41234883013	3
7	7381	762614.203029771271	2
7	7390	763904.186875191533	1
7	7399	764616.09183054727	0
7	7414	767704.083319428565	1
7	7426	768593.975732625453	2
7	7431	769629.257995242891	3
7	7439	770866.296862891664	2
7	7443	771320.615009549621	3
7	7448	771431.818735951452	2
7	7468	772866.239487007742	3
7	7473	773234.70955056499	2
7	7480	773886.919089445055	3
7	7487	774411.731455016986	2
7	7491	774778.565993967395	3
7	7500	775652.485021953369	4
7	7504	776505.596148712594	3
7	7509	776621.846094966933	4
7	7531	778155.471972737851	3
7	7535	778514.149404071193	2
7	7539	778525.040405651764	3
7	7543	778723.785469247101	2
7	7559	779930.590695186933	1
7	7574	781154.047290133077	2
7	7577	782134.052334733802	1
7	7587	785517.710896079449	0
7	7604	786774.63080321239	1
7	7613	787664.173127316367	2
7	7621	788513.995231622607	3
7	7630	789346.977905435188	4
7	7634	790251.323206241561	3
7	7639	790316.37115118556	4
7	7646	791781.741425360154	3
7	7652	792003.543685114384	2
7	7663	792888.725499601626	1
7	7671	793593.895583766577	0
7	7686	794879.668830955275	1
7	7691	798892.021566593977	0
7	7706	800977.846681206999	1
7	7715	804688.141401424593	0
7	7719	804712.578607852769	1
7	7739	807247.480981135448	2
7	7748	808049.632987683117	3
7	7755	808594.779498927888	2
7	7759	808868.85648136722	3
7	7765	809953.097082092756	4
7	7771	810874.203404796099	5
7	7775	811084.778692122745	4
7	7789	811773.331852648144	3
7	7793	812208.277142392853	4
7	7797	812497.485983073386	3
7	7802	813133.028731098633	4
7	7806	813398.42464114072	3
7	7825	814323.430013262938	2
7	7842	815807.926232535713	3
7	7844	815839.217506510893	2
7	7858	817189.271987414466	1
7	7862	817270.926972273482	2
7	7876	818473.898267179715	3
7	7884	819558.892162291106	2
7	7891	819640.564185523116	3
7	7899	820497.263178805835	4
7	7903	820917.919030395674	3
7	7908	821481.676798460532	4
7	7920	822229.367414373514	3
7	7929	823492.074801599833	2
7	7942	824249.261382234342	1
7	7945	824323.390409266322	0
7	7949	824518.360382170678	1
7	7969	826682.140516436219	2
7	7972	828177.443364915938	1
7	7986	829992.245292681651	0
7	7990	830097.556477974202	1
7	8004	832292.363745880969	2
7	8013	833513.828766220062	3
7	8015	834211.250150938824	2
7	8032	835740.732675905915	1
7	8036	835850.159947410316	2
7	8041	836642.028585420021	1
7	8045	836782.90525195713	2
7	8064	838674.979363183453	3
7	8066	839454.602013967214	2
7	8080	840276.991769593191	1
7	8087	840954.472040185936	2
7	8096	841909.189757576193	3
7	8104	842602.657268833418	4
7	8108	842906.29024838391	3
7	8113	843595.853468656747	4
7	8125	844425.435514710876	3
7	8129	844982.07504433415	4
7	8139	845408.614069928311	3
7	8150	846085.834715514639	2
7	8159	847039.906352817767	1
7	8173	848936.302109197665	0
7	8180	849528.506258611557	1
7	8189	850348.496240958698	2
7	8194	851258.379169270059	3
7	8211	852900.295362685699	4
7	8218	853248.959280182025	3
7	8223	853790.229533855317	4
7	8227	854220.603204848136	3
7	8234	854714.656250828783	4
7	8241	855177.314854508943	3
7	8246	855621.389565812816	4
7	8253	855993.720378206692	3
7	8257	856572.480669984099	4
7	8266	857366.6162016779	5
7	8270	857604.765647526275	4
7	8273	857910.625894051953	3
7	8280	858391.430307170224	4
7	8285	858997.307540412907	3
7	8289	859321.679281528168	4
7	8298	859762.023356283387	3
7	8311	860338.368733061975	2
7	8335	861563.427864291119	1
7	8352	862889.777755163968	0
7	8369	868726.202037459826	1
7	8382	871580.30406883783	2
7	8389	871955.990597309344	1
7	8393	872422.488477285399	2
7	8402	873338.209994196813	3
7	8410	874084.211871853331	4
7	8419	875038.358824451524	5
7	8423	875224.474493223106	4
7	8426	875709.547102462659	3
7	8431	876032.710476071452	4
7	8445	876876.572551509554	3
7	8462	877789.440280857713	2
7	8468	878424.677809662103	1
7	8472	878435.719831364492	2
7	8477	879290.08459215785	3
7	8490	880057.002120211236	2
7	8494	880518.018580388485	3
7	8507	882037.166555021542	2
7	8516	883192.670345581645	1
7	8524	884319.274416721296	0
7	8543	886743.540852781386	1
7	8548	887671.764923049511	2
7	8561	890552.688839671848	3
7	8565	890750.017531033157	2
7	8568	891402.52899653087	1
7	8573	891467.677371146841	2
7	8591	893031.364116377842	3
7	8600	894069.53571376339	4
7	8602	894109.631893088077	3
7	8616	895373.467440581618	2
7	8623	896228.365809921159	3
7	8631	897105.472551341961	2
7	8635	897163.48478581209	3
7	8640	897966.778622392202	4
7	8644	898008.602664624228	3
7	8661	899692.887669944579	2
7	8676	900895.236314899977	3
7	8678	901186.694324393161	2
7	8687	901938.147417710998	1
7	8696	904556.757088296278	0
7	8715	908040.707293936696	1
7	8727	909192.401911713197	2
7	8732	910067.507528283826	3
7	8741	910990.975275998793	4
7	8746	911808.300551858685	5
7	8749	912065.559516395994	4
7	8757	913201.399184562709	3
7	8765	913495.773088119457	2
7	8774	914462.393031490246	1
7	8783	915566.121386624421	0
7	8798	917774.609456789527	1
7	8807	920087.838522178149	2
7	8815	921388.244947703188	1
7	8819	922134.935468833756	2
7	8832	923752.393946142092	1
7	8837	924297.266426541789	2
7	8850	925457.584988663908	3
7	8853	926162.285010859706	2
7	8870	927270.565295886114	3
7	8874	927408.147955285023	2
7	8879	927992.57285048627	3
7	8886	929109.845727494217	2
7	8900	930402.930988701923	1
7	8911	931183.075361701798	2
7	8916	931916.102539026129	3
7	8920	932186.771643779092	2
7	8928	932696.05071450388	3
7	8933	933579.202387006096	4
7	8951	934765.309058980313	3
7	8957	935280.637064613068	2
7	8961	935457.917898905758	3
7	8970	936358.808460477073	4
7	8974	936430.572171987651	3
7	8978	937381.174818879626	4
7	8982	937439.882467848079	3
7	9009	938804.832998934957	2
7	9017	939589.605665188659	3
7	9021	939869.631093436468	2
7	9028	940546.720741112898	3
7	9033	941351.499459877498	2
7	9037	941502.681792069423	3
7	9060	942885.315837062835	2
7	9064	943697.110442384038	3
7	9068	944026.345682302641	2
7	9085	945570.082298303627	1
7	9089	945705.473139575396	2
7	9102	947690.307578506851	1
7	9106	947835.326204351382	2
7	9114	949454.441300518168	1
7	9124	951738.233681528125	0
7	9142	954617.105642545088	1
7	9148	955310.702871943442	2
7	9157	957607.790569864065	3
7	9159	958237.365805249354	2
7	9168	959274.081086911533	1
7	9178	961938.38448910499	0
7	9193	964028.010809421767	1
7	9204	964996.955544142129	2
7	9210	965868.668652382307	3
7	9224	967099.047672377987	2
7	9228	967210.470351984572	3
7	9233	968167.334791636815	4
7	9237	968217.817550303144	3
7	9242	969003.169528790243	4
7	9254	969614.638907245519	3
7	9271	970650.072558841246	2
7	9278	971443.855437758771	3
7	9285	971701.771258780483	2
7	9290	972392.756050704412	3
7	9294	972919.532657304513	2
7	9298	973283.43088356376	3
7	9304	974097.80395241678	4
7	9322	975700.98567493336	3
7	9330	976512.244529670749	2
7	9335	976820.020723236435	1
7	9347	977658.548238336098	0
7	9362	980478.398487997834	1
7	9372	982550.987871723729	2
7	9374	983979.255714938029	1
7	9384	986209.43930461576	0
7	9398	987408.42411884123	1
7	9408	989872.371781164001	2
7	9422	990952.836420968923	1
7	9426	991245.53939149867	2
7	9434	992187.251257954319	3
7	9440	993017.433974864907	4
7	9444	993172.104446180154	3
7	9448	993907.544348162631	4
7	9461	994566.621644221072	3
7	9469	995863.971596786065	2
7	9478	996793.487969974884	1
7	9496	998095.234102384021	2
7	9500	998332.190760204584	1
7	9504	999183.547175204646	2
7	9512	1000932.147737853426	1
7	9526	1002833.783733253368	0
7	9534	1003031.15132739099	1
7	9539	1003924.543905381515	2
7	9553	1006700.03355646324	1
7	9557	1007454.290627686073	2
7	9561	1007755.958255485191	1
7	9583	1010066.672665308871	2
7	9588	1010804.777239137374	3
7	9590	1011023.66507538782	2
7	9614	1012454.939449791071	3
7	9620	1013372.985202164037	4
7	9624	1013943.7452874158	3
7	9627	1014001.792918354914	2
7	9631	1014228.717276696056	3
7	9643	1015192.628761243158	4
7	9650	1015874.70118356771	3
7	9654	1016166.406918816552	4
7	9659	1016621.738757825245	3
7	9666	1017032.611910302831	4
7	9671	1017989.102553419084	5
7	9678	1018261.80852929299	4
7	9682	1018722.945938738873	3
7	9686	1019006.514334575146	4
7	9690	1019177.452053746374	3
7	9697	1019980.528284710356	4
7	9702	1020578.554660670117	3
7	9706	1020980.260940691681	4
7	9710	1021039.436409340314	3
7	9747	1023089.617562220359	2
7	9754	1023466.918002033854	1
7	9761	1023839.877611932542	2
7	9765	1023999.252625112871	1
7	9772	1024687.71988563806	2
7	9784	1025532.086164072317	3
7	9789	1026593.857452968163	4
7	9794	1027277.470643428465	3
7	9798	1027328.947571506865	4
7	9806	1028255.190883877777	5
7	9810	1028498.031594728761	4
7	9815	1029196.852873643856	5
7	9824	1029723.538908188022	4
7	9837	1030248.348993046822	3
7	9854	1030892.327063072162	2
7	9857	1031302.890063786569	1
7	9861	1031484.841226649452	2
7	9886	1032778.285293537977	1
7	9908	1035087.607790383426	0
7	9927	1038505.253729001965	1
7	9936	1039373.674708539735	2
7	9941	1040271.037256590556	3
7	9949	1042079.309206577901	2
7	9957	1042425.649467251729	3
7	9961	1042846.275122336464	2
7	9964	1043415.507985108024	1
7	9968	1043512.173712109991	2
7	9990	1044986.924530614941	3
7	9995	1045920.898615820366	2
7	9999	1046062.299766671016	3
7	10015	1047198.428226830224	4
7	10020	1047851.360262147848	3
7	10024	1048099.663733208945	4
7	10033	1048436.057730771409	3
7	10045	1050122.983959489807	2
7	10059	1051020.556124553459	1
7	10062	1051591.181222156853	0
7	10066	1051594.096877236854	1
7	10083	1052842.36365952012	2
7	10088	1053764.160257607241	3
7	10096	1055165.513401214998	2
7	10109	1055868.782607927254	1
7	10114	1056419.381342428678	2
7	10126	1057400.117010279553	1
7	10137	1058202.88119109801	2
7	10145	1059239.946716830183	3
7	10157	1060138.782193529038	4
7	10161	1060140.565216176509	3
7	10168	1060947.423310096817	4
7	10173	1061165.584398077805	3
7	10177	1061792.894323726655	4
7	10184	1062480.295248687473	3
7	10188	1062659.092839595716	4
7	10197	1063530.737899412845	5
7	10201	1064033.918575048959	4
7	10205	1064423.49233702574	5
7	10210	1064943.413611478523	4
7	10213	1065080.60376574802	3
7	10220	1065274.794242784548	4
7	10228	1066127.127348667804	5
7	10236	1066739.130960933594	4
7	10239	1067033.427209619062	3
7	10243	1067143.891044671084	4
7	10248	1067819.256156047546	5
7	10261	1068255.356625189795	4
7	10270	1069136.148975164388	5
7	10274	1069294.071165940464	4
7	10288	1070076.644406784921	3
7	10296	1070124.457191625678	2
7	10325	1071732.8693477429	1
7	10337	1072778.58744547259	2
7	10347	1073262.805190829337	1
7	10373	1075020.06476233475	2
7	10381	1075989.405009589928	3
7	10385	1076135.933603289783	2
7	10396	1076905.967556556922	3
7	10401	1077954.190439881389	4
7	10407	1078862.704910689095	5
7	10411	1079028.215785740811	4
7	10422	1079547.572209300965	3
7	10431	1080498.933322921273	2
7	10440	1081785.217222968126	1
7	10448	1082785.336829906038	0
7	10470	1090846.677431568088	1
7	10475	1091775.075889617739	2
7	10487	1093381.636154733203	3
7	10493	1094211.759843697255	4
7	10495	1094488.529574550228	3
7	10503	1095012.809706646576	2
7	10518	1096253.956545030476	3
7	10520	1096294.029646193777	2
7	10541	1097435.435359035151	3
7	10548	1097917.458237942786	2
7	10552	1098285.008806784533	3
7	10558	1099075.108607996709	4
7	10562	1099932.039450460783	3
7	10569	1100160.461340329804	4
7	10587	1101098.10138729982	5
7	10597	1101466.759926995809	4
7	10600	1101993.037162089042	3
7	10604	1101995.582352825444	4
7	10609	1102986.85538311505	3
7	10613	1103014.117141754152	4
7	10620	1103878.024215787138	3
7	10624	1103892.479052104002	4
7	10629	1104682.562138241202	3
7	10633	1104813.580632016019	4
7	10637	1105230.316486693701	3
7	10645	1105706.021537449904	4
7	10653	1106609.430539398163	5
7	10657	1107287.560278351309	4
7	10661	1107410.476075676852	5
7	10666	1107725.364616746772	4
7	10670	1108378.352818783356	5
7	10674	1108510.104563667478	4
7	10679	1109275.568453379402	5
7	10699	1109912.173689761136	4
7	10702	1109977.134037288902	3
7	10709	1110703.932780250636	4
7	10714	1111113.271879790994	3
7	10718	1111731.173365546328	4
7	10722	1112128.510341231455	3
7	10726	1112509.79001885228	4
7	10730	1112544.044838295769	3
7	10750	1114110.585855022669	2
7	10754	1114123.634977825076	3
7	10760	1115045.795553280431	4
7	10764	1115212.261810583636	3
7	10783	1115983.811349596898	2
7	10830	1118435.745984451331	1
7	10833	1118472.397719393259	0
7	10843	1119188.81355488015	1
7	10852	1120135.639041137651	2
7	10857	1120879.685856082973	3
7	10863	1121653.549855114141	4
7	10882	1122796.682066619921	3
