version 2
run ParkingMeasurement-66-20170106-02:04:37-12149
attr configname ParkingMeasurement
attr datetime 20170106-02:04:37
attr experiment ParkingMeasurement
attr inifile parkingStudy.ini
attr iterationvars ""
attr iterationvars2 $repetition=66
attr measurement ""
attr network SimNetwork
attr processid 12149
attr repetition 66
attr replication #66
attr resultdir results
attr runnumber 66
attr seedset 66
param SimNetwork.a.parkingLot.parkingDelay "truncnormal(60min, 6min)"
param SimNetwork.a.runway.landingTime "truncnormal(15min, 1.5min)"
param SimNetwork.a.runway.takeoffTime "truncnormal(5min, 0.5min)"
param SimNetwork.a.runway.throughputCheckInterval 28.571min
param SimNetwork.wg.interArrivalTime exponential(28.571min)

statistic SimNetwork.wg 	responseTime:stats
field count 552
field mean 9287.9548240643
field stddev 3247.1245861136
field sum 5126951.0628835
field sqrsum 53428533618.087
field min 4979.2535919695
field max 23156.442776659
attr source  responseTimeSignal
scalar SimNetwork.a.landingQueue 	queueLength:timeavg 	0.37106726883354
attr source  queueLengthSignal
statistic SimNetwork.a.landingQueue 	queueLength:stats
field count 1102
field mean 0.89019963702359
field stddev 0.9307123033112
field sum 981
field sqrsum 1827
field min 0
field max 6
attr source  queueLengthSignal
statistic SimNetwork.a.landingQueue 	queueTime:stats
field count 552
field mean 623.00867102511
field stddev 827.39977489956
field sum 343900.78640586
field sqrsum 591462475.41782
field min 0
field max 4798.2009708027
attr source  queueTimeSignal
scalar SimNetwork.a.takeoffQueue 	queueLength:timeavg 	1.3254222707024
attr source  queueLengthSignal
statistic SimNetwork.a.takeoffQueue 	queueLength:stats
field count 1104
field mean 2.2355072463768
field stddev 2.8524882357397
field sum 2468
field sqrsum 14492
field min 0
field max 16
attr source  queueLengthSignal
statistic SimNetwork.a.takeoffQueue 	queueTime:stats
field count 552
field mean 2214.5866394271
field stddev 2921.6007453515
field sum 1222451.8249637
field sqrsum 7410424233.2044
field min 0
field max 15489.750388161
attr source  queueTimeSignal
scalar SimNetwork.a.parkingLot 	parkingOccupancy:timeavg 	2.1390805464567
attr source  parkingOccupancy
statistic SimNetwork.a.parkingLot 	parkingOccupancy:stats
field count 1104
field mean 2.554347826087
field stddev 1.2358864630063
field sum 2820
field sqrsum 8888
field min 0
field max 6
attr source  parkingOccupancy
