version 2
run ParkingMeasurement-35-20170108-17:28:02-4292
attr configname ParkingMeasurement
attr datetime 20170108-17:28:02
attr experiment ParkingMeasurement
attr inifile parkingStudy.ini
attr iterationvars ""
attr iterationvars2 $repetition=35
attr measurement ""
attr network controltower.SimNetwork
attr processid 4292
attr repetition 35
attr replication #35
attr resultdir results
attr runnumber 35
attr seedset 35
param SimNetwork.a.parkingLot.parkingDelay "truncnormal(60min, 6min)"
param SimNetwork.a.runway.landingTime "truncnormal(15min, 1.5min)"
param SimNetwork.a.runway.takeoffTime "truncnormal(5min, 0.5min)"
param SimNetwork.a.runway.throughputCheckInterval 28.571min
param SimNetwork.wg.interArrivalTime exponential(28.571min)

statistic SimNetwork.wg 	responseTime:stats
field count 551
field mean 8349.3494481734
field stddev 2367.6580273817
field sum 4600491.5459435
field sqrsum 41494304044.494
field min 5006.3777958221
field max 18170.857265837
attr source  responseTimeSignal
scalar SimNetwork.a.landingQueue 	queueLength:timeavg 	0.25426692766696
attr source  queueLengthSignal
statistic SimNetwork.a.landingQueue 	queueLength:stats
field count 1120
field mean 0.69821428571429
field stddev 0.70107566311197
field sum 782
field sqrsum 1096
field min 0
field max 4
attr source  queueLengthSignal
statistic SimNetwork.a.landingQueue 	queueTime:stats
field count 560
field mean 418.62985465041
field stddev 548.1984465144
field sum 234432.71860423
field sqrsum 266132073.96388
field min 0
field max 2748.7020633578
attr source  queueTimeSignal
scalar SimNetwork.a.takeoffQueue 	queueLength:timeavg 	0.90160684486356
attr source  queueLengthSignal
statistic SimNetwork.a.takeoffQueue 	queueLength:stats
field count 1107
field mean 1.5266485998193
field stddev 2.0345043218728
field sum 1690
field sqrsum 7158
field min 0
field max 13
attr source  queueLengthSignal
statistic SimNetwork.a.takeoffQueue 	queueTime:stats
field count 551
field mean 1488.8032910358
field stddev 2108.1513358185
field sum 820330.6133607
field sqrsum 3665677047.0012
field min 0
field max 11024.452310318
attr source  queueTimeSignal
scalar SimNetwork.a.parkingLot 	parkingOccupancy:timeavg 	2.1632454078239
attr source  parkingOccupancy
statistic SimNetwork.a.parkingLot 	parkingOccupancy:stats
field count 1115
field mean 2.4636771300448
field stddev 1.140600067182
field sum 2747
field sqrsum 8217
field min 0
field max 5
attr source  parkingOccupancy
