version 2
run ParkingMeasurement-49-20170106-02:04:32-12040
attr configname ParkingMeasurement
attr datetime 20170106-02:04:32
attr experiment ParkingMeasurement
attr inifile parkingStudy.ini
attr iterationvars ""
attr iterationvars2 $repetition=49
attr measurement ""
attr network SimNetwork
attr processid 12040
attr repetition 49
attr replication #49
attr resultdir results
attr runnumber 49
attr seedset 49
param SimNetwork.a.parkingLot.parkingDelay "truncnormal(60min, 6min)"
param SimNetwork.a.runway.landingTime "truncnormal(15min, 1.5min)"
param SimNetwork.a.runway.takeoffTime "truncnormal(5min, 0.5min)"
param SimNetwork.a.runway.throughputCheckInterval 28.571min
param SimNetwork.wg.interArrivalTime exponential(28.571min)

statistic SimNetwork.wg 	responseTime:stats
field count 549
field mean 10073.705633017
field stddev 4709.2002454755
field sum 5530464.3925261
field sqrsum 67865028993.876
field min 4809.3148672354
field max 32440.839879829
attr source  responseTimeSignal
scalar SimNetwork.a.landingQueue 	queueLength:timeavg 	0.39656083714569
attr source  queueLengthSignal
statistic SimNetwork.a.landingQueue 	queueLength:stats
field count 1096
field mean 0.93248175182482
field stddev 1.0341226840632
field sum 1022
field sqrsum 2124
field min 0
field max 7
attr source  queueLengthSignal
statistic SimNetwork.a.landingQueue 	queueTime:stats
field count 548
field mean 667.53708139343
field stddev 911.30479346544
field sum 365810.3206036
field sqrsum 698462559.10574
field min 0
field max 5355.1428001086
attr source  queueTimeSignal
scalar SimNetwork.a.takeoffQueue 	queueLength:timeavg 	1.7425309859157
attr source  queueLengthSignal
statistic SimNetwork.a.takeoffQueue 	queueLength:stats
field count 1096
field mean 2.9142335766423
field stddev 4.3086339947416
field sum 3194
field sqrsum 29636
field min 0
field max 25
attr source  queueLengthSignal
statistic SimNetwork.a.takeoffQueue 	queueTime:stats
field count 548
field mean 2931.9294732255
field stddev 4321.1305761263
field sum 1606697.3513276
field sqrsum 14924400011.307
field min 0
field max 22043.102058135
attr source  queueTimeSignal
scalar SimNetwork.a.parkingLot 	parkingOccupancy:timeavg 	2.144006734098
attr source  parkingOccupancy
statistic SimNetwork.a.parkingLot 	parkingOccupancy:stats
field count 1096
field mean 2.5967153284672
field stddev 1.2669844020557
field sum 2846
field sqrsum 9148
field min 0
field max 6
attr source  parkingOccupancy
