version 2
run ParkingMeasurement-116-20170108-17:28:11-4513
attr configname ParkingMeasurement
attr datetime 20170108-17:28:11
attr experiment ParkingMeasurement
attr inifile parkingStudy.ini
attr iterationvars ""
attr iterationvars2 $repetition=116
attr measurement ""
attr network controltower.SimNetwork
attr processid 4513
attr repetition 116
attr replication #116
attr resultdir results
attr runnumber 116
attr seedset 116
param SimNetwork.a.parkingLot.parkingDelay "truncnormal(60min, 6min)"
param SimNetwork.a.runway.landingTime "truncnormal(15min, 1.5min)"
param SimNetwork.a.runway.takeoffTime "truncnormal(5min, 0.5min)"
param SimNetwork.a.runway.throughputCheckInterval 28.571min
param SimNetwork.wg.interArrivalTime exponential(28.571min)

vector 5  SimNetwork.a.runway  landedThroughput:vector  ETV
attr source  landedThroughputSignal
vector 6  SimNetwork.a.runway  tookoffThroughput:vector  ETV
attr source  tookoffThroughputSignal
vector 2  SimNetwork.a.landingQueue  queueLength:vector  ETV
attr source  queueLengthSignal
vector 1  SimNetwork.a.landingQueue  queueTime:vector  ETV
attr source  queueTimeSignal
vector 7  SimNetwork.a.parkingLot  parkingOccupancy:vector  ETV
attr source  parkingOccupancy
vector 4  SimNetwork.a.takeoffQueue  queueLength:vector  ETV
attr source  queueLengthSignal
vector 3  SimNetwork.a.takeoffQueue  queueTime:vector  ETV
attr source  queueTimeSignal
vector 0  SimNetwork.wg  responseTime:vector  ETV
attr source  responseTimeSignal
0	1944	208307.91406168697	13097.163826553
0	1989	212480.094074489865	9478.8426956217
0	1995	212786.278347853233	6657.1045263272
0	2003	213535.365616685337	6825.5603302916
0	2029	215589.055008274343	6964.2848580122
0	2040	216986.911555694308	7826.4344780955
0	2045	217355.565741487739	7804.6530097134
0	2080	220397.367097834606	9275.0311549677
0	2096	222504.816770181364	8194.0941164577
0	2107	222829.799026514997	7247.2125370301
0	2121	224183.759609024514	5762.3653150879
0	2130	225065.708349369518	6556.1363893603
0	2141	226119.997121231191	5835.7076254612
0	2155	227378.996788830847	7020.9415336719
0	2173	231151.330996582235	8509.1008905933
0	2208	234934.184194967583	8988.3869747242
0	2216	236283.779808108832	7890.4949908609
0	2240	238507.402815470803	7001.1011152097
0	2250	239823.584036852566	6962.9278663912
0	2260	242195.392237952632	9021.2873676559
0	2268	243321.604775436947	5974.6192309712
0	2290	248536.122288496142	10147.740170522
0	2322	253096.115427986664	9495.3686357988
0	2342	254496.855560078849	6090.8638328996
0	2359	255678.970209236408	6650.7833239728
0	2389	258748.790536643804	9071.6761522614
0	2398	259121.273374309904	5796.7168495401
0	2407	260597.053417386875	6342.3259408348
0	2418	261620.736426868714	6001.8156138629
0	2432	262740.047077402826	6252.6704191557
0	2458	266219.892187144599	9355.9864452096
0	2467	268747.561269921189	7329.2834117279
0	2476	269447.414838471365	5823.4610138747
0	2508	278526.725241930258	14775.076891953
0	2513	278833.67996448063	5575.7534070944
0	2574	287517.888680504431	13434.894310433
0	2629	291702.707610507656	9932.074645552
0	2637	291992.622902322137	10013.838954638
0	2642	292301.635654468681	9821.478635005
0	2647	292605.312587458027	9309.8065890265
0	2652	292926.119894371924	9106.0069857323
0	2661	293243.275406308138	9085.0116516991
0	2677	294368.539397938383	6341.660053989
0	2685	294690.235128664684	6880.7246918944
0	2691	294981.737750379635	6618.7998706173
0	2708	297903.023258276744	9218.7125001618
0	2742	301597.511331371509	8567.1923298088
0	2763	304001.490862310262	8077.6155778361
0	2768	304323.424052537657	5849.0225270049
0	2777	305454.386580833388	6024.3397175314
0	2794	308516.298663275157	8735.3391538072
0	2858	315806.459488048205	13144.968050282
0	2872	316081.452872974569	9052.6149495611
0	2883	317202.657374415839	6783.9313437044
0	2894	317501.796029431397	6818.6536234449
0	2899	317803.911822848382	6489.8353283267
0	2904	318089.554717713285	5948.0360386383
0	2913	318865.147977427811	5365.3776403081
0	2925	320978.035406481838	7344.266185634
0	2957	326234.850649254332	10296.951530332
0	2975	329477.285397787697	8755.8601550527
0	2983	330557.933354485739	6416.1912141964
0	3064	337713.672882872825	12942.095355466
0	3086	339587.210658407302	11318.286231527
0	3097	339890.512131081857	9113.6030242822
0	3114	341173.911737740435	10297.919407154
0	3122	341455.645505639685	10375.328670286
0	3141	342550.570655817284	11269.137495828
0	3155	343682.144575850013	12256.232823149
0	3160	343963.582722205907	10456.250141213
0	3165	344251.375886243724	9534.6202640623
0	3170	344502.893497196312	6948.7919340782
0	3179	344829.392611337663	6489.6403393712
0	3201	346702.496311234903	6830.6663804414
0	3212	347404.891307929985	6165.5476199678
0	3230	349808.584433316941	7329.6835843284
0	3235	350155.886788664956	5492.0629761601
0	3244	352800.64055985947	7411.2445741039
0	3263	357640.747540641511	10345.074811907
0	3283	363534.800347594912	10572.343111682
0	3329	369935.094602557749	11393.842508568
0	3334	370244.773339268869	5952.1494567415
0	3360	372595.823449841831	8002.1837873583
0	3368	373137.376003008453	5693.8654822588
0	3414	377666.282569842131	8930.7037368643
0	3419	377995.719513611309	7354.9472604302
0	3428	378954.645932283901	7700.6432041082
0	3436	379973.936328459086	6184.9845495739
0	3456	381431.636640647347	7482.5329252799
0	3464	381704.018581078611	7491.1639684873
0	3487	384981.915546867806	10347.026779391
0	3496	386775.440010717951	6575.7196570871
0	3504	387209.301502453655	5775.0910587628
0	3579	395630.788500976162	13709.886625764
0	3584	395984.395977409001	8576.3303448963
0	3590	396285.016923056286	8368.2353435236
0	3601	396646.010591033528	7104.3529782603
0	3615	397770.683475864978	5984.8157202887
0	3634	399143.832886205011	6951.6805394403
0	3648	400437.168090201052	6997.4183239546
0	3668	401897.922864848324	7403.1044295007
0	3693	403986.763915321483	7444.853167109
0	3698	404271.063966014658	6446.0855257185
0	3741	407607.958565084667	8553.5048602584
0	3752	408760.708618762183	7912.4853765089
0	3757	409067.086811514908	7374.5409173582
0	3765	409618.997550433271	7344.3266977962
0	3774	410172.934922909446	5709.090256153
0	3782	410603.374727241425	5258.8137580723
0	3799	412551.261090105818	6131.2260656845
0	3969	427136.047081060527	19529.285081777
0	3974	427428.933875735767	16453.948410993
0	3982	427754.946691741338	14422.416336036
0	3993	428088.888477840537	14637.72527942
0	4035	431872.342721760061	17288.071905122
0	4041	432123.528220485754	17489.043353536
0	4049	432404.41676353338	17549.977986974
0	4065	433661.809491312105	18180.803262393
0	4071	433953.794290804067	16410.272404254
0	4076	434273.177381510911	15039.291223687
0	4084	434536.037385820661	14628.035781792
0	4089	434882.365553216668	13758.221633602
0	4094	435204.6683823822	13654.975914683
0	4100	435507.615528286005	13583.40927937
0	4105	435786.183194393354	12106.322364804
0	4113	436097.394001641869	11794.514308024
0	4118	436409.025790445718	10815.112915421
0	4123	436714.603462123449	8872.227353182
0	4128	436983.095562623071	8911.8973512276
0	4137	437307.362328799298	9174.6932909257
0	4142	437640.423660038316	8115.476678987
0	4177	443574.095097542813	11318.778377144
0	4194	445529.182505292165	6004.7865854902
0	4254	450282.698075376829	10732.167288555
0	4271	451486.853536211322	9409.1104588595
0	4279	451792.243496771856	7500.8795828653
0	4287	452087.593657096272	6454.6943477225
0	4298	453311.877403225612	7621.8354716685
0	4303	453624.314167734983	7604.6418876153
0	4311	454036.404541926139	7720.3512458464
0	4328	455867.355790412545	9398.4203474033
0	4337	456736.299762005397	6538.3070044183
0	4354	458869.917908753325	7068.1004693194
0	4435	466415.679458925343	11688.738073718
0	4440	466737.775414269803	9089.2107452718
0	4445	467055.846773277713	7796.7689854874
0	4453	467304.464769630198	7469.6295607248
0	4458	467579.188783276923	6645.6604951607
0	4463	467872.313026786958	6924.9701288016
0	4483	469035.946783515262	7119.2534043983
0	4488	469354.761324167878	6506.3371656577
0	4531	474806.846924224299	10219.800978397
0	4548	476079.76340071625	8165.4204699254
0	4557	477017.345422665394	6060.0129550529
0	4568	477506.184717173497	6489.3156321274
0	4645	483977.628043821514	12172.605230496
0	4650	484249.257838459501	11128.554927402
0	4655	484590.108354916637	9718.7914296364
0	4660	484918.101518025388	7672.0467334353
0	4669	485186.532794324213	7258.5126469568
0	4674	485539.094218513175	7576.0717995925
0	4682	485966.775223235604	7462.8954312976
0	4693	486812.442027478302	6417.9530198053
0	4707	487899.313279495171	7009.7008971978
0	4773	494039.230635143059	11270.15324177
0	4781	494328.470390291848	7554.4075985588
0	4789	494630.824596185005	6229.1518608152
0	4803	495793.157054703343	7187.484386357
0	4808	496111.89931859669	7171.8738477786
0	4816	496832.527722043091	6542.7570119697
0	4825	497899.015194891508	7519.021108366
0	4859	501311.158631221474	10099.918327019
0	4899	505199.153044473328	6769.7853413192
0	4904	505541.122176235701	11193.341760387
0	4910	505838.472412713752	6591.5990392015
0	4918	506579.929228380762	6892.2203258335
0	4927	507793.705491149098	6149.1372172558
0	4972	512118.17231759824	9275.6989284075
0	4986	513251.288341626412	10026.830590279
0	4995	514326.429141543798	6022.6894164187
0	5009	514697.004116685759	5593.5847557144
0	5040	517793.174770714337	8365.6685356129
0	5045	518070.315643405249	7185.4244716616
0	5054	520066.679575968483	8056.3335974554
0	5068	520471.300330283701	5797.5343112035
0	5096	523250.035769938364	8556.894376039
0	5117	526624.834308275692	10825.149246807
0	5125	526885.904540936804	6632.9539848648
0	5130	527237.007561196871	6837.4099881998
0	5156	530618.728535552329	8672.643870773
0	5225	538172.916015885254	12822.139999013
0	5231	538495.987683525824	10737.930673738
0	5239	538819.05919315005	9909.1364378484
0	5244	539133.954076940703	6739.4025343529
0	5249	539403.681484056607	6638.6911700823
0	5289	542585.421763261713	9745.5184224319
0	5294	542907.643824623342	8232.3690813942
0	5299	543224.711927728949	7938.449228099
0	5316	544898.649695314048	8235.954574777
0	5334	545899.547777579698	6136.18886647
0	5362	548988.267617822588	8660.2915401483
0	5367	549228.024978486244	8270.7457509122
0	5378	550187.434031169976	6553.3170922143
0	5393	552005.785049538779	6350.1531481847
0	5404	552667.594996747871	6986.0545715436
0	5435	555809.879942369914	8664.541783063
0	5444	557700.688115642543	7563.5309115382
0	5452	558222.871739107231	5633.3868542513
0	5469	559821.145451966348	6822.6247853205
0	5495	563502.449908126416	9774.1853444091
0	5504	565258.951537554443	6844.5870958138
0	5524	566977.324695686615	6193.1612595387
0	5556	570875.071872839497	10074.476311336
0	5564	572110.969985591641	6455.4051927358
0	5581	574225.292903507403	7478.0381616016
0	5590	574554.174603595649	5795.8498365026
0	5667	581973.930458365846	12308.812307078
0	5675	582290.664593040816	9291.5092395865
0	5680	582565.951989604033	7656.667726414
0	5685	582797.567565721332	6587.828147691
0	5691	583111.613062600474	6319.7010998032
0	5699	583674.912051904997	6571.5545019995
0	5711	584853.627332740773	6774.7712622067
0	5716	585156.476799340161	7901.8761222658
0	5755	592510.730707795617	13505.015898889
0	5769	594824.167144913069	8141.3299079918
0	5786	596524.18065786209	6463.6096796905
0	5795	597604.364053592076	6299.5238840756
0	5838	602663.268451022926	10294.880373165
0	5846	603219.847186668609	7752.4016711284
0	5863	604754.686537255218	6375.5015907951
0	5872	605353.760479799713	6697.9127869437
0	5880	606024.686631941591	6311.4740909075
0	5898	608634.953996016187	8349.464895769
0	5915	611954.333706303462	8463.1329123039
0	5981	617675.495143486141	10886.439069864
0	5989	617977.374619572554	9097.6278643512
0	6003	619016.494189805661	6926.6705517965
0	6011	619352.897445620921	7101.8047804269
0	6019	619673.628589238893	6901.8327487009
0	6033	621089.385170428398	8253.1610458846
0	6044	621761.809247173147	7780.1149368158
0	6066	623817.918257809586	8073.1257637556
0	6075	624953.002952664436	7080.9622295571
0	6103	627058.316569424534	7418.113693032
0	6108	627335.154078537235	5683.2552307917
0	6126	629892.476090176563	7301.1454574938
0	6134	630827.652233858772	5706.9034726039
0	6161	634872.566265927338	9022.6690129465
0	6170	637559.804343777039	8805.0005700932
0	6179	638361.688896764711	5630.3091534236
0	6244	648989.727931264394	15338.545331631
0	6252	649306.077960259106	5731.0105869718
0	6257	649604.369415081757	5686.4943888679
0	6266	650331.17126424426	5404.391703114
0	6283	652406.935481346405	7212.0849209422
0	6291	652936.516903289598	7443.5202637356
0	6334	657275.694507068256	9406.2949192078
0	6346	658303.679691203904	7099.5461331271
0	6362	659466.744942817653	6485.727247275
0	6367	659765.525669184834	5341.5611822025
0	6376	660537.207552910588	5519.2225058319
0	6385	663345.416812467697	7257.0605175358
0	6423	667813.65984321677	9596.6248871073
0	6446	670589.193778654934	7142.3678486319
0	6454	670937.575267072893	5446.2100273227
0	6471	672635.188329206781	6137.8712542341
0	6488	674119.759441069286	6376.490035149
0	6505	676391.088600776972	8537.7833666529
0	6513	677079.117515536702	5671.0888397552
0	6523	679895.988464151081	6985.6752334011
0	6558	684018.00446207718	9187.1079430403
0	6586	686967.544325746624	7065.1538110661
0	6591	687297.463097722455	7222.1917426963
0	6620	690637.727888735668	8046.0286241835
0	6626	690941.178329202035	5921.8391719297
0	6651	693372.366183295055	8006.9638537433
0	6659	693918.246845734772	5526.5855822751
0	6677	696136.343635736562	6782.6675071869
0	6702	698699.920661423507	7528.7242068265
0	6722	700734.340324033106	8605.9327875728
0	6751	702972.45152572096	7909.9702284326
0	6764	704300.6549926002	7809.4200538068
0	6770	704594.996969593272	7954.2721657284
0	6786	705861.087670898398	6227.9631600532
0	6798	706906.936870920856	6338.1605183334
0	6812	708152.894614174466	6470.2479208814
0	6820	709216.950986787046	6244.964113714
0	6838	711649.608398797384	6917.4352700186
0	6880	716191.470583405097	9316.2096626571
0	6892	717419.28000233318	6988.2739137308
0	6897	717726.269961571951	5260.871406882
0	6909	718776.839942138276	6047.2680810791
0	6931	721097.391508200941	7154.0192447402
0	6980	726155.376498352201	11819.369984817
0	6985	726445.099827695273	7860.5047114847
0	6990	726742.675467550174	7173.2072120517
0	7007	728348.486172552288	7229.6654050403
0	7016	728917.646912697814	5853.2788818677
0	7036	730648.789598845168	7065.8233084273
0	7070	733862.815933927923	9039.4295255788
0	7075	734182.699994286291	7217.4035434097
0	7092	735691.954309660042	6210.0915275882
0	7100	736952.434481489371	6423.2176101864
0	7109	737448.756471331127	6578.6795288684
0	7118	739535.888759638503	7446.030736844
0	7176	747158.907247391209	12819.858760884
0	7199	749410.205484117934	7355.4968946385
0	7207	749702.335677649579	6740.8540028566
0	7212	749996.557376855495	6203.2755888692
0	7220	750466.769703125323	6487.1099128131
0	7229	751931.545706243215	6466.3795325251
0	7238	753534.280694556184	6501.8507356566
0	7257	758919.201608617468	11547.492772716
0	7285	764912.124891745749	10676.882932989
0	7351	772019.558838213343	11739.378827912
0	7356	772314.701077355614	10206.366390973
0	7364	772588.026014885956	6140.8127357846
0	7372	772842.485648191434	6472.3303151533
0	7392	774025.180909485428	7378.5172235832
0	7406	775205.734160120545	8536.3004188269
0	7411	775481.723344094457	8141.9616981355
0	7448	778547.717129424618	10137.406236967
0	7453	778807.898933785684	6029.2599421145
0	7481	781601.576581878658	7790.2830402849
0	7487	781852.628473696988	6365.2245271726
0	7495	782916.999111247293	6944.782770463
0	7503	783406.272346506635	6797.0906127316
0	7520	784926.6110229914	5639.2597146651
0	7539	789531.262833592294	9005.1391077216
0	7574	793799.782306695982	10065.792534158
0	7582	794595.541860561171	6276.6079358311
0	7611	797527.46951725465	7816.5896026093
0	7616	797854.02935792193	6604.3094284318
0	7625	800436.689275975467	9047.2196049046
0	7634	801269.865937775214	5913.9242482199
0	7688	806081.264406236799	10322.307522704
0	7704	807313.463783839069	5348.9320735511
0	7710	807606.993717967594	6233.2851898676
0	7721	808639.648023667025	5990.5888574503
0	7755	811983.720246352231	8598.5557421967
0	7760	812265.385251382905	7816.5133278203
0	7772	812699.045133443678	6844.101836361
0	7805	815720.865613816816	7404.161872956
0	7814	816014.549545521398	6671.4825137427
0	7830	817339.645378687322	7311.0046722898
0	7899	822912.369843175268	10417.837777495
0	7904	823219.460612394279	9718.2891319259
0	7909	823588.953875222569	9668.1553894145
0	7920	823941.510309048163	8054.1943872677
0	7925	824212.900203363365	6907.0980000332
0	7930	824526.175780029654	6921.6919305578
0	7936	824792.74627962888	6998.2905048504
0	7956	826287.758892592024	7917.8339580329
0	7961	826651.198711498488	7988.4271411309
0	8047	834936.279284155615	15170.059415426
0	8055	835253.460589075331	10402.632189119
0	8060	835568.259023147523	8778.1649885407
0	8065	835786.765160968551	7855.426879077
0	8076	836058.233850483325	6733.5600487258
0	8090	837207.615004256291	7723.3860411583
0	8098	837479.886503698295	7686.1119615408
0	8103	837783.539494346946	7795.2269865075
0	8112	838339.307505317065	6387.4470805457
0	8137	841564.455703260661	9385.4021131393
0	8183	846105.949921500525	10065.574701201
0	8188	846410.517308894551	6861.4601957925
0	8200	847463.884028071208	7862.0796604177
0	8254	852096.223568486575	9822.5139795855
0	8259	852381.664309561193	9945.906381985
0	8267	852652.880781733449	8997.2244180763
0	8278	852944.759700345533	8335.6862717993
0	8283	853209.604863936978	5891.5448587442
0	8288	853479.71905505153	5727.9058619971
0	8309	855501.928328699332	6411.8349685054
0	8314	855729.828509960399	7707.0421563104
0	8348	859185.800037604843	9480.948749853
0	8357	860818.905696963789	6613.5238241238
0	8382	862839.715790263281	6493.8363832747
0	8390	863276.943456834031	6400.9012799998
0	8416	865930.298117466217	8446.8037035654
0	8424	866802.517844440503	5913.1874752616
0	8433	868804.696249894016	7530.5494802417
0	8445	870019.167175926994	6250.4868764348
0	8478	876667.964767629865	12034.209828022
0	8523	880865.738391288877	11025.726996259
0	8529	881188.753851420031	6661.1349288186
0	8537	881639.798700371037	6359.1643029195
0	8554	883132.105474932312	6196.0212088554
0	8660	891717.394326125097	14103.557199712
0	8665	891996.23600216897	14310.632375712
0	8670	892330.844699345633	13532.453506869
0	8678	892667.628803041723	10590.822257497
0	8683	892934.843766441316	9798.4020645589
0	8692	893197.62568607507	9939.4317022167
0	8697	893517.928784712459	10107.136242253
0	8702	893822.049233149851	10028.586157998
0	8707	894142.842119170043	9888.8583190351
0	8712	894453.601812904263	9044.971371953
0	8720	894738.052949881759	8749.4696578056
0	8735	895514.711648598946	9001.4452674295
0	8780	900430.150937621385	10858.784040084
0	8800	902233.423288675055	6873.1598025459
0	8805	902525.350388654452	7137.6189764633
0	8817	903647.856003915283	7733.4766281539
0	8822	903945.762698421562	6747.9107878663
0	8839	906039.579020956641	8758.6453439681
0	8857	909593.600297191827	8832.658557855
0	8884	914418.548552848711	9588.9221685386
0	8901	915835.773871685842	7718.5958861555
0	8970	923630.806434687727	13369.806821338
0	8978	923931.026236352652	10691.415232931
0	8987	924198.351989441789	9618.0809416155
0	8995	924504.096925628461	6625.8069330381
0	9049	929154.237847191889	10345.244305208
0	9057	929442.655382577189	9801.964623082
0	9062	929737.501204134885	9795.3372791456
0	9067	929994.615173363167	9815.1429260217
0	9072	930277.244642699366	9217.1421676445
0	9080	930542.816112551417	6104.5298864887
0	9085	930836.335899574704	5923.8673297371
0	9094	931474.646610149129	6009.3436231952
0	9103	932895.030687285051	7009.3779706702
0	9235	945172.775247565392	19064.711685753
0	9243	945422.017129973945	11782.445123547
0	9260	946537.089522249691	11250.375893952
0	9265	946829.03398351196	11381.679555125
0	9270	947143.172879075206	11198.524064585
0	9275	947476.465864625807	11424.249362502
0	9283	947797.469484784934	11408.116108197
0	9289	948136.686555096969	10140.748031933
0	9294	948420.064409293815	8012.4571427736
0	9302	948728.2714349039	8977.8840701851
0	9307	949006.594003805843	7606.3711342619
0	9312	949276.728947953442	7056.3817657449
0	9346	952964.36382240112	10595.348881808
0	9395	957118.271947696394	11872.45083328
0	9400	957405.703839965936	7470.0529464583
0	9405	957718.267683480653	7124.2222940182
0	9413	958212.580541592001	7458.4173082202
0	9422	959267.607966959988	5734.6647332379
0	9430	959595.587943668897	6078.1555589331
0	9442	961009.18395988523	7226.9122452203
0	9482	966343.812231044701	11863.885996195
0	9491	966968.082161316506	6194.7567989292
0	9511	969843.826656823311	7332.0515138245
0	9516	970148.495822728164	5821.179170844
0	9526	972093.703714211842	7577.2975832395
0	9684	985969.906269885591	18553.956655101
0	9692	986306.884839962316	13784.953522665
0	9708	987394.210656218104	13498.65737445
0	9714	987645.743052010744	13498.242002492
0	9719	987954.261885544447	12507.172151449
0	9724	988253.610767291622	12764.435419779
0	9729	988564.658711801824	12789.040300962
0	9734	988820.610423232973	10976.167509055
0	9739	989074.488242498977	10937.260517322
0	9748	989336.669425765688	11020.511724707
0	9753	989617.219031178204	9763.5202638164
0	9761	989903.66330123308	9970.9715972761
0	9783	991989.509395979077	11311.583060146
0	9788	992257.215037982024	11191.79176473
0	9794	992561.061892346608	9333.9021945671
0	9811	994864.650547871203	8852.9736462226
0	9819	995279.550378979061	5652.7931831698
0	9837	997780.813973309493	7101.8754199066
0	9892	1005136.0634780101	12104.041365529
0	9897	1005436.722393582688	8758.755364945
0	9905	1005743.995227640515	5504.3939220353
0	9914	1006612.104665345855	6263.5792005987
0	9922	1007696.019775618135	7345.6110017299
0	9931	1008821.938013864381	7831.6582818845
0	9982	1014199.622176176495	11935.570962797
0	9993	1014757.121807765619	5781.3795376784
0	10022	1017123.251651835097	6860.7373107001
0	10217	1033303.412195798181	22433.340582333
0	10222	1033611.148944388796	21359.195699753
0	10234	1033976.623403420092	21713.237190022
0	10250	1035212.736429918455	20653.589502326
0	10284	1038226.250946704887	22410.577627572
0	10292	1038563.24175378196	21688.686924386
0	10298	1038887.46286745528	21079.963816192
0	10303	1039190.21730555631	20469.294187446
0	10311	1039509.528421853313	19946.379076942
0	10356	1043221.446111997972	23372.767648252
0	10361	1043560.605143834719	22650.879022549
0	10366	1043896.079730288506	22546.412480336
0	10375	1044162.038297498136	22426.255555601
0	10380	1044459.198903769831	21903.005451253
0	10385	1044752.742804186986	20498.977712689
0	10396	1045090.637620323646	19659.340662912
0	10424	1047157.029285479897	22536.468346101
0	10444	1049150.540470312088	23028.660796739
0	10452	1049464.205158375443	22538.679344438
0	10457	1049766.554588640009	21781.996027668
0	10462	1050053.666667635216	21162.217885922
0	10470	1050366.075571309136	18822.09784349
0	10484	1051694.907132366026	18058.492548436
0	10489	1052005.515701743683	17027.021923642
0	10497	1052317.596884448609	16448.661213633
0	10503	1052628.54799875195	15885.481445056
0	10511	1052928.016247387391	13634.444425015
0	10522	1053243.3520976167	12906.604686091
0	10541	1055504.236315777352	14335.199276538
0	10546	1055834.70713753148	14302.047645137
0	10552	1056132.79262630074	11341.068762117
0	10560	1056385.931967828379	10576.080473954
0	10573	1057645.923805657245	10626.531996244
0	10587	1058856.858441672782	11510.558465608
0	10595	1059106.390856937344	8995.1483633063
0	10601	1059418.283423864765	6289.6098829334
0	10621	1062374.297185409729	9223.9262018184
0	10626	1062700.990384937204	6398.8882743535
0	10644	1065878.223747237108	8290.3766971366
0	10744	1074255.988573858192	13210.425727159
0	10749	1074576.600830504175	11540.024795221
0	10755	1074878.661424782523	8478.3076711082
0	10760	1075143.094308217015	8620.9523488398
0	10768	1075429.381082512759	8479.6639193743
0	10785	1076624.387963295506	7876.9221939119
0	10796	1076931.438633409585	8073.7189251494
0	10804	1077235.02837926493	7619.5470684914
0	10815	1078564.833634358516	6918.5160195616
0	10820	1078848.646043552006	7715.0608334218
0	10829	1080493.224120162182	8052.7508414829
0	10838	1082379.128613589233	7035.8101619213
0	10866	1090072.942177471401	13075.876978164
0	10941	1097459.277934451579	12387.426893436
0	10952	1097761.732691330087	10495.32629681
0	10989	1100757.58891807674	10215.956406594
0	10997	1101117.637116045689	10234.645985934
0	11002	1101394.746989713978	10220.419629031
0	11007	1101673.37459990596	9846.218073255
0	11015	1101957.438106722457	9813.9277335485
0	11020	1102226.931746428246	9412.6289712154
0	11026	1102491.252065406573	9062.2433269087
0	11071	1107086.937484041902	9550.0090544263
0	11079	1107398.107491577398	8983.4004339296
0	11085	1107693.285934812577	8399.2877648809
0	11093	1108395.363881604062	5126.1556424888
0	11102	1110085.474087179969	6566.1828696368
0	11110	1110661.509405375895	6526.7255182089
0	11195	1122831.480639190369	17204.031016263
1	1914	203001.251378868139	0
1	1924	206129.173821526032	0
1	1935	207145.182060558367	435.37677416459
1	1949	208624.770150262141	0
1	1958	209494.812663879702	334.33558628094
1	1966	210404.426075090148	853.51334331583
1	1978	211354.40414403959	232.06820117273
1	2009	214310.722653723639	0
1	2031	215589.055008274343	6.468518789494
1	2051	218421.394293936575	0
1	2062	219208.155276317279	698.58331630809
1	2082	220397.367097834606	113.07760206464
1	2088	221322.188542523235	964.13328736426
1	2109	222829.799026514997	187.56892052601
1	2143	226119.997121231191	174.19990098776
1	2161	228393.2848172479	0
1	2179	231506.301700261062	0
1	2187	232860.656170461365	0
1	2199	233747.734365101202	573.62949480449
1	2222	237346.985544465722	0
1	2242	238507.402815470803	119.0206974967
1	2274	243600.746792187824	0
1	2292	248536.122288496142	130.13056131686
1	2301	249462.208603133602	434.02171787001
1	2310	250443.395797325987	766.2814129436
1	2327	253324.556524769772	0
1	2344	254496.855560078849	242.12808352677
1	2361	255678.970209236408	60.049396230568
1	2369	256677.21320470895	189.83654646181
1	2378	257681.954738588204	818.04899665316
1	2420	261620.736426868714	202.45856867542
1	2437	263623.95382459667	0
1	2446	264419.391842538411	667.74349256099
1	2483	273257.926557386209	0
1	2491	274219.592056045793	136.59768597404
1	2520	281770.632964955691	0
1	2531	282687.271638696173	708.48769101253
1	2540	283716.235239227355	1236.0782197636
1	2552	284569.564433009288	1274.0584345777
1	2557	285474.11070821212	1653.9977995725
1	2566	286446.332767895282	2288.0690132862
1	2579	287809.510436770239	0
1	2597	288571.428679489966	544.54933554054
1	2608	289376.879821818779	1013.9419420565
1	2617	290311.813682543827	1627.5029244288
1	2663	293243.275406308138	212.95640474538
1	2696	295923.875284474128	0
1	2714	298474.40152553275	0
1	2722	299430.046863301942	0
1	2734	300303.780183027122	522.82067355921
1	2748	302661.491437765958	0
1	2783	307028.837923413503	0
1	2801	310418.7260307114	0
1	2809	311271.082865437964	587.94045945148
1	2821	312127.60019887532	813.52370435367
1	2829	312821.936638602161	680.41795952721
1	2840	313641.899457189572	142.12912006987
1	2846	314552.508760215183	918.73953936738
1	2874	316081.452872974569	143.55375405237
1	2927	320978.035406481838	256.61016374687
1	2937	324141.742140289372	0
1	2945	325190.88157205377	419.30404464688
1	2963	328268.924426880399	0
1	2988	330776.909106799638	0
1	3006	331873.971236603786	997.97890601712
1	3015	332833.720669680945	1753.4038343275
1	3023	333647.219710362722	2365.786550373
1	3029	334577.139341796394	3151.2275890951
1	3040	335611.328101127522	2103.995520135
1	3049	336547.256503844979	1830.5008816635
1	3066	337713.672882872825	159.57131975472
1	3077	338477.074367847611	137.32209588118
1	3099	339890.512131081857	18.682200288379
1	3124	341455.645505639685	216.30181767748
1	3143	342550.570655817284	71.669806828738
1	3181	344829.392611337663	165.56879883279
1	3192	345610.951105213969	221.5551194584
1	3214	347404.891307929985	109.21857919511
1	3249	352962.457235913214	0
1	3269	358541.252093989518	0
1	3288	364292.623882527392	0
1	3296	365086.476701782287	492.8370392988
1	3306	367443.510520749699	0
1	3315	368735.578832977867	0
1	3340	370640.772253181102	0
1	3348	371449.388944307145	195.38621613143
1	3374	373788.9517788852	0
1	3388	374752.745491442299	803.64177607485
1	3400	375521.278330568756	1308.4237179774
1	3405	376431.334262527406	1796.4454950509
1	3441	380199.72035363083	0
1	3466	381704.018581078611	269.80813738776
1	3475	382475.816481101402	554.91460588966
1	3509	387408.065632512661	0
1	3518	388322.90065104703	406.11907151438
1	3527	389541.65761277322	0
1	3536	391785.867755576325	0
1	3551	392784.447038405365	592.29469164064
1	3559	393587.27007957279	147.52031332629
1	3571	394537.917768084224	43.099332736647
1	3603	396646.010591033528	104.099842821
1	3620	397824.97844029619	0
1	3636	399143.832886205011	89.379181378716
1	3653	400848.22324225327	0
1	3670	401897.922864848324	205.3769706916
1	3681	402773.588096102053	498.91724346501
1	3703	404463.84466675646	0
1	3715	405384.835761232167	40.274792063023
1	3727	406427.277967131784	7.242942710509
1	3743	407607.958565084667	1.196565800743
1	3787	410974.985464742341	0
1	3805	413332.530355705336	0
1	3813	414216.028346812227	764.86514839208
1	3828	415151.278754187714	567.00793754929
1	3839	416022.391095243417	1387.9062282938
1	3845	416919.591751993049	2065.1529754338
1	3856	417845.111275420487	2364.1050465018
1	3865	418654.935697403234	1111.4138108535
1	3876	419628.488454936658	394.60229711238
1	3888	420478.141147319481	570.13954329106
1	3899	421413.832123037381	289.68820342301
1	3914	422338.489514934295	788.79704723503
1	3919	423225.279448378133	1301.0731994621
1	3931	424063.390455821129	383.52962623187
1	3939	424884.282031028501	581.40233741093
1	3954	425765.516531193481	171.60365616834
1	3995	428088.888477840537	246.51236889905
1	4007	429104.860624450127	1033.6624130547
1	4018	429947.641323309028	1814.9722854355
1	4027	430682.25915373575	1157.3121726844
1	4051	432404.41676353338	149.10004313496
1	4148	439524.39591980194	0
1	4156	440303.154774176137	752.62398735447
1	4165	442077.743077351809	0
1	4183	444291.363913906597	0
1	4199	445632.899309373809	0
1	4214	446463.817744683542	773.7758131264
1	4226	447602.133517228563	1582.4612371089
1	4231	448420.61239745733	2104.5591013776
1	4239	449078.526660991516	2609.5912179823
1	4256	450282.698075376829	84.705317789688
1	4289	452087.593657096272	285.77621766237
1	4317	454726.941385207531	0
1	4342	457648.564668997999	0
1	4359	459259.077787790298	0
1	4368	460085.208113590449	250.3729046851
1	4379	460960.870112385294	27.341824269103
1	4385	461892.282810632869	944.93991264754
1	4400	462894.378782540972	977.68540342403
1	4408	463970.56808827566	1122.1439297655
1	4420	465023.601675632231	436.55572980477
1	4468	467914.342930790896	0
1	4494	470957.332467612518	0
1	4506	471865.404571187967	848.53548614187
1	4511	472722.813506987779	917.79069366184
1	4523	473598.537290682119	477.83437962462
1	4537	474871.316925280254	0
1	4570	477506.184717173497	260.12993258343
1	4585	478411.284381193243	483.26423382584
1	4593	479291.57736518762	1328.554946267
1	4602	480092.436970352977	1588.557178415
1	4613	481107.434526175647	712.94551850261
1	4622	481899.04888876049	1009.4365064632
1	4630	482907.126552532418	138.04915915927
1	4695	486812.442027478302	38.379235745266
1	4712	488401.672735369776	0
1	4724	489352.502064542398	746.82939619608
1	4729	490223.130695274827	1283.1052244567
1	4741	491053.851648466186	764.0809383928
1	4753	492019.03654023596	1639.0424537104
1	4761	492940.493622866282	1729.2533186641
1	4791	494630.824596185005	283.0441803367
1	4830	498429.36770315412	0
1	4842	499309.145942522153	62.272569009908
1	4850	500160.052239949642	472.34333740237
1	4864	501644.568273893327	0
1	4873	502842.473389190708	0
1	4887	503764.81402988382	540.35627853638
1	4932	508303.739725125065	0
1	4944	509291.279217282931	187.85985631157
1	4952	510153.660323112454	726.15408801102
1	4961	511049.176770205035	164.28559846139
1	4974	512118.17231759824	107.82633908514
1	5011	514697.004116685759	23.23809760558
1	5019	515720.442701481204	1027.3013075819
1	5028	516577.030504761866	777.34544329278
1	5070	520471.300330283701	218.34977421168
1	5079	521326.607145267802	927.00957227071
1	5087	522160.589450262965	214.5047854836
1	5102	525350.776016871965	0
1	5135	527758.057009787601	0
1	5144	528909.922755301622	0
1	5162	532394.551542587819	0
1	5176	533074.275707223682	309.28539324941
1	5185	534245.235381705709	1405.3320408759
1	5194	535133.499716850517	458.22497362137
1	5202	536055.08719354041	768.82449391042
1	5214	536986.822022896231	324.12690235916
1	5254	539763.358911109737	0
1	5269	540771.993919107867	444.01784143355
1	5277	541492.664011613508	535.38478403942
1	5305	543634.116938955629	0
1	5336	545899.547777579698	243.9158762256
1	5342	546947.349370148712	1265.8089449445
1	5350	547782.669024905487	637.33086559853
1	5380	550187.434031169976	50.276827065657
1	5406	552667.594996747871	78.110111891898
1	5415	553707.769680482173	709.24901383634
1	5423	554557.185751780784	828.92118806344
1	5457	558414.364441740672	0
1	5475	560784.163436147934	0
1	5483	561661.638829287601	861.04326778396
1	5509	565655.564792855879	0
1	5526	566977.324695686615	230.06995378086
1	5535	568758.324767093081	0
1	5544	569703.988028606388	38.869877318182
1	5570	572999.155353454312	0
1	5595	574909.284263190013	0
1	5604	576209.739418030294	0
1	5618	577255.990949324446	464.07898652718
1	5630	578165.524204457854	1062.1666545523
1	5638	579092.724301877616	1838.1236248033
1	5644	579901.806014018111	1822.949943484
1	5655	580843.508407974167	1837.7935990674
1	5722	586682.837236921271	0
1	5732	590060.570978171625	0
1	5740	591304.840169516429	0
1	5757	592510.730707795617	142.34262993805
1	5775	595467.445515540247	0
1	5801	598379.184946460168	0
1	5809	599278.411482206674	622.56378935066
1	5824	600293.952355162584	580.73981412853
1	5829	601304.704320448513	1019.2152202014
1	5852	603491.200793999529	0
1	5885	606789.056073622415	0
1	5903	608879.746755221378	0
1	5921	612089.823638009112	0
1	5932	612811.416164239533	560.3234990455
1	5943	613629.039972815101	857.24413227709
1	5952	614603.219126318827	1766.9950017751
1	5958	615483.982312294039	1502.2880019367
1	5966	616483.600200352022	738.80770629807
1	5991	617977.374619572554	105.33389646524
1	6021	619673.628589238893	33.425712846342
1	6046	621761.809247173147	109.91039942766
1	6058	622615.093938962091	23.763306279312
1	6080	625120.748761254841	0
1	6092	626024.63764727542	174.74039429461
1	6114	628754.803773683876	0
1	6141	632731.379743341089	0
1	6149	633651.182599633331	0
1	6187	643575.067373287325	0
1	6195	644451.677329988337	533.80230377445
1	6207	645301.856602854306	375.07704172401
1	6215	646048.46083260914	853.61027220498
1	6221	646947.313672231743	1454.3170326778
1	6229	647869.399587860465	0
1	6271	651204.133558076828	0
1	6296	652981.017695542697	0
1	6305	654423.964486982327	0
1	6314	655250.890088743439	232.90504166471
1	6322	656103.27026477188	14.913969839987
1	6348	658303.679691203904	86.644735094469
1	6391	663446.825930023065	0
1	6400	665491.365239750166	0
1	6408	666497.317074972671	0
1	6425	667813.65984321677	70.390437296485
1	6434	668758.019348743514	904.71411461943
1	6459	671408.028675781551	0
1	6476	672910.313230749967	0
1	6493	674830.896519036847	0
1	6528	679902.390514680573	0
1	6537	680751.851933544082	676.58057851788
1	6546	682591.699264552153	0
1	6563	685019.339157272299	0
1	6575	685881.121153038029	515.71882348624
1	6597	688391.661263459628	0
1	6606	689362.629528550192	8.953400000566
1	6631	691171.196454596974	0
1	6642	692148.629096927308	20.221560467046
1	6665	695062.481297288388	0
1	6682	696491.234938793409	0
1	6693	697374.280806804009	733.55600293912
1	6708	699633.124510845164	0
1	6724	700734.340324033106	165.56397144561
1	6736	701734.936187147461	52.289493854399
1	6753	702972.45152572096	0.464652647916
1	6775	704732.173128778818	0
1	6800	706906.936870920856	31.675950172819
1	6826	710431.006088602342	0
1	6843	712465.398554689943	0
1	6852	713405.352761566101	675.78090050695
1	6860	714126.071786648573	182.69952318788
1	6869	714984.791555462166	648.78504192664
1	6911	718776.839942138276	192.24482592773
1	6922	719836.902772346842	267.43451684839
1	6936	721118.820767511967	0
1	6945	723064.368030830123	0
1	6957	724053.34590794154	470.37961752363
1	6968	724943.212487091399	119.82607874228
1	6996	726965.29645087655	0
1	7021	729481.862782071796	0
1	7038	730648.789598845168	119.57272754216
1	7046	731722.765050640807	852.68810817807
1	7058	732705.784932256455	615.92690946194
1	7080	734339.048486507282	0
1	7124	742054.708589479408	0
1	7133	742961.481674793019	0
1	7141	743848.773262220593	55.491474234303
1	7150	744753.109303696395	773.4495133842
1	7159	745737.771366704334	272.60519298617
1	7178	747158.907247391209	126.47728849167
1	7187	748122.60812622195	750.89929032
1	7243	754235.241958756907	0
1	7263	760280.180010300921	0
1	7272	762108.334686382751	0
1	7291	766370.15533303809	0
1	7308	767308.478585599161	861.26530649784
1	7317	768286.514679843463	1639.8509939412
1	7325	769017.617376153948	2348.1836348603
1	7331	769956.767198773919	2617.0055528149
1	7339	770792.826082331678	2382.5151898738
1	7374	772842.485648191434	63.846656520216
1	7394	774025.180909485428	213.88736789166
1	7416	775487.403946524371	0
1	7424	776365.542484743841	393.32614395954
1	7433	777260.232466304971	651.05073252994
1	7458	779287.351308326326	0
1	7467	780526.123725870688	0
1	7509	783733.989772537729	0
1	7527	788318.933924730047	0
1	7544	789710.879914645388	0
1	7553	791249.71992949015	0
1	7562	792054.827936710681	665.35826563977
1	7587	795355.941689555345	0
1	7602	796283.62558625196	524.66870271881
1	7639	801373.708528099991	0
1	7648	802361.056445753244	396.52473546528
1	7656	803327.660417865345	678.60125164862
1	7665	804214.474570710691	829.31006655518
1	7673	805008.320544976398	559.44862141377
1	7690	806081.264406236799	226.32110915411
1	7723	808639.648023667025	322.94428280618
1	7732	809657.582069764133	314.51503798547
1	7746	810664.764787336513	636.12408093895
1	7774	812699.045133443678	204.51306776329
1	7782	813501.17148046838	0
1	7791	814486.375604960871	565.57711915282
1	7816	816014.549545521398	127.23362374095
1	7832	817339.645378687322	33.843175357168
1	7844	818062.578789989619	458.0949405178
1	7858	818850.471054738613	1056.0152799601
1	7870	819841.193161894025	1471.2682273349
1	7875	820686.875469975663	2024.1038996081
1	7884	821592.144986305532	1825.9251175764
1	7941	824850.828399956032	0
1	7966	826790.094034606778	0
1	7974	827931.338281891573	0
1	7983	829324.673801757507	0
1	8001	830214.025064861692	729.79610176369
1	8009	831129.011853323228	1335.2373111657
1	8018	831973.154567883285	1984.8420600439
1	8029	832967.452528942962	1015.5921041716
1	8038	833797.265337336575	1618.2117472152
1	8078	836058.233850483325	17.858630184121
1	8117	839549.05711310208	0
1	8126	840313.866950008966	712.06258235549
1	8143	842273.709588901116	0
1	8151	843243.167251056471	807.40932348027
1	8163	844048.274175750537	392.61781209341
1	8171	844949.080458525048	340.00702997878
1	8202	847463.884028071208	145.82402287845
1	8216	848414.796305190248	662.98311213583
1	8231	849241.187920842787	1218.4015671928
1	8239	850012.490504787843	922.39714459393
1	8245	850869.6756525867	1164.8243648349
1	8294	854205.381872839956	0
1	8319	856345.879406988534	0
1	8328	857247.282764702797	371.24058786861
1	8336	858142.711998162009	659.2175842612
1	8362	860889.330369178924	0
1	8373	861740.543732362424	466.39696271009
1	8395	863768.680299492166	0
1	8404	864701.243049505138	67.488109896801
1	8447	870019.167175926994	179.15578089747
1	8458	874527.618922601469	0
1	8469	875370.820861773962	90.186464322385
1	8483	876936.084266076878	0
1	8495	877918.540343105312	304.7032166922
1	8500	878789.274049552282	1103.6704230952
1	8512	879622.177888481853	823.78669600568
1	8542	882076.80654554462	0
1	8559	883136.441701882388	0
1	8579	883943.955214325331	685.76123046694
1	8588	884800.29364140461	1389.5010989454
1	8596	885846.760855814299	2053.2977806628
1	8608	886770.006824905049	2516.0230247701
1	8619	887855.33714618535	2446.7067052341
1	8625	888712.210403748418	2723.6271116722
1	8640	889762.999475145048	3249.7330939756
1	8645	890668.813495448936	1097.446597912
1	8737	895514.711648598946	154.44816246984
1	8746	896577.813252814832	1190.0818406237
1	8757	897436.258066622039	1521.8786908607
1	8763	898296.498084911167	1098.6461743559
1	8768	899267.430124979723	1986.4964479911
1	8785	900760.941739336876	0
1	8827	904829.62638431011	0
1	8845	908117.177985530309	0
1	8862	910260.999613349765	0
1	8872	913239.611003422114	0
1	8889	914580.271047826262	0
1	8907	917878.289992590365	0
1	8919	918881.010679085376	72.017137101383
1	8930	919740.92106528967	100.23030579451
1	8942	920664.14555279083	721.98162780155
1	8950	921517.307648092458	1337.835400751
1	8956	922366.326409454109	1306.2239343992
1	8997	924504.096925628461	65.810699565704
1	9005	925421.060573507945	508.59200367034
1	9023	926181.796374314207	716.49338736032
1	9031	927003.53300829084	1117.8802916759
1	9037	927884.16247507618	1776.0989132634
1	9108	933639.572006427211	0
1	9117	935286.713628297932	0
1	9132	936129.101119780436	681.74669139397
1	9140	937074.796308841502	1130.1474943517
1	9146	937942.875996181465	1890.6594940573
1	9157	938842.337318064909	2452.9839414769
1	9166	939826.609477676725	1830.6709545128
1	9177	940561.374204596244	810.98683987747
1	9186	941285.458968929747	877.85170240951
1	9197	942171.246861169031	771.02399162508
1	9212	942946.448676751882	726.10149454331
1	9220	943886.025649027701	1517.0107084344
1	9245	945422.017129973945	176.19601555731
1	9318	949935.650893507661	0
1	9332	950839.344480393711	245.29909093128
1	9338	951709.166004358972	955.00277098722
1	9352	953517.432384735793	0
1	9363	954341.460622355689	808.51738863356
1	9375	955090.585478646883	1308.313763982
1	9383	956022.570183135017	1542.6439482853
1	9444	961009.18395988523	235.85859749797
1	9453	962511.775142998829	0
1	9462	964327.316651884132	0
1	9474	965183.861801734615	667.45567076224
1	9496	967415.94961478434	0
1	9531	972521.931317297808	0
1	9540	973895.553281767794	0
1	9548	974681.998696595564	534.49764707676
1	9560	975512.477083892227	65.387349797022
1	9568	976382.044335670053	892.86898815774
1	9574	977235.298629897618	1459.6802190582
1	9591	978249.623491905027	405.18057772714
1	9603	979119.970621348858	982.74289617163
1	9614	980106.131113053735	1789.9734119947
1	9629	980890.672018138291	1036.9732507765
1	9640	981809.576194499997	1876.884490543
1	9649	982791.10941292885	2113.1830770959
1	9660	983677.837370707401	2612.4140974552
1	9669	984734.478536646144	1507.3188388666
1	9694	986306.884839962316	295.20793831367
1	9763	989903.66330123308	276.90610542378
1	9774	990813.362361943045	134.42380854018
1	9799	993032.022112481338	0
1	9825	996677.967028637666	0
1	9843	1000239.601305605247	0
1	9860	1001054.926203373012	706.40073862589
1	9866	1001822.952913742811	1472.5441398545
1	9874	1002794.47457695022	1804.1948449703
1	9880	1003798.508528343679	1534.4573149638
1	9936	1008975.7422700872	0
1	9945	1010262.514341135041	0
1	9953	1011222.332176784592	352.2605633195
1	9962	1012251.953244635361	0
1	9974	1013150.677707597916	887.29149419942
1	9995	1014757.121807765619	197.97488017366
1	10004	1015815.673319133168	0
1	10024	1017123.251651835097	248.69682243955
1	10035	1018030.545780274427	223.0467290107
1	10044	1019054.910463605755	333.98734549529
1	10059	1020128.3100102233	565.16066531223
1	10070	1021067.390757842094	1218.7122940957
1	10085	1022035.494265203895	1125.7681439182
1	10096	1023046.992667040922	1697.3254170882
1	10108	1023891.184381543481	2155.4016396461
1	10119	1024699.955785268888	2143.7623327522
1	10128	1025601.183225390998	1347.4181338931
1	10142	1026581.022885646993	1960.4619462679
1	10151	1027454.03204687795	2022.7350894667
1	10162	1028375.651134504562	2253.7714609314
1	10174	1029165.060373926341	2239.5345599889
1	10182	1030049.363532712507	2064.8049717408
1	10191	1031050.185911652304	2158.737129939
1	10202	1031960.36102748134	416.38329966199
1	10236	1033976.623403420092	340.2088194896
1	10252	1035212.736429918455	234.24265181684
1	10264	1036132.097512292716	263.16184147705
1	10276	1037157.24970913429	414.18315543833
1	10313	1039509.528421853313	215.95659948088
1	10324	1040502.429158167471	165.68174664191
1	10336	1041353.369282221459	184.3322429823
1	10347	1042236.89944624665	704.23995385204
1	10398	1045090.637620323646	298.91375613995
1	10410	1045904.175852598267	94.324358723835
1	10426	1047157.029285479897	137.63747606617
1	10435	1048150.963466100022	804.66349003503
1	10472	1050366.075571309136	254.83307767814
1	10524	1053243.3520976167	114.67855668537
1	10530	1054337.893546018928	1187.5225624276
1	10562	1056385.931967828379	83.829857244632
1	10575	1057645.923805657245	58.076755556749
1	10606	1061045.562846698725	0
1	10632	1063036.576035283225	0
1	10650	1066400.35375367435	0
1	10661	1067437.935664265259	915.79370488806
1	10670	1068316.421076739604	1366.7039136011
1	10681	1069028.109734587803	280.64396520419
1	10690	1069938.115636180897	1080.3959279207
1	10698	1070801.219324136224	1185.7380133627
1	10710	1071544.909429639291	411.32421950909
1	10718	1072210.503031571793	564.18541677487
1	10730	1073139.163086676288	698.68980799702
1	10770	1075429.381082512759	86.062630844834
1	10806	1077235.02837926493	237.96317995783
1	10844	1085071.851041015312	0
1	10854	1087266.406394520239	0
1	10872	1090541.632511482867	0
1	10886	1091492.86007909886	609.86894898696
1	10898	1092468.167122904412	1293.8397622218
1	10909	1093544.873104002606	1717.7165773516
1	10918	1094399.18637607247	2255.6760028985
1	10923	1095373.659765542761	2559.3569903299
1	10932	1096309.749794677445	2880.7410561796
1	10954	1097761.732691330087	224.80426171448
1	10968	1098703.552287045778	288.84522939796
1	10980	1099554.625059761048	260.62688982937
1	11031	1103269.208239115303	0
1	11043	1104041.050355742639	521.75913819943
1	11054	1105045.651303445412	910.86741627846
1	11063	1105969.991202924431	342.54157999707
1	11118	1114922.722383055804	0
1	11127	1116463.200550277225	0
1	11135	1117337.132204610494	783.93757397724
1	11150	1118381.310301333566	500.57445891816
1	11158	1119149.09234243362	1021.1993859654
1	11167	1120030.578664864327	1758.2795883651
1	11172	1120790.01418294108	2000.1662111053
1	11184	1121639.825384080886	542.0152734026
2	1912	203001.251378868139	1
2	1914	203001.251378868139	0
2	1922	206129.173821526032	1
2	1924	206129.173821526032	0
2	1927	206709.805286393774	1
2	1935	207145.182060558367	0
2	1947	208624.770150262141	1
2	1949	208624.770150262141	0
2	1953	209160.477077598761	1
2	1958	209494.812663879702	0
2	1961	209550.912731774315	1
2	1966	210404.426075090148	0
2	1973	211122.335942866861	1
2	1978	211354.40414403959	0
2	2007	214310.722653723639	1
2	2009	214310.722653723639	0
2	2026	215582.586489484849	1
2	2031	215589.055008274343	0
2	2049	218421.394293936575	1
2	2051	218421.394293936575	0
2	2054	218509.571960009187	1
2	2062	219208.155276317279	0
2	2074	220284.289495769961	1
2	2077	220358.055255158972	2
2	2082	220397.367097834606	1
2	2088	221322.188542523235	0
2	2104	222642.230105988985	1
2	2109	222829.799026514997	0
2	2138	225945.797220243427	1
2	2143	226119.997121231191	0
2	2159	228393.2848172479	1
2	2161	228393.2848172479	0
2	2177	231506.301700261062	1
2	2179	231506.301700261062	0
2	2185	232860.656170461365	1
2	2187	232860.656170461365	0
2	2194	233174.104870296715	1
2	2199	233747.734365101202	0
2	2220	237346.985544465722	1
2	2222	237346.985544465722	0
2	2237	238388.382117974106	1
2	2242	238507.402815470803	0
2	2272	243600.746792187824	1
2	2274	243600.746792187824	0
2	2287	248405.99172717928	1
2	2292	248536.122288496142	0
2	2296	249028.186885263591	1
2	2301	249462.208603133602	0
2	2304	249677.114384382383	1
2	2310	250443.395797325987	0
2	2325	253324.556524769772	1
2	2327	253324.556524769772	0
2	2339	254254.727476552076	1
2	2344	254496.855560078849	0
2	2356	255618.92081300584	1
2	2361	255678.970209236408	0
2	2364	256487.376658247136	1
2	2369	256677.21320470895	0
2	2372	256863.905741935046	1
2	2378	257681.954738588204	0
2	2415	261418.277858193296	1
2	2420	261620.736426868714	0
2	2435	263623.95382459667	1
2	2437	263623.95382459667	0
2	2440	263751.648349977417	1
2	2446	264419.391842538411	0
2	2481	273257.926557386209	1
2	2483	273257.926557386209	0
2	2486	274082.994370071753	1
2	2491	274219.592056045793	0
2	2518	281770.632964955691	1
2	2520	281770.632964955691	0
2	2523	281978.783947683647	1
2	2526	282480.15701946371	2
2	2531	282687.271638696173	1
2	2535	283295.505998431545	2
2	2540	283716.235239227355	1
2	2543	283820.112908639591	2
2	2546	284158.263754609051	3
2	2552	284569.564433009288	2
2	2557	285474.11070821212	1
2	2566	286446.332767895282	0
2	2577	287809.510436770239	1
2	2579	287809.510436770239	0
2	2583	288026.879343949428	1
2	2592	288362.937879762312	2
2	2597	288571.428679489966	1
2	2600	288684.310758114987	2
2	2608	289376.879821818779	1
2	2617	290311.813682543827	0
2	2657	293030.319001562758	1
2	2663	293243.275406308138	0
2	2694	295923.875284474128	1
2	2696	295923.875284474128	0
2	2712	298474.40152553275	1
2	2714	298474.40152553275	0
2	2720	299430.046863301942	1
2	2722	299430.046863301942	0
2	2725	299780.959509467908	1
2	2734	300303.780183027122	0
2	2746	302661.491437765958	1
2	2748	302661.491437765958	0
2	2781	307028.837923413503	1
2	2783	307028.837923413503	0
2	2799	310418.7260307114	1
2	2801	310418.7260307114	0
2	2804	310683.142405986487	1
2	2809	311271.082865437964	0
2	2812	311314.076494521646	1
2	2821	312127.60019887532	0
2	2824	312141.51867907495	1
2	2829	312821.936638602161	0
2	2832	313499.770337119701	1
2	2835	313633.769220847798	2
2	2840	313641.899457189572	1
2	2846	314552.508760215183	0
2	2866	315937.899118922194	1
2	2874	316081.452872974569	0
2	2922	320721.42524273497	1
2	2927	320978.035406481838	0
2	2935	324141.742140289372	1
2	2937	324141.742140289372	0
2	2940	324771.577527406887	1
2	2945	325190.88157205377	0
2	2961	328268.924426880399	1
2	2963	328268.924426880399	0
2	2986	330776.909106799638	1
2	2988	330776.909106799638	0
2	2992	330875.992330586665	1
2	2995	331080.316835353417	2
2	2998	331281.433159989759	3
2	3001	331425.911752701278	4
2	3006	331873.971236603786	3
2	3015	332833.720669680945	2
2	3018	333507.332580992567	3
2	3023	333647.219710362722	2
2	3029	334577.139341796394	1
2	3032	334716.755622181468	2
2	3040	335611.328101127522	1
2	3049	336547.256503844979	0
2	3060	337554.101563118109	1
2	3066	337713.672882872825	0
2	3072	338339.752271966435	1
2	3077	338477.074367847611	0
2	3091	339871.829930793478	1
2	3099	339890.512131081857	0
2	3119	341239.343687962208	1
2	3124	341455.645505639685	0
2	3138	342478.900848988546	1
2	3143	342550.570655817284	0
2	3176	344663.823812504872	1
2	3181	344829.392611337663	0
2	3187	345389.39598575557	1
2	3192	345610.951105213969	0
2	3209	347295.67272873487	1
2	3214	347404.891307929985	0
2	3247	352962.457235913214	1
2	3249	352962.457235913214	0
2	3267	358541.252093989518	1
2	3269	358541.252093989518	0
2	3286	364292.623882527392	1
2	3288	364292.623882527392	0
2	3291	364593.639662483483	1
2	3296	365086.476701782287	0
2	3304	367443.510520749699	1
2	3306	367443.510520749699	0
2	3313	368735.578832977867	1
2	3315	368735.578832977867	0
2	3338	370640.772253181102	1
2	3340	370640.772253181102	0
2	3343	371254.002728175711	1
2	3348	371449.388944307145	0
2	3372	373788.9517788852	1
2	3374	373788.9517788852	0
2	3377	373949.103715367449	1
2	3380	374212.854612591338	2
2	3383	374634.888767476504	3
2	3388	374752.745491442299	2
2	3400	375521.278330568756	1
2	3405	376431.334262527406	0
2	3439	380199.72035363083	1
2	3441	380199.72035363083	0
2	3461	381434.210443690852	1
2	3466	381704.018581078611	0
2	3469	381920.901875211739	1
2	3475	382475.816481101402	0
2	3507	387408.065632512661	1
2	3509	387408.065632512661	0
2	3513	387916.78157953265	1
2	3518	388322.90065104703	0
2	3525	389541.65761277322	1
2	3527	389541.65761277322	0
2	3534	391785.867755576325	1
2	3536	391785.867755576325	0
2	3542	392192.152346764721	1
2	3551	392784.447038405365	0
2	3554	393439.749766246495	1
2	3559	393587.27007957279	0
2	3566	394494.818435347577	1
2	3571	394537.917768084224	0
2	3598	396541.910748212523	1
2	3603	396646.010591033528	0
2	3618	397824.97844029619	1
2	3620	397824.97844029619	0
2	3631	399054.453704826295	1
2	3636	399143.832886205011	0
2	3651	400848.22324225327	1
2	3653	400848.22324225327	0
2	3665	401692.545894156724	1
2	3670	401897.922864848324	0
2	3673	402274.670852637047	1
2	3681	402773.588096102053	0
2	3701	404463.84466675646	1
2	3703	404463.84466675646	0
2	3710	405344.560969169144	1
2	3715	405384.835761232167	0
2	3722	406420.035024421275	1
2	3727	406427.277967131784	0
2	3738	407606.761999283924	1
2	3743	407607.958565084667	0
2	3785	410974.985464742341	1
2	3787	410974.985464742341	0
2	3803	413332.530355705336	1
2	3805	413332.530355705336	0
2	3808	413451.163198420147	1
2	3813	414216.028346812227	0
2	3816	414584.270816638426	1
2	3819	414634.484866949629	2
2	3823	414854.438776559238	3
2	3828	415151.278754187714	2
2	3834	415481.006228918719	3
2	3839	416022.391095243417	2
2	3845	416919.591751993049	1
2	3851	417543.521886549759	2
2	3856	417845.111275420487	1
2	3865	418654.935697403234	0
2	3868	419233.88615782428	1
2	3876	419628.488454936658	0
2	3879	419908.001604028426	1
2	3888	420478.141147319481	0
2	3894	421124.143919614369	1
2	3899	421413.832123037381	0
2	3902	421549.692467699269	1
2	3909	421924.206248916026	2
2	3914	422338.489514934295	1
2	3919	423225.279448378133	0
2	3923	423679.860829589263	1
2	3931	424063.390455821129	0
2	3934	424302.879693617573	1
2	3939	424884.282031028501	0
2	3949	425593.91287502514	1
2	3954	425765.516531193481	0
2	3987	427842.376108941487	1
2	3990	428071.198211395426	2
2	3995	428088.888477840537	1
2	3998	428132.669037873569	2
2	4007	429104.860624450127	1
2	4010	429524.946981051361	2
2	4018	429947.641323309028	1
2	4027	430682.25915373575	0
2	4046	432255.316720398416	1
2	4051	432404.41676353338	0
2	4146	439524.39591980194	1
2	4148	439524.39591980194	0
2	4151	439550.530786821671	1
2	4156	440303.154774176137	0
2	4163	442077.743077351809	1
2	4165	442077.743077351809	0
2	4181	444291.363913906597	1
2	4183	444291.363913906597	0
2	4197	445632.899309373809	1
2	4199	445632.899309373809	0
2	4202	445690.041931557137	1
2	4206	446019.672280119655	2
2	4209	446316.053296079767	3
2	4214	446463.817744683542	2
2	4217	446468.935443009219	3
2	4226	447602.133517228563	2
2	4231	448420.61239745733	1
2	4239	449078.526660991516	0
2	4251	450197.992757587141	1
2	4256	450282.698075376829	0
2	4284	451801.817439433904	1
2	4289	452087.593657096272	0
2	4315	454726.941385207531	1
2	4317	454726.941385207531	0
2	4340	457648.564668997999	1
2	4342	457648.564668997999	0
2	4357	459259.077787790298	1
2	4359	459259.077787790298	0
2	4363	459834.835208905353	1
2	4368	460085.208113590449	0
2	4371	460933.528288116191	1
2	4374	460947.342897985326	2
2	4379	460960.870112385294	1
2	4385	461892.282810632869	0
2	4388	461916.693379116939	1
2	4394	462848.424158510146	2
2	4400	462894.378782540972	1
2	4408	463970.56808827566	0
2	4415	464587.045945827466	1
2	4420	465023.601675632231	0
2	4466	467914.342930790896	1
2	4468	467914.342930790896	0
2	4492	470957.332467612518	1
2	4494	470957.332467612518	0
2	4497	471016.869085046099	1
2	4501	471805.022813325944	2
2	4506	471865.404571187967	1
2	4511	472722.813506987779	0
2	4517	473120.702911057502	1
2	4523	473598.537290682119	0
2	4535	474871.316925280254	1
2	4537	474871.316925280254	0
2	4565	477246.054784590064	1
2	4570	477506.184717173497	0
2	4576	477928.020147367399	1
2	4579	477963.022418920653	2
2	4585	478411.284381193243	1
2	4588	478503.879791938022	2
2	4593	479291.57736518762	1
2	4602	480092.436970352977	0
2	4605	480394.489007673037	1
2	4608	480889.612382297326	2
2	4613	481107.434526175647	1
2	4622	481899.04888876049	0
2	4625	482769.077393373148	1
2	4630	482907.126552532418	0
2	4690	486774.062791733036	1
2	4695	486812.442027478302	0
2	4710	488401.672735369776	1
2	4712	488401.672735369776	0
2	4716	488605.672668346317	1
2	4719	488940.025470818126	2
2	4724	489352.502064542398	1
2	4729	490223.130695274827	0
2	4733	490289.770710073389	1
2	4736	490379.994086525517	2
2	4741	491053.851648466186	1
2	4744	491211.240304202188	2
2	4753	492019.03654023596	1
2	4761	492940.493622866282	0
2	4786	494347.780415848308	1
2	4791	494630.824596185005	0
2	4828	498429.36770315412	1
2	4830	498429.36770315412	0
2	4837	499246.873373512245	1
2	4842	499309.145942522153	0
2	4845	499687.708902547267	1
2	4850	500160.052239949642	0
2	4862	501644.568273893327	1
2	4864	501644.568273893327	0
2	4871	502842.473389190708	1
2	4873	502842.473389190708	0
2	4879	503224.457751347441	1
2	4887	503764.81402988382	0
2	4930	508303.739725125065	1
2	4932	508303.739725125065	0
2	4938	509103.419360971356	1
2	4944	509291.279217282931	0
2	4947	509427.506235101433	1
2	4952	510153.660323112454	0
2	4956	510884.891171743645	1
2	4961	511049.176770205035	0
2	4969	512010.345978513098	1
2	4974	512118.17231759824	0
2	5003	514673.766019080179	1
2	5006	514693.141393899335	2
2	5011	514697.004116685759	1
2	5019	515720.442701481204	0
2	5022	515799.685061469085	1
2	5028	516577.030504761866	0
2	5062	520252.950556072022	1
2	5065	520399.597572997088	2
2	5070	520471.300330283701	1
2	5079	521326.607145267802	0
2	5082	521946.084664779361	1
2	5087	522160.589450262965	0
2	5100	525350.776016871965	1
2	5102	525350.776016871965	0
2	5133	527758.057009787601	1
2	5135	527758.057009787601	0
2	5142	528909.922755301622	1
2	5144	528909.922755301622	0
2	5160	532394.551542587819	1
2	5162	532394.551542587819	0
2	5168	532764.990313974273	1
2	5171	532839.903340829782	2
2	5176	533074.275707223682	1
2	5185	534245.235381705709	0
2	5188	534675.274743229149	1
2	5194	535133.499716850517	0
2	5197	535286.262699629986	1
2	5202	536055.08719354041	0
2	5206	536662.695120537068	1
2	5214	536986.822022896231	0
2	5252	539763.358911109737	1
2	5254	539763.358911109737	0
2	5261	540327.976077674312	1
2	5269	540771.993919107867	0
2	5272	540957.279227574092	1
2	5277	541492.664011613508	0
2	5303	543634.116938955629	1
2	5305	543634.116938955629	0
2	5328	545655.631901354102	1
2	5331	545681.540425204227	2
2	5336	545899.547777579698	1
2	5342	546947.349370148712	0
2	5345	547145.338159306954	1
2	5350	547782.669024905487	0
2	5375	550137.157204104319	1
2	5380	550187.434031169976	0
2	5401	552589.484884855973	1
2	5406	552667.594996747871	0
2	5409	552998.520666645836	1
2	5415	553707.769680482173	0
2	5418	553728.264563717342	1
2	5423	554557.185751780784	0
2	5455	558414.364441740672	1
2	5457	558414.364441740672	0
2	5473	560784.163436147934	1
2	5475	560784.163436147934	0
2	5478	560800.595561503637	1
2	5483	561661.638829287601	0
2	5507	565655.564792855879	1
2	5509	565655.564792855879	0
2	5521	566747.254741905757	1
2	5526	566977.324695686615	0
2	5533	568758.324767093081	1
2	5535	568758.324767093081	0
2	5539	569665.118151288206	1
2	5544	569703.988028606388	0
2	5568	572999.155353454312	1
2	5570	572999.155353454312	0
2	5593	574909.284263190013	1
2	5595	574909.284263190013	0
2	5602	576209.739418030294	1
2	5604	576209.739418030294	0
2	5607	576791.911962797262	1
2	5610	577103.35754990551	2
2	5613	577254.600677074321	3
2	5618	577255.990949324446	2
2	5625	578078.856070534061	3
2	5630	578165.524204457854	2
2	5633	579005.714808906799	3
2	5638	579092.724301877616	2
2	5644	579901.806014018111	1
2	5655	580843.508407974167	0
2	5720	586682.837236921271	1
2	5722	586682.837236921271	0
2	5730	590060.570978171625	1
2	5732	590060.570978171625	0
2	5738	591304.840169516429	1
2	5740	591304.840169516429	0
2	5752	592368.388077857571	1
2	5757	592510.730707795617	0
2	5773	595467.445515540247	1
2	5775	595467.445515540247	0
2	5799	598379.184946460168	1
2	5801	598379.184946460168	0
2	5804	598655.847692856013	1
2	5809	599278.411482206674	0
2	5812	599713.212541034053	1
2	5819	600285.489100247152	2
2	5824	600293.952355162584	1
2	5829	601304.704320448513	0
2	5850	603491.200793999529	1
2	5852	603491.200793999529	0
2	5883	606789.056073622415	1
2	5885	606789.056073622415	0
2	5901	608879.746755221378	1
2	5903	608879.746755221378	0
2	5919	612089.823638009112	1
2	5921	612089.823638009112	0
2	5924	612251.092665194031	1
2	5927	612771.795840538006	2
2	5932	612811.416164239533	1
2	5935	612836.224124543752	2
2	5943	613629.039972815101	1
2	5947	613981.694310357383	2
2	5952	614603.219126318827	1
2	5958	615483.982312294039	0
2	5961	615744.792494053949	1
2	5966	616483.600200352022	0
2	5986	617872.040723107317	1
2	5991	617977.374619572554	0
2	6016	619640.202876392551	1
2	6021	619673.628589238893	0
2	6041	621651.898847745489	1
2	6046	621761.809247173147	0
2	6053	622591.330632682779	1
2	6058	622615.093938962091	0
2	6078	625120.748761254841	1
2	6080	625120.748761254841	0
2	6084	625849.897252980809	1
2	6092	626024.63764727542	0
2	6112	628754.803773683876	1
2	6114	628754.803773683876	0
2	6139	632731.379743341089	1
2	6141	632731.379743341089	0
2	6147	633651.182599633331	1
2	6149	633651.182599633331	0
2	6185	643575.067373287325	1
2	6187	643575.067373287325	0
2	6190	643917.875026213892	1
2	6195	644451.677329988337	0
2	6199	644926.779561130298	1
2	6202	645194.850560404156	2
2	6207	645301.856602854306	1
2	6210	645492.996639553968	2
2	6215	646048.46083260914	1
2	6221	646947.313672231743	0
2	6227	647869.399587860465	1
2	6229	647869.399587860465	0
2	6269	651204.133558076828	1
2	6271	651204.133558076828	0
2	6294	652981.017695542697	1
2	6296	652981.017695542697	0
2	6303	654423.964486982327	1
2	6305	654423.964486982327	0
2	6309	655017.985047078726	1
2	6314	655250.890088743439	0
2	6317	656088.356294931893	1
2	6322	656103.27026477188	0
2	6342	658217.034956109435	1
2	6348	658303.679691203904	0
2	6389	663446.825930023065	1
2	6391	663446.825930023065	0
2	6398	665491.365239750166	1
2	6400	665491.365239750166	0
2	6406	666497.317074972671	1
2	6408	666497.317074972671	0
2	6420	667743.269405920285	1
2	6425	667813.65984321677	0
2	6428	667853.305234124084	1
2	6434	668758.019348743514	0
2	6457	671408.028675781551	1
2	6459	671408.028675781551	0
2	6474	672910.313230749967	1
2	6476	672910.313230749967	0
2	6491	674830.896519036847	1
2	6493	674830.896519036847	0
2	6526	679902.390514680573	1
2	6528	679902.390514680573	0
2	6531	680075.271355026197	1
2	6537	680751.851933544082	0
2	6544	682591.699264552153	1
2	6546	682591.699264552153	0
2	6561	685019.339157272299	1
2	6563	685019.339157272299	0
2	6566	685365.402329551792	1
2	6575	685881.121153038029	0
2	6595	688391.661263459628	1
2	6597	688391.661263459628	0
2	6601	689353.676128549626	1
2	6606	689362.629528550192	0
2	6629	691171.196454596974	1
2	6631	691171.196454596974	0
2	6634	692128.407536460262	1
2	6642	692148.629096927308	0
2	6663	695062.481297288388	1
2	6665	695062.481297288388	0
2	6680	696491.234938793409	1
2	6682	696491.234938793409	0
2	6688	696640.724803864885	1
2	6693	697374.280806804009	0
2	6706	699633.124510845164	1
2	6708	699633.124510845164	0
2	6719	700568.7763525875	1
2	6724	700734.340324033106	0
2	6731	701682.646693293062	1
2	6736	701734.936187147461	0
2	6748	702971.986873073044	1
2	6753	702972.45152572096	0
2	6773	704732.173128778818	1
2	6775	704732.173128778818	0
2	6795	706875.260920748037	1
2	6800	706906.936870920856	0
2	6824	710431.006088602342	1
2	6826	710431.006088602342	0
2	6841	712465.398554689943	1
2	6843	712465.398554689943	0
2	6846	712729.57186105915	1
2	6852	713405.352761566101	0
2	6855	713943.372263460697	1
2	6860	714126.071786648573	0
2	6863	714336.006513535523	1
2	6869	714984.791555462166	0
2	6906	718584.595116210548	1
2	6911	718776.839942138276	0
2	6914	719569.468255498448	1
2	6922	719836.902772346842	0
2	6934	721118.820767511967	1
2	6936	721118.820767511967	0
2	6943	723064.368030830123	1
2	6945	723064.368030830123	0
2	6949	723582.966290417911	1
2	6957	724053.34590794154	0
2	6963	724823.386408349118	1
2	6968	724943.212487091399	0
2	6994	726965.29645087655	1
2	6996	726965.29645087655	0
2	7019	729481.862782071796	1
2	7021	729481.862782071796	0
2	7033	730529.216871303004	1
2	7038	730648.789598845168	0
2	7041	730870.076942462741	1
2	7046	731722.765050640807	0
2	7050	732089.858022794512	1
2	7058	732705.784932256455	0
2	7078	734339.048486507282	1
2	7080	734339.048486507282	0
2	7122	742054.708589479408	1
2	7124	742054.708589479408	0
2	7131	742961.481674793019	1
2	7133	742961.481674793019	0
2	7136	743793.28178798629	1
2	7141	743848.773262220593	0
2	7144	743979.659790312197	1
2	7150	744753.109303696395	0
2	7153	745465.16617371816	1
2	7159	745737.771366704334	0
2	7170	747032.429958899541	1
2	7178	747158.907247391209	0
2	7181	747371.708835901949	1
2	7187	748122.60812622195	0
2	7241	754235.241958756907	1
2	7243	754235.241958756907	0
2	7261	760280.180010300921	1
2	7263	760280.180010300921	0
2	7270	762108.334686382751	1
2	7272	762108.334686382751	0
2	7289	766370.15533303809	1
2	7291	766370.15533303809	0
2	7294	766447.213279101326	1
2	7297	766646.663685902272	2
2	7300	766669.433741293677	3
2	7308	767308.478585599161	2
2	7311	767339.761645959003	3
2	7317	768286.514679843463	2
2	7320	768410.310892457852	3
2	7325	769017.617376153948	2
2	7331	769956.767198773919	1
2	7339	770792.826082331678	0
2	7369	772778.638991671218	1
2	7374	772842.485648191434	0
2	7386	773811.293541593771	1
2	7394	774025.180909485428	0
2	7414	775487.403946524371	1
2	7416	775487.403946524371	0
2	7419	775972.216340784301	1
2	7424	776365.542484743841	0
2	7428	776609.181733775032	1
2	7433	777260.232466304971	0
2	7456	779287.351308326326	1
2	7458	779287.351308326326	0
2	7465	780526.123725870688	1
2	7467	780526.123725870688	0
2	7507	783733.989772537729	1
2	7509	783733.989772537729	0
2	7525	788318.933924730047	1
2	7527	788318.933924730047	0
2	7542	789710.879914645388	1
2	7544	789710.879914645388	0
2	7551	791249.71992949015	1
2	7553	791249.71992949015	0
2	7556	791389.469671070916	1
2	7562	792054.827936710681	0
2	7585	795355.941689555345	1
2	7587	795355.941689555345	0
2	7594	795758.956883533153	1
2	7602	796283.62558625196	0
2	7637	801373.708528099991	1
2	7639	801373.708528099991	0
2	7642	801964.531710287968	1
2	7648	802361.056445753244	0
2	7651	802649.059166216729	1
2	7656	803327.660417865345	0
2	7659	803385.164504155516	1
2	7665	804214.474570710691	0
2	7668	804448.871923562625	1
2	7673	805008.320544976398	0
2	7685	805854.943297082691	1
2	7690	806081.264406236799	0
2	7718	808316.703740860846	1
2	7723	808639.648023667025	0
2	7727	809343.067031778666	1
2	7732	809657.582069764133	0
2	7738	810028.640706397563	1
2	7746	810664.764787336513	0
2	7768	812494.532065680387	1
2	7774	812699.045133443678	0
2	7780	813501.17148046838	1
2	7782	813501.17148046838	0
2	7785	813920.798485808052	1
2	7791	814486.375604960871	0
2	7810	815887.315921780446	1
2	7816	816014.549545521398	0
2	7827	817305.802203330154	1
2	7832	817339.645378687322	0
2	7835	817604.483849471824	1
2	7839	817794.455774778509	2
2	7844	818062.578789989619	1
2	7847	818369.924934559086	2
2	7853	818662.77157036758	3
2	7858	818850.471054738613	2
2	7865	819766.219868729126	3
2	7870	819841.193161894025	2
2	7875	820686.875469975663	1
2	7884	821592.144986305532	0
2	7939	824850.828399956032	1
2	7941	824850.828399956032	0
2	7964	826790.094034606778	1
2	7966	826790.094034606778	0
2	7972	827931.338281891573	1
2	7974	827931.338281891573	0
2	7981	829324.673801757507	1
2	7983	829324.673801757507	0
2	7989	829484.228963097997	1
2	7993	829793.774542157507	2
2	7996	829988.312507839411	3
2	8001	830214.025064861692	2
2	8009	831129.011853323228	1
2	8013	831951.860424771388	2
2	8018	831973.154567883285	1
2	8021	832179.053590121398	2
2	8029	832967.452528942962	1
2	8038	833797.265337336575	0
2	8073	836040.375220299204	1
2	8078	836058.233850483325	0
2	8115	839549.05711310208	1
2	8117	839549.05711310208	0
2	8120	839601.804367653479	1
2	8126	840313.866950008966	0
2	8141	842273.709588901116	1
2	8143	842273.709588901116	0
2	8146	842435.757927576202	1
2	8151	843243.167251056471	0
2	8158	843655.656363657131	1
2	8163	844048.274175750537	0
2	8166	844609.073428546265	1
2	8171	844949.080458525048	0
2	8197	847318.06000519276	1
2	8202	847463.884028071208	0
2	8208	847751.813193054417	1
2	8211	848022.786353650007	2
2	8216	848414.796305190248	1
2	8223	849090.093360193912	2
2	8231	849241.187920842787	1
2	8234	849704.851287751803	2
2	8239	850012.490504787843	1
2	8245	850869.6756525867	0
2	8292	854205.381872839956	1
2	8294	854205.381872839956	0
2	8317	856345.879406988534	1
2	8319	856345.879406988534	0
2	8322	856876.042176834188	1
2	8328	857247.282764702797	0
2	8331	857483.494413900807	1
2	8336	858142.711998162009	0
2	8360	860889.330369178924	1
2	8362	860889.330369178924	0
2	8365	861274.146769652338	1
2	8373	861740.543732362424	0
2	8393	863768.680299492166	1
2	8395	863768.680299492166	0
2	8399	864633.754939608337	1
2	8404	864701.243049505138	0
2	8442	869840.011395029519	1
2	8447	870019.167175926994	0
2	8456	874527.618922601469	1
2	8458	874527.618922601469	0
2	8464	875280.634397451577	1
2	8469	875370.820861773962	0
2	8481	876936.084266076878	1
2	8483	876936.084266076878	0
2	8486	877613.837126413108	1
2	8489	877685.603626457102	2
2	8495	877918.540343105312	1
2	8500	878789.274049552282	0
2	8503	878798.391192476169	1
2	8512	879622.177888481853	0
2	8540	882076.80654554462	1
2	8542	882076.80654554462	0
2	8557	883136.441701882388	1
2	8559	883136.441701882388	0
2	8565	883258.193983858388	1
2	8568	883410.792542459216	2
2	8571	883793.463075151468	3
2	8579	883943.955214325331	2
2	8582	884253.983800134964	3
2	8588	884800.29364140461	2
2	8591	885408.630440951243	3
2	8596	885846.760855814299	2
2	8599	885988.583292076187	3
2	8603	886513.266381169488	4
2	8608	886770.006824905049	3
2	8619	887855.33714618535	2
2	8625	888712.210403748418	1
2	8631	889571.366897536974	2
2	8640	889762.999475145048	1
2	8645	890668.813495448936	0
2	8729	895360.26348612911	1
2	8732	895387.73141219113	2
2	8737	895514.711648598946	1
2	8740	895914.379375761351	2
2	8746	896577.813252814832	1
2	8749	897197.851910555276	2
2	8752	897280.933676988583	3
2	8757	897436.258066622039	2
2	8763	898296.498084911167	1
2	8768	899267.430124979723	0
2	8783	900760.941739336876	1
2	8785	900760.941739336876	0
2	8825	904829.62638431011	1
2	8827	904829.62638431011	0
2	8843	908117.177985530309	1
2	8845	908117.177985530309	0
2	8860	910260.999613349765	1
2	8862	910260.999613349765	0
2	8870	913239.611003422114	1
2	8872	913239.611003422114	0
2	8887	914580.271047826262	1
2	8889	914580.271047826262	0
2	8905	917878.289992590365	1
2	8907	917878.289992590365	0
2	8913	918808.993541983993	1
2	8919	918881.010679085376	0
2	8925	919640.690759495158	1
2	8930	919740.92106528967	0
2	8933	919942.16392498928	1
2	8936	920179.472247341473	2
2	8942	920664.14555279083	1
2	8945	921060.102475054882	2
2	8950	921517.307648092458	1
2	8956	922366.326409454109	0
2	8992	924438.286226062757	1
2	8997	924504.096925628461	0
2	9000	924912.468569837603	1
2	9005	925421.060573507945	0
2	9008	925465.302986953891	1
2	9012	925885.652716614896	2
2	9018	926108.063561812815	3
2	9023	926181.796374314207	2
2	9031	927003.53300829084	1
2	9037	927884.16247507618	0
2	9106	933639.572006427211	1
2	9108	933639.572006427211	0
2	9115	935286.713628297932	1
2	9117	935286.713628297932	0
2	9120	935447.354428386465	1
2	9123	935944.648814489759	2
2	9127	936052.216502124174	3
2	9132	936129.101119780436	2
2	9135	936389.35337658796	3
2	9140	937074.796308841502	2
2	9146	937942.875996181465	1
2	9149	937995.938523163893	2
2	9157	938842.337318064909	1
2	9161	939750.387364718777	2
2	9166	939826.609477676725	1
2	9172	940407.607266520236	2
2	9177	940561.374204596244	1
2	9186	941285.458968929747	0
2	9189	941400.222869543947	1
2	9197	942171.246861169031	0
2	9200	942220.347182208571	1
2	9206	942369.014940593317	2
2	9212	942946.448676751882	1
2	9220	943886.025649027701	0
2	9240	945245.821114416635	1
2	9245	945422.017129973945	0
2	9316	949935.650893507661	1
2	9318	949935.650893507661	0
2	9324	950594.04538946243	1
2	9327	950754.163233371755	2
2	9332	950839.344480393711	1
2	9338	951709.166004358972	0
2	9350	953517.432384735793	1
2	9352	953517.432384735793	0
2	9355	953532.943233722131	1
2	9358	953782.271714664923	2
2	9363	954341.460622355689	1
2	9366	954479.926234849679	2
2	9375	955090.585478646883	1
2	9383	956022.570183135017	0
2	9439	960773.325362387259	1
2	9444	961009.18395988523	0
2	9451	962511.775142998829	1
2	9453	962511.775142998829	0
2	9460	964327.316651884132	1
2	9462	964327.316651884132	0
2	9465	964516.406130972375	1
2	9474	965183.861801734615	0
2	9494	967415.94961478434	1
2	9496	967415.94961478434	0
2	9529	972521.931317297808	1
2	9531	972521.931317297808	0
2	9538	973895.553281767794	1
2	9540	973895.553281767794	0
2	9543	974147.5010495188	1
2	9548	974681.998696595564	0
2	9552	975447.089734095205	1
2	9555	975489.175347512309	2
2	9560	975512.477083892227	1
2	9563	975775.618410839405	2
2	9568	976382.044335670053	1
2	9574	977235.298629897618	0
2	9580	977844.442914177885	1
2	9586	978137.227725177228	2
2	9591	978249.623491905027	1
2	9594	978316.157701059039	2
2	9603	979119.970621348858	1
2	9606	979853.698767361788	2
2	9609	979932.69170395701	3
2	9614	980106.131113053735	2
2	9624	980677.926335832925	3
2	9629	980890.672018138291	2
2	9632	981065.423273252175	3
2	9640	981809.576194499997	2
2	9649	982791.10941292885	1
2	9652	983227.159697779542	2
2	9660	983677.837370707401	1
2	9669	984734.478536646144	0
2	9689	986011.676901648648	1
2	9694	986306.884839962316	0
2	9758	989626.757195809303	1
2	9763	989903.66330123308	0
2	9766	990678.938553402861	1
2	9774	990813.362361943045	0
2	9797	993032.022112481338	1
2	9799	993032.022112481338	0
2	9823	996677.967028637666	1
2	9825	996677.967028637666	0
2	9841	1000239.601305605247	1
2	9843	1000239.601305605247	0
2	9846	1000348.525464747121	1
2	9849	1000350.408773888279	2
2	9852	1000990.279731979884	3
2	9860	1001054.926203373012	2
2	9866	1001822.952913742811	1
2	9869	1002264.051213379898	2
2	9874	1002794.47457695022	1
2	9880	1003798.508528343679	0
2	9934	1008975.7422700872	1
2	9936	1008975.7422700872	0
2	9943	1010262.514341135041	1
2	9945	1010262.514341135041	0
2	9948	1010870.071613465087	1
2	9953	1011222.332176784592	0
2	9960	1012251.953244635361	1
2	9962	1012251.953244635361	0
2	9965	1012263.386213398494	1
2	9974	1013150.677707597916	0
2	9990	1014559.146927591962	1
2	9995	1014757.121807765619	0
2	10002	1015815.673319133168	1
2	10004	1015815.673319133168	0
2	10019	1016874.554829395549	1
2	10024	1017123.251651835097	0
2	10030	1017807.499051263731	1
2	10035	1018030.545780274427	0
2	10039	1018720.92311811047	1
2	10044	1019054.910463605755	0
2	10050	1019563.149344911073	1
2	10053	1019848.678463746403	2
2	10059	1020128.3100102233	1
2	10065	1020909.726121285654	2
2	10070	1021067.390757842094	1
2	10073	1021349.667249952751	2
2	10077	1021735.782741897394	3
2	10085	1022035.494265203895	2
2	10088	1022556.193452516716	3
2	10096	1023046.992667040922	2
2	10108	1023891.184381543481	1
2	10111	1024253.765091497931	2
2	10114	1024620.560939379095	3
2	10119	1024699.955785268888	2
2	10123	1025431.296957411259	3
2	10128	1025601.183225390998	2
2	10134	1026121.879673573118	3
2	10142	1026581.022885646993	2
2	10146	1026925.525813937458	3
2	10151	1027454.03204687795	2
2	10157	1027984.558560971724	3
2	10162	1028375.651134504562	2
2	10169	1028891.448781713321	3
2	10174	1029165.060373926341	2
2	10182	1030049.363532712507	1
2	10191	1031050.185911652304	0
2	10197	1031543.977727819351	1
2	10202	1031960.36102748134	0
2	10227	1033636.414583930491	1
2	10236	1033976.623403420092	0
2	10244	1034978.493778101611	1
2	10252	1035212.736429918455	0
2	10259	1035868.935670815663	1
2	10264	1036132.097512292716	0
2	10270	1036743.066553695959	1
2	10276	1037157.24970913429	0
2	10308	1039293.571822372431	1
2	10313	1039509.528421853313	0
2	10319	1040336.747411525564	1
2	10324	1040502.429158167471	0
2	10331	1041169.037039239163	1
2	10336	1041353.369282221459	0
2	10339	1041532.659492394608	1
2	10347	1042236.89944624665	0
2	10390	1044791.723864183697	1
2	10398	1045090.637620323646	0
2	10402	1045809.851493874432	1
2	10410	1045904.175852598267	0
2	10421	1047019.391809413725	1
2	10426	1047157.029285479897	0
2	10429	1047346.299976064995	1
2	10435	1048150.963466100022	0
2	10467	1050111.242493630996	1
2	10472	1050366.075571309136	0
2	10516	1053128.673540931326	1
2	10519	1053150.370983591338	2
2	10524	1053243.3520976167	1
2	10530	1054337.893546018928	0
2	10557	1056302.102110583747	1
2	10562	1056385.931967828379	0
2	10570	1057587.847050100496	1
2	10575	1057645.923805657245	0
2	10604	1061045.562846698725	1
2	10606	1061045.562846698725	0
2	10630	1063036.576035283225	1
2	10632	1063036.576035283225	0
2	10648	1066400.35375367435	1
2	10650	1066400.35375367435	0
2	10653	1066522.141959377196	1
2	10656	1066949.717163138484	2
2	10661	1067437.935664265259	1
2	10670	1068316.421076739604	0
2	10673	1068747.46576938361	1
2	10676	1068857.719708260152	2
2	10681	1069028.109734587803	1
2	10684	1069615.481310773535	2
2	10690	1069938.115636180897	1
2	10698	1070801.219324136224	0
2	10701	1071133.585210130202	1
2	10710	1071544.909429639291	0
2	10713	1071646.317614796919	1
2	10718	1072210.503031571793	0
2	10721	1072440.473278679267	1
2	10730	1073139.163086676288	0
2	10765	1075343.318451667925	1
2	10770	1075429.381082512759	0
2	10801	1076997.065199307104	1
2	10806	1077235.02837926493	0
2	10842	1085071.851041015312	1
2	10844	1085071.851041015312	0
2	10852	1087266.406394520239	1
2	10854	1087266.406394520239	0
2	10870	1090541.632511482867	1
2	10872	1090541.632511482867	0
2	10875	1090882.991130111904	1
2	10881	1091174.327360682603	2
2	10886	1091492.86007909886	1
2	10889	1091827.156526650988	2
2	10893	1092143.510373173935	3
2	10898	1092468.167122904412	2
2	10901	1092814.302775212855	3
2	10904	1093429.008738497844	4
2	10909	1093544.873104002606	3
2	10918	1094399.18637607247	2
2	10923	1095373.659765542761	1
2	10932	1096309.749794677445	0
2	10946	1097536.92842961561	1
2	10954	1097761.732691330087	0
2	10960	1098414.707057647819	1
2	10968	1098703.552287045778	0
2	10972	1099293.998169931676	1
2	10980	1099554.625059761048	0
2	11029	1103269.208239115303	1
2	11031	1103269.208239115303	0
2	11037	1103519.291217543213	1
2	11043	1104041.050355742639	0
2	11046	1104134.783887166948	1
2	11054	1105045.651303445412	0
2	11057	1105627.449622927366	1
2	11063	1105969.991202924431	0
2	11116	1114922.722383055804	1
2	11118	1114922.722383055804	0
2	11125	1116463.200550277225	1
2	11127	1116463.200550277225	0
2	11130	1116553.194630633254	1
2	11135	1117337.132204610494	0
2	11139	1117880.735842415411	1
2	11142	1118127.892956468188	2
2	11145	1118272.299076499216	3
2	11150	1118381.310301333566	2
2	11153	1118789.847971835793	3
2	11158	1119149.09234243362	2
2	11167	1120030.578664864327	1
2	11172	1120790.01418294108	0
2	11175	1121097.810110678283	1
2	11184	1121639.825384080886	0
3	1941	208034.608068813672	1087.5578757118
3	1986	212213.544709989354	1647.9193934867
3	1991	212480.094074489865	588.69380156841
3	2000	213233.376724138097	0
3	2023	215254.768942740598	912.8872204266
3	2037	216702.279834154578	2002.3688624769
3	2042	216986.911555694308	1794.1534297023
3	2068	220121.44379515114	1196.0735463906
3	2093	222225.395476854159	2078.6766314759
3	2101	222581.477963439441	0
3	2118	223853.964121993349	0
3	2127	224833.634582682036	0
3	2135	225812.100526283348	0
3	2152	227077.60359339415	0
3	2170	230875.335634661535	0
3	2204	234613.136934164874	1608.0296435881
3	2213	235976.175498493925	0
3	2233	238181.095059167457	663.71197457921
3	2247	239483.913967560672	1681.2685713306
3	2257	241870.848108816652	0
3	2265	243029.887437190406	0
3	2284	248251.455009927711	0
3	2319	252750.057718293549	0
3	2336	254210.220200245828	451.57849645289
3	2352	255365.823258403211	86.02557920055
3	2386	258507.02343396101	274.52557045866
3	2394	258805.003162172417	0
3	2403	260251.036862962547	0
3	2412	261296.323747267507	0
3	2429	262444.923267870264	486.5898047981
3	2455	265894.445180213925	0
3	2464	268460.868437414407	0
3	2473	269147.530705956956	0
3	2502	278228.722152387497	0
3	2510	278526.725241930258	116.11575350329
3	2571	287236.689276173651	1518.472966463
3	2625	291407.257734426729	3363.8928294121
3	2631	291702.707610507656	3406.8865506118
3	2639	291992.622902322137	3128.5041346897
3	2644	292301.635654468681	2502.4766810203
3	2649	292605.312587458027	1466.1119651237
3	2654	292926.119894371924	1046.0147652139
3	2674	294048.957410312459	775.8572029439
3	2679	294368.539397938383	1043.8558723847
3	2687	294690.235128664684	91.804736988927
3	2705	297646.284547334248	0
[...]
7	5446	557897.606588881922	1
7	5461	559394.812580545611	2
7	5463	559525.699926674218	1
7	5481	561661.638829287601	2
7	5487	562599.428612585544	3
7	5489	563239.121433095886	2
7	5498	564953.596983473932	1
7	5512	566209.254643808602	0
7	5516	566634.780606506801	1
7	5530	568141.156028542776	2
7	5542	569703.988028606388	3
7	5546	570209.686161551648	2
7	5550	570624.162008042628	3
7	5558	571748.530918795661	2
7	5572	573528.801954003496	1
7	5576	573979.81993784819	2
7	5583	574232.940924710751	1
7	5598	575824.867754228561	2
7	5616	577255.990949324446	3
7	5621	577885.890074002503	2
7	5628	578165.524204457854	3
7	5636	579092.724301877616	4
7	5642	579901.806014018111	5
7	5646	580157.672900183081	4
7	5649	580810.365691111158	3
7	5653	580843.508407974167	4
7	5659	581662.982074778878	5
7	5663	581668.373243869639	4
7	5671	582274.378218926349	3
7	5693	583325.969510404619	2
7	5701	584544.482136160758	1
7	5707	584588.712432012522	0
7	5725	587517.5545635417	1
7	5735	590984.593888126506	2
7	5742	591379.321837840486	1
7	5747	592221.521449230772	2
7	5761	593485.621453753419	3
7	5763	594559.798443186035	2
7	5778	596177.932014859592	3
7	5780	596234.561907238702	2
7	5789	597374.972951956781	1
7	5807	599278.411482206674	2
7	5814	599713.397725971581	1
7	5822	600293.952355162584	2
7	5827	601304.704320448513	3
7	5833	602311.255733477096	4
7	5840	602917.56542657248	3
7	5855	604369.604930073647	4
7	5857	604491.954361530645	3
7	5865	605002.865422253991	2
7	5874	605727.02593113826	1
7	5889	607735.097544906302	2
7	5891	608313.012467691351	1
7	5906	609776.784187078512	2
7	5909	611642.299540257564	1
7	5930	612811.416164239533	2
7	5937	613617.226740962217	1
7	5941	613629.039972815101	2
7	5950	614603.219126318827	3
7	5956	615483.982312294039	4
7	5964	616483.600200352022	5
7	5968	616679.122215627352	4
7	5973	617381.793946515214	5
7	5977	617499.841039759131	4
7	5993	618192.044815491688	3
7	5997	618706.09876735515	4
7	6007	619290.108104956177	3
7	6024	620589.443795828571	2
7	6028	620768.823206735933	3
7	6035	621506.071200200478	2
7	6049	622455.449638273156	1
7	6056	622615.093938962091	2
7	6061	623536.51980774027	3
7	6069	624632.151265709222	2
7	6086	626020.495074408912	1
7	6090	626024.63764727542	2
7	6094	626348.57892291629	1
7	6098	626722.356680438984	2
7	6117	629539.427777203887	1
7	6121	629571.56673511449	2
7	6128	630499.132237301967	1
7	6144	633529.952488994372	2
7	6151	633976.168838856509	1
7	6156	634592.173325504578	2
7	6164	637302.189879522171	1
7	6173	638040.777623138843	0
7	6193	644451.677329988337	1
7	6205	645301.856602854306	2
7	6213	646048.46083260914	3
7	6219	646947.313672231743	4
7	6224	647801.961972731499	5
7	6232	648011.16346634623	4
7	6236	648743.409093247201	5
7	6240	648964.787851838806	4
7	6248	649283.304723527941	3
7	6260	650031.342447901456	2
7	6274	652051.727184772827	1
7	6278	652131.000841212049	2
7	6285	652667.763796806904	1
7	6300	653931.500537115845	2
7	6312	655250.890088743439	3
7	6320	656103.27026477188	4
7	6324	656203.49814063068	3
7	6329	656960.840796844053	4
7	6336	657998.939501656989	3
7	6350	658972.858528008651	2
7	6354	659169.450292702199	3
7	6358	659386.313291615961	2
7	6370	660208.758072386674	1
7	6379	663034.690453540734	0
7	6394	664313.888269829475	1
7	6403	666316.764212799584	2
7	6412	667233.379943136214	3
7	6414	667500.863945196734	2
7	6432	668758.019348743514	3
7	6437	669580.594681112373	4
7	6439	670265.603246259519	3
7	6448	670645.152795506014	2
7	6462	672279.289977889354	1
7	6466	672328.994822911912	2
7	6478	673195.114525057138	1
7	6483	673813.139183318634	2
7	6497	675831.112489741091	3
7	6499	676063.612786090089	2
7	6507	676856.489277202056	1
7	6517	679594.118491770392	0
7	6535	680751.851933544082	1
7	6540	681768.549985329683	2
7	6549	683536.944541564497	3
7	6551	683731.314163210137	2
7	6568	685418.482084404576	1
7	6573	685881.121153038029	2
7	6577	686505.835642260854	1
7	6581	686648.681617814031	2
7	6604	689362.629528550192	3
7	6608	689510.65611939928	2
7	6611	690161.160280235473	1
7	6615	690335.838978545728	2
7	6636	692136.002976903088	1
7	6640	692148.629096927308	2
7	6646	693097.295009596606	3
7	6653	693649.140744334888	2
7	6667	695505.732406156842	1
7	6671	695864.994193269777	2
7	6684	696556.629288921985	1
7	6691	697374.280806804009	2
7	6697	698366.345133417204	3
7	6710	699838.156039787171	2
7	6714	700467.156513900046	3
7	6727	701524.616780158394	2
7	6734	701734.936187147461	3
7	6738	702130.687779903584	2
7	6742	702679.498717200663	3
7	6755	703583.30671147266	2
7	6759	703983.764767870909	3
7	6778	705467.566313689934	4
7	6780	705532.816203254414	3
7	6789	706625.145775808464	2
7	6803	707739.522949427806	3
7	6805	707878.248378229576	2
7	6814	708914.786473662195	1
7	6828	711086.563024550308	0
7	6832	711396.333878431187	1
7	6850	713405.352761566101	2
7	6858	714126.071786648573	3
7	6867	714984.791555462166	4
7	6871	715093.49735315044	3
7	6875	715834.710220889785	4
7	6883	717103.438840519645	3
7	6888	717381.405290828925	2
7	6900	718471.06480337369	1
7	6916	719593.276383082232	0
7	6920	719836.902772346842	1
7	6926	720743.411453611149	2
7	6940	721925.250011356926	3
7	6951	723589.365897656895	2
7	6955	724053.34590794154	3
7	6959	724498.608215964974	2
7	6966	724943.212487091399	3
7	6971	725768.97557464046	2
7	6975	725829.776133810732	3
7	6998	727175.348838200105	2
7	7002	728039.527719173584	3
7	7010	728641.925460723948	2
7	7023	729734.95814133442	1
7	7028	730376.757209217723	2
7	7044	731722.765050640807	3
7	7052	732212.828328649646	2
7	7056	732705.784932256455	3
7	7061	733537.023580672578	4
7	7065	733593.612203036963	3
7	7083	735382.433808831589	4
7	7085	735392.571834830937	3
7	7094	736602.960432119995	2
7	7103	737191.215071682055	1
7	7112	739207.654031179738	0
7	7128	742802.61086527301	1
7	7139	743848.773262220593	2
7	7148	744753.109303696395	3
7	7157	745737.771366704334	4
7	7162	746538.619453489264	5
7	7164	746918.703202746174	4
7	7172	747046.485618221172	3
7	7185	748122.60812622195	4
7	7189	748509.138089922034	3
7	7193	749103.130233041957	4
7	7203	749463.036122645195	3
7	7214	750153.088050555481	2
7	7223	751605.510253426704	1
7	7232	753249.720983278909	0
7	7247	755128.016075410743	1
7	7251	758653.543175088031	0
7	7267	761253.116415199963	1
7	7276	763006.572426271325	2
7	7279	764635.177382246319	1
7	7302	766884.203140153354	0
7	7306	767308.478585599161	1
7	7315	768286.514679843463	2
7	7323	769017.617376153948	3
7	7329	769956.767198773919	4
7	7333	770583.330942706411	3
7	7337	770792.826082331678	4
7	7342	771693.819269998808	3
7	7346	771706.90272669862	4
7	7360	772558.198527786877	3
7	7377	773135.819449326601	2
7	7381	773735.769689797903	3
7	7388	773986.183259884368	2
7	7398	774927.101501076891	3
7	7402	775148.723081261484	2
7	7422	776365.542484743841	3
7	7431	777260.232466304971	4
7	7435	777743.402066135974	3
7	7438	778151.947922627627	2
7	7442	778226.829114988891	3
7	7462	780103.880272033183	4
7	7469	780736.406801595356	3
7	7472	781044.87646219825	2
7	7476	781338.650830472073	3
7	7489	782639.2462016084	2
7	7497	783126.124120846024	1
7	7511	784477.473747798477	0
7	7515	784632.580600428473	1
7	7529	788375.754324306075	0
7	7534	789242.070817383877	1
7	7548	790869.308321640416	2
7	7560	792054.827936710681	3
7	7565	793023.377492092395	4
7	7567	793416.81776274313	3
7	7576	794279.153810264189	2
7	7590	795714.557891716709	1
7	7596	796210.475472578049	0
7	7600	796283.62558625196	1
7	7606	797234.763041314182	2
7	7619	800169.930968485226	1
7	7628	801000.989777943021	0
7	7646	802361.056445753244	1
7	7654	803327.660417865345	2
7	7663	804214.474570710691	3
7	7671	805008.320544976398	4
7	7676	805717.622536539665	3
7	7680	805786.434711061943	4
7	7693	806945.686480767805	5
7	7695	806993.714551047726	4
7	7700	807250.328574431331	3
7	7712	808284.362757291779	2
7	7730	809657.582069764133	3
7	7734	809695.196251816214	2
7	7740	810586.201996167101	1
7	7744	810664.764787336513	2
7	7750	811620.390983410525	3
7	7762	812404.670999845281	2
7	7777	813466.677183548154	3
7	7789	814486.375604960871	4
7	7793	814710.849223172652	3
7	7796	815087.03160757972	2
7	7800	815436.352789440859	3
7	7819	816933.019927297888	4
7	7821	817004.600506355342	3
7	7842	818062.578789989619	4
7	7849	818610.610351925799	3
7	7856	818850.471054738613	4
7	7860	819160.421778815523	3
7	7868	819841.193161894025	4
7	7873	820686.875469975663	5
7	7878	821350.914640242856	4
7	7882	821592.144986305532	5
7	7886	821799.02108891617	4
7	7889	822486.801759396724	3
7	7893	822576.428678419402	4
7	7913	823721.222132789761	3
7	7916	823770.288733047247	2
7	7943	825274.041889886564	1
7	7947	825948.033976263348	2
7	7951	826187.395696364354	1
7	7969	827579.525811591052	2
7	7978	828893.913582626125	3
7	7985	829408.814072702851	2
7	7999	830214.025064861692	3
7	8003	830961.074547623435	2
7	8007	831129.011853323228	3
7	8016	831973.154567883285	4
7	8023	832256.167229759176	3
7	8027	832967.452528942962	4
7	8032	833759.84013437346	3
7	8036	833797.265337336575	4
7	8041	834646.097469797269	5
7	8051	835171.03119466224	4
7	8069	835802.385274443364	3
7	8081	836607.467816538123	2
7	8085	836891.985615768001	3
7	8094	837304.791413666206	2
7	8105	838028.488117659651	1
7	8124	840313.866950008966	2
7	8128	840770.416642186948	1
7	8132	841226.896223142376	2
7	8149	843243.167251056471	3
7	8154	843608.201562226997	2
7	8161	844048.274175750537	3
7	8169	844949.080458525048	4
7	8174	845276.302144639872	3
7	8178	845834.556982607246	4
7	8191	847145.475111444824	3
7	8204	847653.550350743069	2
7	8214	848414.796305190248	3
7	8218	848480.989593071984	2
7	8225	849188.52756596966	1
7	8229	849241.187920842787	2
7	8237	850012.490504787843	3
7	8243	850869.6756525867	4
7	8248	851772.471838430509	5
7	8263	852429.043699485874	4
7	8271	852762.822975439494	3
7	8274	852918.879569259597	2
7	8296	854680.189898714551	1
7	8299	854846.79494349808	0
7	8303	855147.183957491524	1
7	8326	857247.282764702797	2
7	8334	858142.711998162009	3
7	8338	858734.055802937114	2
7	8343	858879.919048473853	3
7	8350	860500.520422993862	2
7	8367	861618.821078488725	1
7	8371	861740.543732362424	2
7	8377	862557.014997316554	3
7	8384	862993.823594279129	2
7	8402	864701.243049505138	3
7	8406	865436.734046224017	2
7	8410	865609.555636647024	3
7	8418	866498.482881884262	2
7	8427	868477.260981864838	1
7	8436	869679.975474884342	0
7	8451	871043.013958587829	1
7	8460	874551.685473029762	0
7	8467	875370.820861773962	1
7	8473	876332.119281880746	2
7	8493	877918.540343105312	3
7	8498	878789.274049552282	4
7	8505	878919.558329192814	3
7	8510	879622.177888481853	4
7	8514	880073.205436381642	3
7	8518	880579.934453072957	4
7	8531	881365.097200016219	3
7	8544	882605.377124662949	2
7	8548	882800.621905457104	3
7	8561	883187.00973956213	2
7	8573	883919.976962393738	1
7	8577	883943.955214325331	2
7	8586	884800.29364140461	3
7	8594	885846.760855814299	4
7	8606	886770.006824905049	5
7	8610	886875.83605845689	4
7	8613	887542.474482124252	3
7	8617	887855.33714618535	4
7	8623	888712.210403748418	5
7	8627	888848.375457036315	4
7	8633	889664.784698871958	3
7	8638	889762.999475145048	4
7	8643	890668.813495448936	5
7	8647	890766.793883600465	4
7	8651	891458.518832505509	3
7	8655	891459.344491019791	4
7	8674	892410.949980745377	3
7	8688	893169.260787092656	2
7	8714	894503.07032565746	1
7	8723	895201.379174949649	0
7	8744	896577.813252814832	1
7	8755	897436.258066622039	2
7	8761	898296.498084911167	3
7	8766	899267.430124979723	4
7	8770	899700.38683291358	3
7	8775	900114.979905683092	4
7	8787	901149.483992959822	3
7	8792	901953.27344863169	4
7	8796	902085.102987723164	3
7	8807	903395.063349922125	2
7	8813	903589.490182850033	1
7	8829	905094.06609025329	0
7	8834	905772.504552712327	1
7	8849	909100.68575725904	2
7	8851	909287.744862577417	1
7	8866	911252.341376460534	2
7	8874	913264.592387693896	1
7	8879	914119.260632393959	2
7	8891	914734.86268346317	1
7	8896	915516.513654076715	2
7	8909	917922.761047439631	1
7	8917	918881.010679085376	2
7	8921	919525.493481368174	1
7	8928	919740.92106528967	2
7	8940	920664.14555279083	3
7	8948	921517.307648092458	4
7	8954	922366.326409454109	5
7	8958	922833.665000909664	4
7	8961	923198.013987010898	3
7	8965	923329.563622951068	4
7	8974	923635.791640087827	3
7	8983	924015.449227400852	2
7	9003	925421.060573507945	3
7	9014	925994.150508883911	2
7	9021	926181.796374314207	3
7	9025	926997.844306699869	2
7	9029	927003.53300829084	3
7	9035	927884.16247507618	4
7	9040	928856.145239897636	5
7	9044	928902.946752923291	4
7	9053	929411.450287037912	3
7	9076	930283.593419315794	2
7	9088	931185.156897858247	1
7	9097	932583.23880233734	0
7	9112	934750.402497928804	1
7	9130	936129.101119780436	2
7	9138	937074.796308841502	3
7	9144	937942.875996181465	4
7	9151	938255.722507497769	3
7	9155	938842.337318064909	4
7	9164	939826.609477676725	5
7	9168	940133.424694850691	4
7	9175	940561.374204596244	5
7	9179	940711.544763012128	4
7	9184	941285.458968929747	5
7	9191	941487.27534956391	4
7	9195	942171.246861169031	5
7	9202	942309.565914718223	4
7	9210	942946.448676751882	5
7	9214	943073.992256608236	4
7	9218	943886.025649027701	5
7	9222	944167.629895628945	4
7	9227	944834.550211670241	5
7	9231	945021.106238189817	4
7	9247	945895.428817010556	3
7	9250	946004.681098628463	2
7	9254	946217.784365951687	3
7	9279	947648.411380561242	2
7	9298	948572.914575410575	1
7	9320	950258.94374866443	0
7	9330	950839.344480393711	1
7	9336	951709.166004358972	2
7	9341	952662.598988528826	3
7	9361	954341.460622355689	4
7	9368	954607.639429766224	3
7	9373	955090.585478646883	4
7	9377	955565.519182228413	3
7	9381	956022.570183135017	4
7	9385	956502.064006969735	3
7	9390	956767.919854138603	4
7	9407	957895.269380412348	3
7	9416	959004.111286921632	2
7	9424	959315.050697967041	1
7	9433	960712.663021111368	0
7	9448	961857.399793436683	1
7	9456	963331.992710509863	2
7	9467	964968.52117317051	1
7	9472	965183.861801734615	2
7	9477	966065.028463560711	3
7	9484	966718.816012177394	2
7	9499	968279.982312986473	3
7	9502	969569.255680971841	2
7	9507	969572.425629010437	1
7	9519	971777.833549046749	0
7	9534	973383.268534443289	1
7	9546	974681.998696595564	2
7	9558	975512.477083892227	3
7	9566	976382.044335670053	4
7	9572	977235.298629897618	5
7	9576	977286.39063305252	4
7	9582	977869.892174540728	3
7	9589	978249.623491905027	4
7	9596	978795.39217344681	3
7	9601	979119.970621348858	4
7	9612	980106.131113053735	5
7	9616	980257.588113443471	4
7	9619	980341.874978711455	3
7	9627	980890.672018138291	4
7	9634	981758.132074039105	3
7	9638	981809.576194499997	4
7	9642	982235.902426098575	3
7	9647	982791.10941292885	4
7	9654	983554.000232566191	3
7	9658	983677.837370707401	4
7	9662	983952.790444076369	3
7	9667	984734.478536646144	4
7	9671	985504.648125723677	3
7	9675	985598.757550914759	4
7	9680	985797.368568334701	3
7	9697	987089.618001629144	4
7	9701	987112.187035012429	3
7	9704	987296.972698202649	2
7	9744	989286.730515649466	1
7	9768	990786.808024213383	0
7	9772	990813.362361943045	1
7	9778	991683.568389244727	2
7	9802	993884.385850834326	3
7	9805	994537.278549733071	2
7	9813	994960.99380822398	1
7	9827	997482.07458921679	0
7	9831	997492.40076304873	1
7	9854	1001018.377811684399	0
7	9858	1001054.926203373012	1
7	9864	1001822.952913742811	2
7	9872	1002794.47457695022	3
7	9878	1003798.508528343679	4
7	9882	1004392.923272127581	3
7	9887	1004795.945579419747	4
7	9899	1005439.91710862064	3
7	9908	1006275.170486472608	2
7	9916	1007363.13194803593	1
7	9925	1008510.526389063948	0
7	9940	1009869.979057806822	1
7	9951	1011222.332176784592	2
7	9957	1012024.436368297187	3
7	9967	1012980.733024880813	2
7	9972	1013150.677707597916	3
7	9977	1013959.215903210852	4
7	9984	1014471.441799381815	3
7	9999	1015694.845712371155	4
7	10006	1015822.101824981175	3
7	10009	1016130.514442382628	2
7	10014	1016844.291635257077	3
7	10026	1017166.201618658976	2
7	10033	1018030.545780274427	3
7	10042	1019054.910463605755	4
7	10046	1019256.563345613844	3
7	10057	1020128.3100102233	4
7	10061	1020478.796581157703	3
7	10068	1021067.390757842094	4
7	10079	1022010.678197772054	3
7	10083	1022035.494265203895	4
7	10090	1022686.9712407587	3
7	10094	1023046.992667040922	4
7	10098	1023173.669035528469	3
7	10102	1023700.185271527749	2
7	10106	1023891.184381543481	3
7	10117	1024699.955785268888	4
7	10126	1025601.183225390998	5
7	10130	1025754.483107499542	4
7	10136	1026233.839586253981	3
7	10140	1026581.022885646993	4
7	10149	1027454.03204687795	5
7	10153	1027753.785448675952	4
7	10160	1028375.651134504562	5
7	10164	1028493.756920066107	4
7	10172	1029165.060373926341	5
7	10176	1029367.915172014517	4
7	10180	1030049.363532712507	5
7	10185	1030556.19702052332	4
7	10189	1031050.185911652304	5
7	10193	1031366.954409023605	4
7	10200	1031960.36102748134	5
7	10205	1032347.418611445271	4
7	10208	1032558.008456988155	3
7	10212	1033009.024163128759	4
7	10230	1033814.319321361045	3
7	10239	1034894.82266292322	4
7	10246	1035036.192809992451	3
7	10255	1035481.242841662667	2
7	10262	1036132.097512292716	3
7	10266	1036611.501531082761	2
7	10274	1037157.24970913429	3
7	10279	1037927.470077728017	4
7	10288	1038362.731503101799	3
7	10315	1039645.180212699753	2
7	10322	1040502.429158167471	3
7	10327	1040923.889659831539	2
7	10334	1041353.369282221459	3
7	10341	1041745.678547534956	2
7	10345	1042236.89944624665	3
7	10351	1042942.769726401594	4
7	10371	1044120.737639322872	3
7	10392	1044887.799450104799	2
7	10404	1045860.35715954397	1
7	10408	1045904.175852598267	2
7	10412	1046735.787267913745	1
7	10416	1046813.794586692269	2
7	10433	1048150.963466100022	3
7	10438	1048833.805540228529	4
7	10448	1049199.807186136326	3
7	10474	1050500.979527976302	2
7	10479	1051379.120385092798	3
7	10493	1052151.93794147744	2
7	10507	1052650.904745422095	1
7	10528	1054337.893546018928	2
7	10532	1054884.317756720378	1
7	10536	1055181.914283786344	2
7	10565	1057262.226347269006	3
7	10578	1057968.040892499463	2
7	10582	1058570.490589468381	3
7	10591	1058958.963963853776	2
7	10609	1061322.893690284048	1
7	10613	1062112.665459456346	2
7	10617	1062180.934885217163	1
7	10635	1063916.839689115991	2
7	10638	1065579.895345816223	1
7	10659	1067437.935664265259	2
7	10663	1067516.848887945227	1
7	10668	1068316.421076739604	2
7	10679	1069028.109734587803	3
7	10688	1069938.115636180897	4
7	10692	1070246.821213452267	3
7	10696	1070801.219324136224	4
7	10703	1071375.047177575486	3
7	10708	1071544.909429639291	4
7	10716	1072210.503031571793	5
7	10723	1072448.535171044216	4
7	10728	1073139.163086676288	5
7	10732	1073170.3528215524	4
7	10736	1074000.591885865371	5
7	10740	1074205.151203400202	4
7	10772	1075610.353875581382	3
7	10775	1075998.957437074139	2
7	10779	1076378.888109119635	3
7	10789	1076711.679059900213	2
7	10792	1076728.874496160161	1
7	10809	1078232.297240901222	2
7	10823	1080166.615772256376	1
7	10832	1082129.022938113277	0
7	10848	1085920.102370216672	1
7	10857	1088218.850120156017	2
7	10860	1089763.190910218057	1
7	10877	1090973.116063407914	0
7	10884	1091492.86007909886	1
7	10896	1092468.167122904412	2
7	10907	1093544.873104002606	3
7	10912	1094042.674924953149	2
7	10916	1094399.18637607247	3
7	10921	1095373.659765542761	4
7	10926	1096299.447227122906	3
7	10930	1096309.749794677445	4
7	10936	1097127.027370239822	5
7	10948	1097628.610511244189	4
7	10956	1097911.787041698878	3
7	10962	1098660.163856084504	2
7	10966	1098703.552287045778	3
7	10974	1099345.795930417045	2
7	10978	1099554.625059761048	3
7	10983	1100424.479043985631	4
7	10993	1100823.018478740408	3
7	11011	1101747.762787033771	2
7	11033	1103349.96717081877	1
7	11041	1104041.050355742639	2
7	11048	1104247.815089651255	1
7	11052	1105045.651303445412	2
7	11061	1105969.991202924431	3
7	11066	1106757.816821332413	4
7	11075	1107380.444289960405	3
7	11087	1108074.064851225296	2
7	11096	1109761.994154427803	1
7	11104	1110264.419551063865	0
7	11121	1115900.536723619266	1
7	11133	1117337.132204610494	2
7	11148	1118381.310301333566	3
7	11156	1119149.09234243362	4
7	11161	1119992.04613139331	3
7	11165	1120030.578664864327	4
7	11170	1120790.01418294108	5
7	11178	1121550.02712478982	4
7	11182	1121639.825384080886	5
7	11186	1121924.712291450435	4
7	11190	1122558.313686253477	5
7	11200	1122906.863454316043	4
7	11203	1123083.951496621479	3
