file 182620 1483892889                                          
version 2
run ParkingMeasurement-94-20170108-17:28:09-4447
attr configname ParkingMeasurement
attr datetime 20170108-17:28:09
attr experiment ParkingMeasurement
attr inifile parkingStudy.ini
attr iterationvars ""
attr iterationvars2 $repetition=94
attr measurement ""
attr network controltower.SimNetwork
attr processid 4447
attr repetition 94
attr replication #94
attr resultdir results
attr runnumber 94
attr seedset 94
param SimNetwork.a.parkingLot.parkingDelay "truncnormal(60min, 6min)"
param SimNetwork.a.runway.landingTime "truncnormal(15min, 1.5min)"
param SimNetwork.a.runway.takeoffTime "truncnormal(5min, 0.5min)"
param SimNetwork.a.runway.throughputCheckInterval 28.571min
param SimNetwork.wg.interArrivalTime exponential(28.571min)

vector 5  SimNetwork.a.runway  landedThroughput:vector  ETV
attr source  landedThroughputSignal
vector 6  SimNetwork.a.runway  tookoffThroughput:vector  ETV
attr source  tookoffThroughputSignal
vector 7  SimNetwork.a.parkingLot  parkingOccupancy:vector  ETV
attr source  parkingOccupancy
vector 2  SimNetwork.a.landingQueue  queueLength:vector  ETV
attr source  queueLengthSignal
vector 1  SimNetwork.a.landingQueue  queueTime:vector  ETV
attr source  queueTimeSignal
vector 4  SimNetwork.a.takeoffQueue  queueLength:vector  ETV
attr source  queueLengthSignal
vector 3  SimNetwork.a.takeoffQueue  queueTime:vector  ETV
attr source  queueTimeSignal
vector 0  SimNetwork.wg  responseTime:vector  ETV
attr source  responseTimeSignal
0	1476 23205 2163 11256 207879.646289498699 1113960.174269625146 539 4805.8442976284 24026.088341557 4705568.5102735 44336737569.981
1	24681 21247 2114 11334 202525.459323258238 1122728.350470167415 546 0 2932.0303586475 255201.25201861 307642613.87599
2	45928 31877 2112 11334 202525.459323258238 1122728.350470167415 1093 0 4 803 1199
3	77805 20971 2160 11253 207570.319509396529 1113687.447136537725 539 0 9627.3404506974 940637.26342868 4145376060.756
4	98776 31561 2140 11309 205408.049770734914 1120697.649294379766 1081 0 10 1871 7461
5	130337 10258 2106 11336 200568.42 1122840.3 539 0 3 546 864
6	140595 10258 2106 11336 200568.42 1122840.3 539 0 6 540 1392
7	150853 31767 2108 11332 201302.306123998471 1122728.350470167415 1088 0 6 2750 8584
