version 2
run ParkingMeasurement-19-20170108-17:28:00-4249
attr configname ParkingMeasurement
attr datetime 20170108-17:28:00
attr experiment ParkingMeasurement
attr inifile parkingStudy.ini
attr iterationvars ""
attr iterationvars2 $repetition=19
attr measurement ""
attr network controltower.SimNetwork
attr processid 4249
attr repetition 19
attr replication #19
attr resultdir results
attr runnumber 19
attr seedset 19
param SimNetwork.a.parkingLot.parkingDelay "truncnormal(60min, 6min)"
param SimNetwork.a.runway.landingTime "truncnormal(15min, 1.5min)"
param SimNetwork.a.runway.takeoffTime "truncnormal(5min, 0.5min)"
param SimNetwork.a.runway.throughputCheckInterval 28.571min
param SimNetwork.wg.interArrivalTime exponential(28.571min)

vector 2  SimNetwork.a.landingQueue  queueLength:vector  ETV
attr source  queueLengthSignal
vector 5  SimNetwork.a.runway  landedThroughput:vector  ETV
attr source  landedThroughputSignal
vector 6  SimNetwork.a.runway  tookoffThroughput:vector  ETV
attr source  tookoffThroughputSignal
vector 7  SimNetwork.a.parkingLot  parkingOccupancy:vector  ETV
attr source  parkingOccupancy
vector 1  SimNetwork.a.landingQueue  queueTime:vector  ETV
attr source  queueTimeSignal
vector 4  SimNetwork.a.takeoffQueue  queueLength:vector  ETV
attr source  queueLengthSignal
vector 3  SimNetwork.a.takeoffQueue  queueTime:vector  ETV
attr source  queueTimeSignal
vector 0  SimNetwork.wg  responseTime:vector  ETV
attr source  responseTimeSignal
0	2012	202222.876060677581	8041.3505707329
0	2041	205212.152598353964	9305.916173693
0	2046	205436.383444361576	6729.7138051094
0	2063	206733.587226446073	6543.2058972286
0	2075	208490.905588218416	5076.5039119363
0	2080	208740.075045358943	8251.3093046507
0	2098	210984.057377463369	7004.5031470576
0	2241	223419.861843479677	17718.981344045
0	2249	223754.621300423998	14023.054255874
0	2254	224001.161288998363	12944.934418177
0	2259	224326.171459460847	12815.617064402
0	2268	224639.273671773467	11540.650661572
0	2273	224942.539122524608	10929.400649582
0	2281	225194.557926322914	11036.35148296
0	2286	225496.151970949873	9540.6942743992
0	2291	225790.9792483269	9468.4935548831
0	2296	226048.123727087152	8960.5554208198
0	2305	226325.68782076391	8405.3045033053
0	2313	226621.434056892453	7711.6588404209
0	2324	226946.555683554062	7295.073495304
0	2383	232594.176015195192	11878.13644364
0	2388	232860.941205682699	10956.013829593
0	2393	233126.547509125729	6418.294728648
0	2399	233459.209380417575	6595.1618619892
0	2407	234325.697718111278	6634.5490376013
0	2416	234921.146332804558	6858.3711475476
0	2427	236495.156371394124	8390.1609634411
0	2467	241497.232102666589	10785.316206794
0	2476	241858.061362500347	5371.5293795417
0	2501	244661.908009427254	8082.9560430657
0	2509	244984.94953998722	5572.8555699105
0	2589	251730.174860642703	11739.009674627
0	2595	252057.728195658118	9613.4659626622
0	2603	252384.322436390674	9287.0712921504
0	2608	252685.048663659903	7654.0366493825
0	2613	252986.110886292769	7584.7495787221
0	2621	253308.712306540131	7425.0401159771
0	2632	253614.790318360892	7472.0374289769
0	2643	254880.665152709456	8083.6016412856
0	2652	255627.083457419918	8330.1740704437
0	2686	259377.337382314941	11389.784003942
0	2726	263110.104368029067	9639.7497885662
0	2731	263448.239405141027	7343.2377486253
0	2736	263750.145730297165	6696.4711399731
0	2745	264678.265822977638	7238.346018399
0	2753	265360.357777097464	5456.0171262713
0	2762	266246.335922034047	6171.1410262094
0	2882	276742.865244633141	16098.499729858
0	2922	279753.301694562329	12896.015568838
0	2927	280011.275414162008	13041.631883833
0	2935	280305.626599278942	12125.8747012
0	2955	281475.210407956975	12576.463239076
0	2980	283513.414287952959	13953.455677496
0	2985	283842.2861279814	13587.171985155
0	2990	284155.319429562877	12905.549603433
0	2995	284483.462570512266	13173.43203567
0	3004	284710.904482499138	12993.124424048
0	3009	284990.647194909187	11932.364582277
0	3014	285217.707220204759	9790.0845922896
0	3022	285500.078387737113	8962.05562265
0	3030	285792.585630455917	8574.3528214309
0	3044	286964.655959701267	9447.969726684
0	3049	287254.527683445034	7107.0949311471
0	3054	287620.062643023968	6367.4899111449
0	3081	291716.097960620335	9742.0251858682
0	3110	295211.632895931333	5747.8172624212
0	3115	295535.531471242012	9900.9012641786
0	3132	297934.086224340815	8463.6044550147
0	3141	299097.549805139097	5686.4862011841
0	3150	300282.986806710054	6570.7623363976
0	3195	304965.573707450357	9097.6761684704
0	3212	306320.228898754801	5851.5487636476
0	3217	306631.553879821628	5883.8805233367
0	3226	307671.795764089243	5864.2187818471
0	3298	314986.102420631925	13173.173284203
0	3312	316238.181851323625	11609.70818263
0	3317	316483.662904928895	7408.5890960229
0	3322	316838.903255306812	6829.77821777
0	3330	317104.275583054215	6228.6578892595
0	3339	317367.320078620368	6411.5419372712
0	3352	318647.317384612081	6192.6121889905
0	3361	319806.752116022211	6513.2028449635
0	3473	329310.631679917424	14339.047687258
0	3478	329556.681177364959	12364.814731027
0	3483	329906.352883139131	9378.9063146817
0	3494	330168.920097516021	9447.3026937747
0	3499	330442.278684363408	9646.0590100024
0	3504	330765.767562918105	9850.5427380243
0	3510	331083.240018496938	10134.235676528
0	3518	331377.66183485003	9505.0037435947
0	3523	331626.182325699881	8962.4951886891
0	3528	331907.396174095338	8950.6559422655
0	3537	333093.891215726916	5887.5226008724
0	3573	340046.550612832989	12408.274669966
0	3601	342629.448362971117	7083.5284787903
0	3607	342928.601115693967	6840.3919800291
0	3632	345532.472963781618	8738.6272533199
0	3657	347764.499504654963	7273.2854584057
0	3666	348241.916565489323	7271.6027327589
0	3674	349026.131160226494	5803.0756895685
0	3683	350482.204867015327	6620.7254178927
0	3700	352317.381792533954	6594.4852988581
0	3718	356488.723926860772	10114.979764443
0	3737	360132.442243216116	9083.5616210414
0	3780	365788.153398583579	10434.049913991
0	3788	366678.267221214368	7862.8203284373
0	3797	367311.150368664014	5769.1779261073
0	3805	368207.653807017806	5988.3301696335
0	3817	369241.399767299996	6772.3836817146
0	3852	374287.00673540116	10221.285174293
0	3866	375467.064941387891	6341.2280455596
0	3882	376847.907472031256	7439.2899141823
0	3891	378786.597725295619	8160.3571226859
0	3909	380885.501469300817	6885.9169468695
0	3927	384338.280204974966	8696.0689863367
0	3981	389770.664040716423	10757.146915142
0	3989	390066.527359375568	7396.952857831
0	4017	392136.709550484785	7239.5428697484
0	4040	393390.157012765021	8376.2922483521
0	4102	398951.37562870308	12346.609498084
0	4110	399230.861244689944	12134.784401979
0	4116	399479.671721840953	11063.362613522
0	4121	399754.90273993645	9756.9730799012
0	4129	400067.818071319695	9374.9649023904
0	4134	400404.856601261865	8508.4354679758
0	4142	400713.956198737781	7356.5974953836
0	4147	400984.958329981504	7613.4559031745
0	4153	401227.059152361176	7493.3036577387
0	4172	402654.026752624151	6982.5507693305
0	4181	402931.409789669687	6371.562218457
0	4254	409391.10373914683	12728.570599181
0	4259	409678.895101084868	8196.6936490837
0	4265	409974.427440407522	7294.2506596874
0	4270	410247.035133698694	6410.0591866703
0	4281	410647.181544852033	5866.9176279965
0	4298	411757.340451537366	6974.2835742428
0	4306	412059.754940036703	6477.8036474687
0	4320	413730.474704020596	6325.1737462377
0	4337	416044.701796486501	7940.3693670617
0	4346	416959.278879829049	6623.582703169
0	4371	419792.758413887208	7848.2282755133
0	4389	422120.488509164771	7235.6434501871
0	4409	423441.169014351324	6395.3647020378
0	4423	426003.337026290241	8554.3853364376
0	4434	426611.739423364289	5879.3319858327
0	4448	428302.803469476599	6094.9643369976
0	4515	436148.000848924955	12928.223207299
0	4520	436395.305992757337	9892.132824728
0	4525	436702.472572251127	6558.8108136376
0	4533	437095.278524211619	5669.8961062366
0	4545	438276.867712767547	5795.8289296484
0	4562	439382.356064718547	6422.5941202607
0	4567	439625.025815663521	5877.825970333
0	4609	443636.746418369636	9506.9356682084
0	4618	444550.642221865104	6382.5568718642
0	4626	445399.091906421458	5610.7410112954
0	4638	446635.054217663835	6094.7095728557
0	4652	447777.410542430429	7073.7928522097
0	4681	451206.780777016705	8778.1750452103
0	4711	454121.594114804294	7735.2333409702
0	4731	455975.508493634635	7130.1328998433
0	4737	456234.670690883397	6210.761720027
0	4745	456541.355110490935	5368.1221419043
0	4754	457855.877417645896	6607.2048041884
0	4771	460115.710376402638	8786.5222637075
0	4789	463626.867706185824	8931.5974222086
0	4823	466899.758489648035	8294.3934282144
0	4851	468691.896863050822	7033.1618250768
0	4865	469878.358968396984	6063.8056248675
0	4881	471153.59195180912	7056.1613370189
0	4893	471805.513729344496	6460.6082173173
0	4918	473940.177311408092	7024.0012896366
0	4926	474269.435896621673	6940.9146647182
0	4931	474600.632710686954	6031.805900261
0	4940	476533.892313460113	6493.9436594397
0	4949	477806.499842074754	6147.314079056
0	5051	489299.126950369021	17373.126248936
0	5056	489627.653705407739	9432.4382096482
0	5061	489967.06290745559	7145.646007973
0	5069	490223.956657308973	8827.9805666494
0	5075	490569.118063169172	7271.5698217274
0	5080	490860.3215086278	6900.13889223
0	5085	491185.977867331977	7665.0062607329
0	5094	492154.509542751567	6721.5188194141
0	5102	492867.676173624234	6936.7370343956
0	5176	500464.584649118973	12946.782272861
0	5185	500765.799965217426	7713.3817573418
0	5190	501032.168530320399	6638.6545129045
0	5195	501341.584868392724	6774.5590772052
0	5207	502366.592894164486	7765.4765530739
0	5240	505206.183516367629	9652.7882138268
0	5245	505505.40152447009	10649.890364421
0	5266	507580.118036549998	8687.209796905
0	5271	507874.957388887516	5802.5078151726
0	5282	508504.149357004536	5740.6803542866
0	5321	512095.383751237128	9002.7722291549
0	5341	513754.984640335654	7465.8626214633
0	5355	515132.851082498186	6713.3947369303
0	5363	515662.393818836389	5826.3401318955
0	5375	516073.04152434818	7031.2461313742
0	5400	518183.300041887243	7719.936286295
0	5405	518475.833750507553	5893.7454707481
0	5431	521256.298189599035	7547.3695797798
0	5439	522002.199166850266	6090.1451117636
0	5448	524045.544082619743	7383.5620284516
0	5457	524967.468153571495	5896.5093657066
0	5501	532673.546838114623	13127.154608648
0	5513	534259.245230212433	5913.7958172323
0	5535	536285.567873491924	6796.6943471705
0	5544	536741.590589522884	7036.6957535442
0	5556	539153.224855558748	5022.1296845647
0	5561	539483.30111780552	8764.309956902
0	5604	544791.645922801679	10056.638798083
0	5616	545337.233004790711	5664.8740719799
0	5649	548321.206828919233	8559.4216089704
0	5655	548663.991905226257	6203.9434332009
0	5683	550872.243657272275	7897.0279788685
0	5691	551136.990606837195	6024.5645457137
0	5736	555111.516098445177	9599.0456217366
0	5742	555434.32040772346	9849.0888963716
0	5747	555740.728889548895	6898.0815626323
0	5755	556233.669841079926	6578.4531787371
0	5795	559543.792756201239	8452.2388091429
0	5803	559838.546030962052	8049.9636742273
0	5814	560996.648787284045	9063.3157892505
0	5822	561345.223218047638	9094.5353039691
0	5842	562787.378772079136	6232.0626578637
0	5847	563149.284517008962	6502.9934728935
0	5864	564429.856868960055	6079.4564354384
0	5881	566660.818176311612	6877.8744209638
0	5890	567954.365457539953	6245.2447604439
0	5907	569445.103032174445	6079.9600363222
0	5924	572539.923428440121	7349.9265955585
0	5934	574849.69730657392	6870.8887578172
0	5969	580686.473599354239	10785.20585799
0	5998	584194.130640022208	8272.845271396
0	6003	584446.326374432954	6185.4048450554
0	6013	586527.791015868982	7936.7423644372
0	6039	589794.193023743206	7547.1797742781
0	6048	592651.328702946743	10104.597794682
0	6057	593153.30265229817	5541.2901137848
0	6120	601622.706780876874	13266.524340872
0	6129	601955.279871113605	8260.4081196876
0	6137	602269.356269080511	6443.4717780476
0	6194	607134.330373205514	10281.832679062
0	6202	607432.99265443804	8843.2514981108
0	6207	607760.398641459009	9098.0476903234
0	6218	608073.796883753268	8862.0610706818
0	6341	618396.658441984655	16384.134762986
0	6346	618700.072213016686	16356.755187664
0	6352	618981.572778881256	14984.413602559
0	6357	619324.968307180735	15241.343902904
0	6362	619619.409336617571	15334.105939188
0	6370	619947.081793572079	11982.571034431
0	6378	620225.785476796765	12440.928210719
0	6384	620567.213872439316	12105.401703103
0	6392	620902.574539650208	11561.688101172
0	6397	621154.288242307523	10681.423824622
0	6405	621486.687015529225	10396.863782604
0	6413	621805.329941819172	10172.328541931
0	6424	623097.830921674298	10066.389038618
0	6432	623399.841039590949	9625.9765586406
0	6443	624484.315127613167	9374.2897960087
0	6463	626555.670201833271	11042.45463476
0	6485	628934.146432530677	7441.7371107692
0	6494	629634.523799881898	6486.8357935953
0	6506	631532.530445298565	6638.2584038441
0	6528	633459.625898298919	7160.6604882955
0	6546	636173.984952991837	8708.1142350104
0	6554	636927.971328571365	5467.7373392754
0	6563	638673.926988913203	6518.9074665611
0	6637	645471.141063727228	11939.072039618
0	6648	645772.426446174794	6821.1757612951
0	6685	648586.873138746486	9041.7073428796
0	6699	648901.84484911769	8646.6990243958
0	6750	653709.573346710932	12975.410718736
0	6758	654059.538080753266	12053.399317723
0	6763	654301.042967387114	13422.827359524
0	6768	654609.289479998838	12259.115728513
0	6777	654910.975531699321	9169.6730198867
0	6805	657098.41706608608	11352.868944007
0	6810	657416.641560546595	8630.189394158
0	6815	657715.882253790395	10872.821089929
0	6823	658067.398853218731	9191.1715703834
0	6949	667866.93667857537	18967.881503514
0	6966	668978.158458492687	17936.629581503
0	6994	671313.376239973565	20011.117672294
0	6999	671631.798746665652	17021.33641754
0	7004	671986.156170909438	16699.615166207
0	7010	672222.763359964498	14167.23634498
0	7018	672465.497015222666	13587.175053609
0	7023	672736.502215143542	13770.913692515
0	7028	673026.013045174981	13889.622115847
0	7033	673319.374968260695	13988.143721106
0	7038	673661.343152088329	14158.720946012
0	7044	673963.620585490918	13202.998811648
0	7049	674229.237418342939	12370.741170946
0	7057	674530.899135889551	13463.500761458
0	7065	674780.237522995582	9223.0481501995
0	7070	675097.696972136916	9203.1782915426
0	7079	675450.033880353789	7740.0377789017
0	7092	676529.32199213898	7734.5386345319
0	7155	683673.285921549296	14388.141798965
0	7160	683956.88063856279	8734.9754275709
0	7166	684263.614755659825	7855.7519136826
0	7186	685906.544383587646	8930.7153704893
0	7194	686216.045895998389	6373.994588895
0	7199	686482.794274014425	6029.9678111799
0	7210	687175.262627950156	6482.5454775099
0	7228	689979.988982688802	8727.4181433622
0	7242	691282.466789870164	6563.6429533367
0	7260	695075.036628148469	7968.7334872784
0	7278	698793.497002170879	8923.3410869908
0	7299	702239.347560352641	8713.9925218405
0	7350	707349.322929308159	9681.9113468268
0	7355	707628.883488932499	6751.3761661964
0	7364	708064.48974912235	5895.5967078541
0	7372	709426.739695096319	6045.8206300789
0	7384	710545.419016448422	6465.6354920434
0	7406	712613.162854108613	7133.4826871165
0	7427	716228.000308638557	10680.173388754
0	7432	716522.547069166033	6109.9459222953
0	7442	719860.198270391028	9284.1926583262
0	7486	725717.460241508815	10714.90444572
0	7494	726474.00387720989	5933.8568170195
0	7540	730606.445690136888	10019.250782065
0	7545	730935.416027990566	7422.8008020573
0	7565	732569.782801988209	8563.5100658897
0	7573	732860.021386141032	5899.7738198277
0	7578	733130.362085452203	5548.9682604708
0	7586	733456.725585167982	5744.0415751075
0	7604	736865.651273791246	8007.9197643579
0	7639	741086.758929126249	9780.9092395249
0	7714	748133.364625632588	12662.190864716
0	7765	752126.249381045969	13957.097910816
0	7779	753333.101923913943	14552.287803972
0	7784	753627.878662374881	13835.998758383
0	7792	753954.057235132724	11568.925006714
0	7798	754282.725582201314	11732.766528863
0	7809	754610.215566919503	11251.253151639
0	7842	757461.096222551222	13059.620593271
0	7848	757801.814006436418	13124.902516298
0	7853	758079.629431970431	11913.449839773
0	7858	758353.355292167637	10502.453854999
0	7863	758634.994758104249	10342.330161445
0	7871	758953.458130500621	10082.733407121
0	7876	759277.451792942134	8806.5254632051
0	7882	759571.91827656772	7538.8702853339
0	7893	760688.43940159997	6296.2836061955
0	7907	761880.131418408815	7430.3334187598
0	8019	772788.695752682156	18128.10006785
0	8024	773057.721150736507	12595.74834971
0	8030	773372.296434047157	10272.20153666
0	8038	773674.166132395404	10409.991067632
0	8046	773973.552490139301	8749.1985438042
0	8060	775196.669430441586	9894.5952456611
0	8065	775504.575613246587	9055.3998139468
0	8073	775740.170824676595	8038.6015282381
0	8081	776100.296955895437	7956.1951458503
0	8086	776414.042276867556	6355.9444896731
0	8092	776697.845656331805	8259.2514181667
0	8128	779506.5268536006	8049.3564682506
0	8165	782593.964779418798	8902.9572361146
0	8173	782901.033966031432	6190.8113935796
0	8190	784254.778321953637	7512.1261465961
0	8204	785387.263226931308	7678.4794294095
0	8209	785728.948054251342	6469.4168259806
0	8217	786070.515587484363	6278.9132239196
0	8254	789290.69864842157	9422.9059074548
0	8259	789657.184245967581	6904.3567181455
0	8279	791727.222019200226	7597.1504614833
0	8288	792013.002461095748	5730.761309685
0	8293	792284.458989652487	5807.4429405119
0	8302	794908.454828063016	7442.8473372
0	8388	803866.315626737753	13346.977434413
0	8397	804130.317743384217	8879.8630198382
0	8410	805374.576874811756	8212.51854059
0	8415	805661.921249954092	8341.0138097248
0	8427	805974.675596017142	8486.6270704872
0	8463	808847.80248651205	11083.34977383
0	8538	814796.365100457808	14605.610363869
0	8543	815087.98910967455	13727.15817532
0	8548	815397.658158764562	13175.727602673
0	8553	815690.955882321334	11700.377590636
0	8562	815988.525464909038	10220.546997019
0	8567	816278.504208925253	9636.4139697604
0	8572	816581.896936263075	9570.9421961957
0	8577	816920.451426327413	8266.3982317153
0	8582	817219.08154551307	8258.4688293084
0	8590	817513.054549288132	7803.5073799104
0	8599	817842.990894212263	8032.0408687701
0	8604	818118.172066994044	7288.7453006533
0	8631	823596.107288939058	12642.041051161
0	8640	825002.041605322148	5989.062848368
0	8659	830422.690018491032	11160.686429698
0	8702	835262.907052043753	9407.5083789023
0	8742	838531.183041316943	7658.7131115104
0	8750	838819.210033160162	7087.0475249963
0	8775	841122.197116759604	8506.1559479571
0	8780	841409.566091992121	7821.5409378699
0	8786	841722.128592983002	6135.3554637111
0	8797	842295.953493368677	6089.8986713282
0	8825	844904.165317190039	7919.6124650173
0	8836	846155.952208373956	7459.7070884731
0	8845	846966.873960819159	8039.1408501946
0	8862	849055.782065596673	6895.7485164925
0	8873	849488.417180803973	5845.8904784648
0	8896	852129.118185800868	7482.4119792811
0	9103	869676.446326666569	21738.056152037
0	9108	869952.840420550853	20556.255634012
0	9113	870254.506731773817	16732.341958152
0	9124	870565.88338988774	19899.00107744
0	9130	870898.529936015791	16895.756664803
0	9135	871244.518811904704	16551.313926395
0	9143	871490.267602152328	15800.572191188
0	9148	871813.959160451328	15588.123558681
0	9153	872146.962932295006	14392.088438649
0	9158	872451.82571954087	14474.665074667
0	9164	872771.647568543563	14760.314740884
0	9172	873069.076916024739	13059.399622804
0	9177	873328.995139250187	12957.167997066
0	9182	873608.945214104709	13064.67631891
0	9187	873864.414127895838	12701.830999141
0	9198	874195.352101457472	11570.065856248
0	9223	877155.245385524401	12870.996204731
0	9231	877459.629224655429	13262.315294643
0	9268	880385.440985945795	16064.617120296
0	9273	880683.440048805301	13655.525644086
0	9278	880938.946302717644	13692.559057697
0	9284	881190.482618999777	7301.674995408
0	9289	881501.825961701424	7323.8873624799
0	9297	881921.601715567819	7677.4078781863
0	9306	883045.994952219548	5715.5098657624
0	9317	883782.375758699081	5778.394677785
0	9368	889312.488399439656	11217.989444129
0	9373	889588.299548968278	6051.3638241129
0	9385	890738.537039572163	6319.9079369752
0	9465	897315.841707368055	12676.198088552
0	9479	898405.293375553766	11098.969114787
0	9484	898691.379769749818	8157.0912419229
0	9492	898990.313133872081	11382.666846404
0	9503	899300.502149282099	8171.1666624734
0	9537	902372.210245969237	11037.35797275
0	9542	902650.540015001659	9764.8308466972
0	9550	902965.479854350667	8754.9797408104
0	9575	904958.41980293984	9910.9793227028
0	9581	905249.18702791992	9797.2381761339
0	9586	905498.35873662078	8244.0461888705
0	9594	905808.960240578162	6615.0691239897
0	9599	906104.092471647639	6636.6230914193
0	9608	906902.580321201271	6729.6079514273
0	9617	908598.619554992154	5798.7975623049
0	9660	914622.097494755795	11577.516624278
0	9672	915680.822569796688	6748.9084671956
0	9694	917825.471334462672	6762.5229586698
0	9702	918709.503079298398	6181.4731233058
0	9748	923448.016126175022	9980.6113662025
0	9753	923735.23437949408	8283.1737171037
0	9765	924721.359026638816	7980.9455289723
0	9770	925005.369703760449	5302.4700082813
0	9787	926321.941761222699	6411.0328304147
0	9795	927005.510837337323	5865.5531830459
0	9813	930093.221677284321	8487.3903100684
0	9838	932548.688342941816	7526.0766309733
0	9856	935455.822964592527	7592.9939767506
0	9864	935877.387464700837	5533.2003863792
0	9877	938027.102693249943	7316.9725783079
0	9908	942764.636952094967	9356.9702644807
0	9932	944754.400427150085	6913.8877780842
0	9968	947549.706365510967	8792.3929418644
0	10034	953617.386366733157	13015.806784557
0	10042	953893.493681160253	10960.973979481
0	10047	954215.400635382804	9744.7683695319
0	10052	954505.986438941811	9581.1092708158
0	10057	954782.618950985405	8563.5301372116
0	10063	955093.723112439245	7742.4175792546
0	10071	955410.872332149107	7989.3899043064
0	10076	955655.045386645254	7842.3480762057
0	10105	958605.602760652146	10327.865266065
0	10110	958935.098788756623	8921.2416179146
0	10127	961129.059565120787	10137.372947646
0	10139	961869.393217338118	5377.2008649292
0	10189	966644.308707272713	9517.1603326626
0	10195	966942.063825258549	7147.9120163581
0	10203	967305.798121830419	5540.0769540343
0	10211	968086.184611549639	5210.2997883472
0	10260	972154.397076769715	8436.1452309376
0	10270	973342.140985395153	8993.1150679127
0	10282	974103.708400756309	5415.187473632
0	10287	974432.281036259486	8976.9780229222
0	10335	978314.298960781281	9283.6543672777
0	10340	978595.797370800637	8625.9858550404
0	10352	978935.381429560855	8055.2833899935
0	10365	980222.364210332615	8269.4760839809
0	10370	980505.471300709654	6007.9677438527
0	10390	982041.518716950808	6982.7769624848
0	10396	982345.455468794785	6149.9001404364
0	10424	984967.099707832553	8303.7626773127
0	10429	985309.464673168998	6487.155788207
0	10447	988017.372396096954	7347.9089751208
0	10472	989965.042289641478	6935.7320502679
0	10489	992311.285774544603	8904.0892420423
0	10498	993023.794579030681	6371.2376916633
0	10506	993834.711110147686	5768.6505308987
0	10523	995257.992148969621	6480.2305300423
0	10541	998371.603897071895	7060.5284343522
0	10562	1001538.182094913198	7685.2141542007
0	10579	1004486.295268353175	8222.5221299792
0	10594	1006482.265417610357	6667.8585975954
0	10603	1009016.621445672813	7681.4683496024
0	10668	1014785.118256006598	10471.511089446
0	10674	1015054.229025781729	5670.5468326305
0	10679	1015297.031995185147	6276.0458189662
0	10687	1015807.036726235869	5960.3100310379
0	10741	1020664.773859626723	10636.560975251
0	10746	1020920.550468440552	9610.6057244849
0	10757	1021273.007917319053	9045.8023133708
0	10762	1021548.021193668412	5473.6703289254
0	10786	1023637.948885665764	7358.7568419072
0	10799	1024828.699956420644	7439.3339245841
0	10805	1025139.347443382368	7364.9454955233
0	10817	1027823.498102513801	5476.127538376
0	10822	1028102.520664610504	9124.7051549158
0	10954	1039529.405901221319	15986.095258641
0	10959	1039838.533103821499	11185.346066831
0	10970	1040169.237503739767	11320.924352604
0	10984	1041429.392732961946	11037.208513864
0	10989	1041726.675410809799	10470.060546691
0	10994	1042012.549619454704	9930.8565926419
0	11006	1042311.109545629785	9224.3211727798
0	11019	1043464.141665385652	11377.16742391
0	11024	1043755.067600632176	10125.897313921
0	11030	1044038.97043750152	10208.631218306
0	11035	1044309.894529948467	10017.164853753
0	11043	1044596.433172726135	9621.2090617754
0	11048	1044925.324853582547	8161.413001441
0	11065	1046439.945436539445	6577.3798239505
0	11075	1049420.058933912634	7121.467314612
0	11102	1055058.321539979972	10025.094780696
0	11128	1058518.309133068212	8485.207696717
0	11168	1062091.273560712859	8950.7130882301
0	11317	1073664.401633813293	17924.102511248
0	11322	1073968.676231643815	16822.567764349
0	11327	1074216.980317638559	14317.97108158
0	11332	1074536.390791918571	15328.877368118
0	11340	1074823.998966213672	14468.335208362
0	11346	1075128.310147082256	13335.14928163
0	11351	1075475.683260432534	13174.533309097
0	11359	1075817.838292682085	12802.51156315
0	11364	1076055.321250641761	12352.052412243
0	11369	1076286.550973337298	12576.187385168
0	11381	1076611.313687066864	12000.489880514
0	11386	1076913.704428458696	11209.592104766
0	11391	1077256.447186722224	10304.052257634
0	11396	1077510.71718847352	9581.3208020609
0	11401	1077789.685354417799	9156.4870479715
0	11409	1078129.999668517827	7675.6488744202
0	11423	1079347.653237457644	10604.231287239
0	11458	1084434.278735037186	11947.482303834
0	11463	1084754.828176979142	6958.8043840513
0	11492	1087172.982391446443	8058.0852906328
0	11505	1088351.198738289687	6200.1166220425
0	11520	1090039.51101738876	5114.4099539093
0	11531	1091109.430622362402	8520.9014955345
0	11539	1091854.879358818781	6341.1168170121
0	11550	1095433.123314094571	8452.8926175887
0	11612	1101079.82245450181	11098.910083513
0	11617	1101404.344413412626	5922.8718544402
0	11632	1102641.232872064185	7148.0033334407
0	11717	1109923.945465808665	14358.935428734
0	11725	1110194.336124626392	14328.342257573
0	11730	1110470.835922857996	13421.419188382
0	11735	1110761.262819666578	11833.978273372
0	11744	1111072.327999477365	8680.1069707906
0	11749	1111334.945940032629	8538.4431807269
0	11757	1111661.151907661126	8707.6450306655
0	11762	1111981.392164415737	7994.8129523081
0	11770	1112293.753213557804	6198.9301926178
0	11776	1112628.161813518089	6398.6019639455
0	11792	1114154.515327889411	7892.8469115051
0	11835	1119206.5267500289	12090.203657999
0	11847	1120285.378804676489	7401.1874162167
0	11872	1122194.221537231279	7118.7599682552
0	11880	1122527.750531640622	7437.970980316
0	11885	1122789.596401133771	6207.788463909
1	2001	200995.143190419697	506.37744971147
1	2018	203414.401676282083	0
1	2033	204093.54536013395	113.99112972819
1	2051	205700.880499434492	0
1	2086	209731.567044550019	0
1	2103	211056.226870821464	0
1	2111	211761.516729470363	250.96233441158
1	2120	213098.623010201964	0
1	2128	214073.455275169387	60.316802226915
1	2140	214983.319391958676	825.11294859541
1	2152	215998.950277517752	43.492580967073
1	2163	216761.049242418273	438.56354897448
1	2171	217693.1055694452	605.53726317787
1	2186	218656.515065957025	736.13174849846
1	2195	219562.247009620054	652.47179314847
1	2209	220660.249557479816	1008.7673692297
1	2221	221401.66111460716	685.62154305171
1	2232	222284.130186042323	379.20280995245
1	2326	226946.555683554062	238.30290307637
1	2334	227866.249999260367	1002.202480832
1	2346	228780.752521315945	1089.6038408059
1	2351	229607.824509915262	1545.0493246583
1	2357	230431.567596447798	2326.5721884948
1	2368	231396.742498314114	684.82660244147
1	2429	236495.156371394124	8.62438843549
1	2438	237451.300878636445	872.34891227486
1	2447	239412.09397007668	0
1	2456	240346.763410390504	355.59822437502
1	2481	242444.262232995948	0
1	2490	243452.391125333102	355.13998109285
1	2514	245031.012014277421	0
1	2526	245952.227270623885	550.86596305319
1	2541	246968.010193507757	1084.3380029448
1	2549	247804.147314711456	1661.3944253275
1	2561	248641.666607715366	1844.6030962915
1	2569	249601.240833522851	2304.3314465466
1	2575	250573.335279735361	2585.7819013621
1	2634	253614.790318360892	144.435738898
1	2657	256105.001656515697	0
1	2665	257123.562550877338	69.887960553284
1	2677	258065.943327439192	626.02352286056
1	2691	259904.340650826162	0
1	2703	260756.935799880395	681.74090405579
1	2714	261825.481579314815	1181.11606454
1	2767	266857.286125724143	0
1	2776	267653.556560937233	683.9130306079
1	2784	268555.651238979369	375.89934090013
1	2793	269464.315835489055	565.56866660773
1	2804	270454.895114934344	894.93650447757
1	2819	271343.948761411024	1088.8346185845
1	2830	272220.265491051723	970.49566492157
1	2839	273065.975821070779	1755.9452862282
1	2847	273931.380300652333	2213.6002422007
1	2856	274780.114420910912	1721.8318082789
1	2867	275620.615443593228	192.99281567807
1	2884	276742.865244633141	204.84247954602
1	2901	277631.154318151834	412.92150912684
1	2910	278462.887304082256	946.20107106494
1	2937	280305.626599278942	158.19384698099
1	2957	281475.210407956975	222.63767607787
1	2968	282287.286254397416	313.21347964526
1	3032	285792.585630455917	157.95542339253
1	3060	289463.815633510141	0
1	3072	290421.738507600813	951.25673827468
1	3087	293411.063603955044	0
1	3095	294246.510024681326	534.28555436885
1	3120	295867.897538979936	0
1	3155	300468.680135107198	0
1	3163	301331.204254433979	583.53089794902
1	3175	302165.482717681754	357.90573543956
1	3180	303023.13066854639	1210.2015321173
1	3197	304965.573707450357	337.10003875663
1	3232	309075.073808905953	0
1	3243	310018.475754757571	9.350717220761
1	3252	310910.802736326029	35.185042531295
1	3260	311804.823849004925	849.0457076558
1	3269	312722.381489472219	267.6762938506
1	3280	313609.684372605323	316.13510154665
1	3300	314986.102420631925	14.518427972408
1	3341	317367.320078620368	175.45363228259
1	3366	320527.446568457413	0
1	3384	321442.2745243825	720.65712064113
1	3396	322305.360348644798	1509.1406742838
1	3407	323147.858303301626	2232.6334784079
1	3413	324014.919789720287	3065.9154477514
1	3418	324708.312826934491	2835.6547356792
1	3426	325471.194179975761	2807.507042965
1	3435	326358.840519132609	3402.1002873028
1	3446	327213.654932183102	7.286317328594
1	3458	328097.821441017906	459.54549815082
1	3543	335545.919884180829	0
1	3552	336325.811810156414	237.6026744915
1	3560	337324.146309433521	530.30059897184
1	3578	340491.21404624927	0
1	3590	341506.221311187146	535.90747845668
1	3612	343223.055470657968	0
1	3620	344165.880123549534	304.40067442693
1	3637	345722.896493675812	0
1	3649	346698.615426751168	324.87126433356
1	3688	351048.880622174765	0
1	3707	355354.103484592367	0
1	3725	358815.446892777042	0
1	3742	361541.972442556711	0
1	3754	362521.863271183479	302.53963379919
1	3760	363459.471897483278	990.4558118979
1	3771	364465.257607311943	399.53604620396
1	3819	369241.399767299996	115.56287147168
1	3827	370080.77513624135	672.15757839244
1	3836	371007.066972182886	380.82636957313
1	3854	374287.00673540116	287.42221296981
1	3871	375642.211218638299	0
1	3897	379013.51712557424	0
1	3915	382669.574501544549	0
1	3932	384897.166680736363	0
1	3941	385758.530619444012	744.6658550311
1	3949	386707.385892697023	102.61976207775
1	3961	387610.092828800737	514.01598609028
1	3969	388614.469970305746	198.16086198661
1	3991	390066.527359375568	68.597699340308
1	4003	391037.799413120334	344.94624419104
1	4019	392136.709550484785	240.28841719872
1	4042	393390.157012765021	32.798309410799
1	4050	394240.334532384392	868.8321055774
1	4059	395130.830224527155	1397.0747299047
1	4070	395946.957840189007	275.48185689536
1	4082	396860.480371630353	300.63280041762
1	4090	397680.826996303442	1018.2938563378
1	4158	401482.201452001133	0
1	4183	402931.409789669687	251.23300894953
1	4191	403836.975947028423	0
1	4200	404780.263916855522	0
1	4208	405548.745421196605	765.688543902
1	4220	406570.323095512487	988.37180294447
1	4231	407471.956455270587	66.655497487645
1	4240	408329.468583749032	225.1361543242
1	4283	410647.181544852033	311.48536819201
1	4308	412059.754940036703	115.22480166283
1	4326	414884.845058977709	0
1	4351	417045.804312313498	0
1	4359	417804.58789762181	355.63620776918
1	4377	420732.407437531558	0
1	4394	422207.839132478977	0
1	4411	423441.169014351324	221.39137272564
1	4436	426611.739423364289	108.56625533499
1	4454	430143.661758613538	0
1	4463	431425.382417975068	0
1	4475	432483.485494559605	2.44671144041
1	4483	433348.976084875704	389.21414041783
1	4492	434117.465944480912	370.26609915037
1	4503	434920.412463371751	790.60171321053
1	4547	438276.867712767547	108.78236276668
1	4572	439788.350895126089	0
1	4581	440643.565899262902	103.22125445475
1	4589	441511.308207898636	807.69051767792
1	4598	442428.605731806432	0
1	4640	446635.054217663835	248.69344382977
1	4657	448845.375593791324	0
1	4666	450023.908970856441	0
1	4683	451206.780777016705	33.54780843004
1	4694	452113.800276476947	865.12766301945
1	4700	452935.753147456755	1606.5650347616
1	4717	454695.270283977225	0
1	4759	458605.365061433631	0
1	4777	461658.735037974004	0
1	4794	463814.553343529523	0
1	4803	464714.147323335969	616.71670854575
1	4811	465696.526239658471	351.62072763128
1	4828	466916.176021771513	0
1	4836	467740.398277719004	411.87704581555
1	4853	468691.896863050822	123.07005262489
1	4870	470039.948654020372	0
1	4895	471805.513729344496	146.32796632573
1	4906	472633.670004414051	707.66930298138
1	4956	480195.21549575958	0
1	4964	481395.976090659578	0
1	4973	482821.416899482631	0
1	4985	483736.238105586804	438.68986414503
1	4996	484526.291497588	1005.3198909889
1	5005	485412.415709985425	1452.2330935876
1	5016	486335.134745143406	902.14402180592
1	5025	487190.27585165133	1259.3367124227
1	5036	488065.701466948636	547.89909069085
1	5107	493052.418207875648	0
1	5116	494393.51401741585	0
1	5131	495421.754598090564	854.72880690301
1	5139	496373.881690490575	1772.7653493999
1	5145	497265.268874362596	2409.7577143131
1	5153	498068.21735884115	2514.8220563004
1	5165	499075.635587721177	182.72734807615
1	5209	502366.592894164486	294.1433204496
1	5220	503160.190881598044	396.72187888015
1	5231	503952.636228682123	860.0247065999
1	5251	506289.122018872369	0
1	5284	508504.149357004536	84.693011436669
1	5293	509361.332802975421	319.53741000146
1	5301	510116.553749774551	280.50006283371
1	5313	510920.549726283981	457.18597069177
1	5327	512582.088279759496	0
1	5343	513754.984640335654	46.056030516404
1	5377	516073.04152434818	160.98746926148
1	5385	516952.933568695033	290.95151452684
1	5410	519070.958787864897	0
1	5419	519929.270999074194	382.87876960728
1	5464	528345.449412980153	0
1	5472	529488.873526321433	0
1	5481	530373.507560333416	668.61272435471
1	5489	531317.010606997713	598.0194460942
1	5515	534259.245230212433	128.15005921839
1	5524	535208.436938852139	473.42981413344
1	5566	539672.358932810848	0
1	5575	540568.364509731382	806.57928978258
1	5584	542460.048472025359	0
1	5592	543389.515480414262	414.2998020105
1	5618	545337.233004790711	224.80694366718
1	5629	546175.759672086211	663.28919537761
1	5635	546996.086127270679	1410.8546159188
1	5660	548842.647326916549	0
1	5671	549829.881537692778	174.66487534995
1	5693	551136.990606837195	45.436659778853
1	5708	552192.19055410854	403.60819737378
1	5716	553128.791004855993	1195.4580068225
1	5725	553982.785465509411	1732.0975514308
1	5760	556555.316114215432	0
1	5772	557584.109905355985	937.8188612405
1	5783	558355.130244351902	4.729810830269
1	5805	559838.546030962052	55.602275614205
1	5827	561709.120697096012	0
1	5852	563365.1429958522	0
1	5869	565189.996832881665	0
1	5895	567978.808548756755	0
1	5912	569901.267741364013	0
1	5939	575921.285368626215	0
1	5949	578260.921529377532	0
1	5957	579201.180715719472	610.13206428773
1	5975	582247.013249465101	0
1	5984	583098.446645507329	551.71573724209
1	6018	587612.012538513331	0
1	6030	588606.94704264698	250.76460264237
1	6062	593694.871751425973	0
1	6071	595825.884491032891	0
1	6080	596852.497694143513	0
1	6089	598589.741156327253	0
1	6103	599542.370967298552	880.02001616292
1	6112	600429.334624294336	1217.5988112229
1	6139	602269.356269080511	256.83259008233
1	6150	603256.280005868298	912.96298051546
1	6165	604152.722062268093	155.56288594565
1	6173	605046.517978977617	962.89357470108
1	6182	605937.366670204142	1652.0632727749
1	6220	608073.796883753268	288.93961767578
1	6235	609111.761633068941	1147.2508739281
1	6243	610079.219922516484	1617.4077531797
1	6255	611006.403102681322	1665.5166642034
1	6267	612038.972915363887	1566.1084976783
1	6275	612824.405785571722	1734.5825526464
1	6284	613736.425185212162	2103.4237853242
1	6298	614550.092643365052	1518.6507603085
1	6307	615460.367279429871	1686.5027984795
1	6318	616418.767818452278	1308.7424868478
1	6327	617148.124352227703	1634.908785154
1	6415	621805.329941819172	312.92062005771
1	6434	623399.841039590949	252.1530333043
1	6448	624894.272041454499	0
1	6465	626555.670201833271	256.70479182985
1	6474	627594.933820341302	129.06310235988
1	6508	631532.530445298565	72.296456002618
1	6516	632357.782072886621	202.76255053456
1	6533	633532.06902410967	0
1	6568	638951.250684879654	0
1	6577	639848.351988567601	303.18619270073
1	6588	640735.281195039981	480.13537031813
1	6597	641526.090997880781	791.92836990629
1	6608	642550.690002761001	1672.4743948978
1	6614	643359.872321796021	1353.7335587661
1	6622	644206.38802689055	1856.2142754052
1	6650	645772.426446174794	31.123934362195
1	6659	646530.872153360981	785.32403128149
1	6670	647274.667401904843	431.60623804343
1	6701	648901.84484911769	115.39268272907
1	6709	649659.873138108873	783.64585527357
1	6715	650593.494685577302	1694.4395105162
1	6729	651372.117811332781	330.58893434289
1	6738	652436.241790116952	1133.9832224376
1	6779	654910.975531699321	300.51320257383
1	6793	655744.753207810296	458.21220310754
1	6825	658067.398853218731	11.871838234491
1	6837	658912.549140218653	34.227178604954
1	6854	659910.182534837611	944.594012209
1	6866	660885.878286250712	1749.487356923
1	6874	661666.701465027136	2335.4702178724
1	6886	662533.493715458589	3030.8715093819
1	6894	663343.901461632259	2583.2796877889
1	6903	664185.852113308883	3118.4537388776
1	6908	665024.29324423038	3165.7969968338
1	6926	665917.069382909263	359.88001011319
1	6931	666729.220595136338	834.70191454205
1	6951	667866.93667857537	156.9405771233
1	6968	668978.158458492687	183.37510088563
1	6976	670010.831684455751	725.68756187096
1	7081	675450.033880353789	228.12866936188
1	7094	676529.32199213898	121.45915016173
1	7103	677448.468881440715	472.63986834232
1	7112	679842.051307103372	0
1	7130	680880.157012611974	427.33054977741
1	7138	681707.600108432293	1014.8829579921
1	7147	682508.802858026517	1256.2320186999
1	7171	684718.823836533423	0
1	7212	687175.262627950156	68.959487080048
1	7230	689979.988982688802	109.83306750873
1	7248	693525.355038512152	0
1	7266	697667.411582481313	0
1	7284	700877.507322736058	0
1	7301	702239.347560352641	70.454519084389
1	7310	703380.919065017416	0
1	7318	704230.627507280649	150.84398287567
1	7327	705479.680166992136	0
1	7338	706229.613120248453	681.78620036399
1	7386	710545.419016448422	132.81786957772
1	7398	711520.916147510136	944.91053544526
1	7413	715002.555795788808	0
1	7448	720540.147060190418	0
1	7456	721611.995516532056	1024.8006084601
1	7466	723512.615225933261	0
1	7474	724430.603851087891	424.33111498941
1	7500	726960.247566313317	0
1	7511	727778.411641645585	197.01781666418
1	7520	728568.217156426153	855.53314636566
1	7531	729473.231422097137	615.49991266376
1	7550	731305.84968960132	0
1	7593	735471.173760916648	0
1	7610	738169.151470230382	0
1	7619	738914.511302378003	133.69718243639
1	7627	739966.24064536629	174.360741374
1	7645	742385.132228418411	0
1	7656	743325.168639241647	775.20958590378
1	7671	744297.040140943991	938.07772566363
1	7682	745226.637953680259	825.16232440025
1	7688	746150.4328805346	1473.5213903958
1	7696	747066.031488738626	899.85189654114
1	7716	748133.364625632588	282.46318846357
1	7731	749147.424393377573	854.75979671877
1	7736	750061.573635760713	1190.8489123811
1	7748	750931.028697024716	460.1023672877
1	7767	752126.249381045969	93.201389812164
1	7811	754610.215566919503	218.05977151508
1	7822	755333.263592305645	883.46559265658
1	7831	756287.275880603928	1626.6801957717
1	7895	760688.43940159997	226.46660057325
1	7913	763100.094897387551	0
1	7921	763967.867082852536	703.69201808898
1	7930	765224.35394633508	0
1	7941	766140.856414999781	838.78223021925
1	7950	767029.162277506981	579.98647820718
1	7961	767868.075289032282	166.50599259378
1	7976	768788.679151172487	644.57734112738
1	7981	769645.936239474887	1207.3420013098
1	7996	770765.049529143485	706.95174194902
1	8008	771590.652514645351	133.4821292954
1	8048	773973.552490139301	282.54494683515
1	8097	776710.222572451876	0
1	8105	777434.778084047501	692.12590868992
1	8114	778380.645379002008	671.86158148025
1	8130	779506.5268536006	246.99562532984
1	8142	780247.322998619416	455.72063505469
1	8150	781239.064389523979	1371.2716485572
1	8175	782901.033966031432	148.20643820937
1	8192	784254.778321953637	124.70676423673
1	8222	786282.241151410777	0
1	8231	787208.806969061786	731.79091992116
1	8242	788076.758364656674	611.15087379369
1	8265	790519.338192325152	0
1	8307	795250.45472354604	0
1	8317	797162.058334221753	0
1	8331	798098.393407609239	777.48596737994
1	8337	799053.482766562214	1565.4342410323
1	8342	800029.615084029972	2265.1623713481
1	8354	800965.290126744087	774.53539015527
1	8365	801796.162055746229	435.33112139163
1	8374	802644.952161240099	423.02160514876
1	8399	804130.317743384217	139.73945169856
1	8429	805974.675596017142	206.69712812727
1	8440	806769.031813397734	126.94157423285
1	8452	807546.268469780229	535.31372971283
1	8465	808847.80248651205	193.74929189994
1	8477	809633.515371559025	672.90265535431
1	8488	810590.242398434326	880.69522905657
1	8503	811524.090428518245	1713.1404030761
1	8514	812348.137516816846	1518.7107504761
1	8523	813303.940010100364	2349.8737723224
1	8609	819012.978756954197	0
1	8618	820014.313043635915	752.30945484252
1	8645	825855.398673141448	0
1	8664	830872.469929806534	0
1	8673	831796.739945804407	64.577437640562
1	8681	832727.736016805351	111.69484800284
1	8690	833787.338835987929	199.31368186568
1	8707	835586.773129271854	0
1	8718	836415.030822354405	208.97600031392
1	8727	837333.798303760198	349.24545158745
1	8752	838819.210033160162	122.9649132593
1	8760	839834.695267315082	906.96215669048
1	8799	842295.953493368677	135.91994426455
1	8808	843642.526702339215	0
1	8827	844904.165317190039	257.45911067031
1	8850	847938.39017462916	0
1	8875	849488.417180803973	91.832394265547
1	8884	850666.882312447708	0
1	8901	853522.164773621729	0
1	8913	854498.300161316384	495.52689010378
1	8925	855487.513631687101	794.30874617696
1	8936	856383.866890229199	694.17147926461
1	8942	857272.066663642264	1046.2310618724
1	8956	858015.589653117315	260.71515947164
1	8968	858930.547727992456	953.38708311815
1	8973	859755.140992872431	1743.8081652133
1	8994	860629.019224179049	619.34193095784
1	9005	861530.59653380085	1158.7693916163
1	9014	862622.370960724029	2078.1020655298
1	9025	863526.479505099984	2363.896376345
1	9034	864227.485739415113	1602.1994942056
1	9051	865115.622775139059	918.30884512614
1	9057	865940.247979948292	1655.9987991545
1	9065	866822.857893168306	2502.0340275183
1	9080	867554.612671124963	526.69826640571
1	9088	868357.164104599487	1110.776859579
1	9200	874195.352101457472	306.54447786572
1	9209	875090.395415081279	912.4568158598
1	9215	876003.964280235307	1759.7704428538
1	9233	877459.629224655429	129.14413819824
1	9245	878347.618316207403	343.63723529329
1	9253	879201.293887393624	1106.7949320829
1	9319	883782.375758699081	245.44003384368
1	9331	884690.418756304004	271.78965370702
1	9336	885595.817166254215	956.17354743787
1	9345	887306.324260766415	0
1	9354	888051.565436151862	443.91914868332
1	9387	890738.537039572163	204.24851174524
1	9402	891621.399693525446	492.06420671673
1	9407	892576.583898054695	1241.7316248356
1	9419	893379.505856400362	493.79668809586
1	9427	894339.896948078685	129.39683453846
1	9436	895166.466618100822	119.02613786375
1	9450	896100.377637000869	648.42878521483
1	9467	897315.841707368055	61.529159617798
1	9505	899300.502149282099	106.61103269363
1	9514	900148.171843904402	680.70246367604
1	9525	901038.075158855758	865.10278908179
1	9552	902965.479854350667	165.65786166341
1	9561	903950.150683320717	905.56981284249
1	9622	908931.914102601051	0
1	9631	911062.948375792916	0
1	9640	912528.029955992603	0
1	9648	913467.404759972481	0
1	9674	915680.822569796688	228.76190740633
1	9682	916740.413497666508	0
1	9708	919702.89969547911	0
1	9719	920502.207723933954	591.29879312598
1	9731	921335.182529184005	195.22487489258
1	9739	922269.002801275205	663.17143405924
1	9775	925022.611711968556	0
1	9801	927862.828987841977	0
1	9818	930344.187078321683	0
1	9827	931225.928698893681	515.79858395161
1	9844	933407.666687614239	0
1	9879	938027.102693249943	186.59004418407
1	9887	938793.739317468787	36.425893822258
1	9896	940601.579582176398	0
1	9914	942932.519701679446	0
1	9934	944754.400427150085	283.76816129917
1	9942	945601.626488566078	676.74932044008
1	9951	946409.144894617848	190.05608084402
1	9970	947549.706365510967	198.40083232628
1	9985	948509.757723168589	1088.2752953259
1	9990	949340.481037818032	1527.7837273785
1	9999	950240.997173588148	1963.2596790006
1	10013	951247.946670935549	1234.0895000935
1	10022	952299.918242601133	1308.2316251266
1	10081	956492.192352408889	0
1	10096	957397.203267033856	270.05489242377
1	10115	959794.151808900489	0
1	10141	961869.393217338118	103.67204954203
1	10149	962875.884823202446	0
1	10158	963812.058055930115	93.806210098007
1	10166	964613.91949656069	264.89357907821
1	10178	965546.632646226402	91.329632889144
1	10217	968688.520927124349	0
1	10228	969426.545353500118	395.90075999653
1	10239	970219.597879255539	249.78636349528
1	10248	971143.590727759202	263.4926881918
1	10262	972154.397076769715	201.50895041802
1	10292	974497.50355685691	0
1	10303	975375.184611218053	316.44285675208
1	10315	976374.053334893071	178.49800653464
1	10327	977260.687737974692	597.35070745483
1	10354	978935.381429560855	113.07254459886
1	10376	980669.463420976144	0
1	10401	983029.310239373607	0
1	10409	983882.687210900258	475.49067839793
1	10435	986652.556887367348	0
1	10452	988066.060579249019	0
1	10463	988817.355512483473	39.593893556177
1	10478	991311.075462719663	0
1	10511	993852.967940712453	0
1	10529	996263.773138373963	0
1	10547	999814.406820015006	0
1	10564	1001538.182094913198	203.02899884278
1	10581	1004486.295268353175	172.68810179233
1	10608	1009020.986176218956	0
1	10620	1009948.019905858918	564.33771270771
1	10628	1010838.697883558945	991.97118836102
1	10637	1011641.554738516299	1613.3418541405
1	10645	1012566.360656576176	1256.4159126205
1	10654	1013517.078046080413	1289.8724421322
1	10692	1016074.350864743014	0
1	10701	1016942.980750185016	663.78870642644
1	10712	1017760.519707495392	371.15367565887
1	10724	1018630.458072772338	856.05612491329
1	10732	1019538.874497293089	561.05898759837
1	10768	1022347.370564137794	0
1	10788	1023637.948885665764	94.638243084953
1	10828	1028653.187036990273	0
1	10836	1029566.845672324331	718.5325211881
1	10845	1030392.184219097482	0
1	10853	1031256.614864118543	0
1	10862	1032081.693026812764	0
1	10873	1032855.350676126182	768.376434651
1	10887	1033636.975685596466	550.18731274647
1	10902	1034605.518709142434	976.34842243118
1	10911	1035415.304288528726	1584.965069333
1	10919	1036519.688530991444	2226.9588547961
1	10934	1037502.995993781079	2527.7718828304
1	10945	1038373.980254314822	1610.0684021733
1	10972	1040169.237503739767	306.67189115082
1	11008	1042311.109545629785	12.51792632911
1	11053	1045033.226759284333	0
1	11080	1050033.101436351259	0
1	11090	1053140.560472482718	0
1	11107	1055740.299122565053	0
1	11116	1057146.108467294386	0
1	11133	1059207.513423801065	0
1	11145	1060070.463289033986	171.4540529751
1	11153	1060903.473143209108	547.80938535771
1	11170	1062091.273560712859	298.11269526097
1	11182	1063061.558518625302	760.40856728941
1	11196	1063871.45327808004	856.12654854806
1	11205	1064665.198361667477	961.92952326913
1	11216	1065493.978652648563	1783.6150644794
1	11225	1066403.505107018304	1792.6813004655
1	11239	1067341.848969272538	1637.7366455796
1	11248	1068277.459296223463	1325.064367135
1	11262	1069048.787262001854	1119.3908755892
1	11271	1069949.503539124872	1316.3052326786
1	11285	1070877.727860396592	2134.3059101779
1	11291	1071781.470585864437	1327.1197917668
1	11305	1072568.702059761221	81.905628557719
1	11411	1078129.999668517827	333.97587559
1	11425	1079347.653237457644	232.75613664396
1	11435	1082151.08211624718	0
1	11446	1083017.090435909811	428.5613090819
1	11468	1084925.101063479451	0
1	11477	1085919.810646926964	406.04810512027
1	11494	1087172.982391446443	192.75169494062
1	11522	1090039.51101738876	58.598646400394
1	11555	1095481.47255897244	0
1	11569	1096355.701245141238	862.47170651779
1	11578	1097180.548398346808	1615.5383612726
1	11583	1098188.050374504913	2322.0565074517
1	11592	1099191.148278564046	2141.7315440883
1	11600	1099977.21589507617	1049.9313487813
1	11634	1102641.232872064185	249.01184337743
1	11648	1103518.171479241694	721.66871993592
1	11660	1104433.011994694058	1479.5051176984
1	11665	1105347.759222287214	1361.1800101796
1	11674	1106183.555802578553	88.732781638532
1	11685	1107081.126795097603	851.56694552506
1	11700	1107979.003191030659	1717.3347746464
1	11708	1108773.518353525144	1657.1952614948
1	11781	1112884.191388459787	0
1	11798	1115075.461568976115	0
1	11807	1116068.033495114954	978.25394379033
1	11815	1117004.231516541612	422.42357931688
1	11827	1117934.52253746839	718.31957693583
1	11849	1120285.378804676489	219.1071652063
1	11860	1121124.243165644025	807.79871895323
2	1995	200488.765740708222	1
2	2001	200995.143190419697	0
2	2016	203414.401676282083	1
2	2018	203414.401676282083	0
2	2024	203979.554230405758	1
2	2033	204093.54536013395	0
2	2049	205700.880499434492	1
2	2051	205700.880499434492	0
2	2084	209731.567044550019	1
2	2086	209731.567044550019	0
2	2101	211056.226870821464	1
2	2103	211056.226870821464	0
2	2106	211510.554395058782	1
2	2111	211761.516729470363	0
2	2118	213098.623010201964	1
2	2120	213098.623010201964	0
2	2123	214013.138472942472	1
2	2128	214073.455275169387	0
2	2131	214158.206443363263	1
2	2140	214983.319391958676	0
2	2146	215955.457696550679	1
2	2152	215998.950277517752	0
2	2158	216322.485693443789	1
2	2163	216761.049242418273	0
2	2166	217087.568306267328	1
2	2171	217693.1055694452	0
2	2175	217920.383317458563	1
2	2186	218656.515065957025	0
2	2189	218909.775216471587	1
2	2195	219562.247009620054	0
2	2198	219651.482188250077	1
2	2209	220660.249557479816	0
2	2212	220716.039571555452	1
2	2221	221401.66111460716	0
2	2227	221904.927376089877	1
2	2232	222284.130186042323	0
2	2318	226708.252780477689	1
2	2321	226864.047518428359	2
2	2326	226946.555683554062	1
2	2329	227691.148680510014	2
2	2334	227866.249999260367	1
2	2338	228062.775185256949	2
2	2341	228104.995407953026	3
2	2346	228780.752521315945	2
2	2351	229607.824509915262	1
2	2357	230431.567596447798	0
2	2360	230711.915895872648	1
2	2368	231396.742498314114	0
2	2424	236486.531982958634	1
2	2429	236495.156371394124	0
2	2433	236578.951966361586	1
2	2438	237451.300878636445	0
2	2445	239412.09397007668	1
2	2447	239412.09397007668	0
2	2450	239991.165186015488	1
2	2456	240346.763410390504	0
2	2479	242444.262232995948	1
2	2481	242444.262232995948	0
2	2484	243097.251144240252	1
2	2490	243452.391125333102	0
2	2512	245031.012014277421	1
2	2514	245031.012014277421	0
2	2518	245401.361307570695	1
2	2521	245883.672190562995	2
2	2526	245952.227270623885	1
2	2529	246142.752889383993	2
2	2532	246797.063511423819	3
2	2541	246968.010193507757	2
2	2544	247296.909386976214	3
2	2549	247804.147314711456	2
2	2552	247987.553378373278	3
2	2561	248641.666607715366	2
2	2569	249601.240833522851	1
2	2575	250573.335279735361	0
2	2629	253470.354579462894	1
2	2634	253614.790318360892	0
2	2655	256105.001656515697	1
2	2657	256105.001656515697	0
2	2660	257053.674590324054	1
2	2665	257123.562550877338	0
2	2669	257439.919804578629	1
2	2677	258065.943327439192	0
2	2689	259904.340650826162	1
2	2691	259904.340650826162	0
2	2694	260075.194895824606	1
2	2698	260644.365514774791	2
2	2703	260756.935799880395	1
2	2714	261825.481579314815	0
2	2765	266857.286125724143	1
2	2767	266857.286125724143	0
2	2770	266969.643530329335	1
2	2776	267653.556560937233	0
2	2779	268179.751898079241	1
2	2784	268555.651238979369	0
2	2787	268898.747168881321	1
2	2793	269464.315835489055	0
2	2796	269559.958610456777	1
2	2799	270255.114142826506	2
2	2804	270454.895114934344	1
2	2811	271249.769826130156	2
2	2814	271310.030534842544	3
2	2819	271343.948761411024	2
2	2822	271717.780058451598	3
2	2830	272220.265491051723	2
2	2834	273058.282612632049	3
2	2839	273065.975821070779	2
2	2847	273931.380300652333	1
2	2856	274780.114420910912	0
2	2862	275427.62262791516	1
2	2867	275620.615443593228	0
2	2879	276538.022765087122	1
2	2884	276742.865244633141	0
2	2893	277218.232809024997	1
2	2896	277516.686233017312	2
2	2901	277631.154318151834	1
2	2910	278462.887304082256	0
2	2932	280147.432752297957	1
2	2937	280305.626599278942	0
2	2949	281252.5727318791	1
2	2957	281475.210407956975	0
2	2963	281974.072774752154	1
2	2968	282287.286254397416	0
2	3027	285634.630207063389	1
2	3032	285792.585630455917	0
2	3058	289463.815633510141	1
2	3060	289463.815633510141	0
2	3063	289470.481769326128	1
2	3072	290421.738507600813	0
2	3085	293411.063603955044	1
2	3087	293411.063603955044	0
2	3090	293712.224470312473	1
2	3095	294246.510024681326	0
2	3118	295867.897538979936	1
2	3120	295867.897538979936	0
2	3153	300468.680135107198	1
2	3155	300468.680135107198	0
2	3158	300747.673356484954	1
2	3163	301331.204254433979	0
2	3167	301807.576982242191	1
2	3170	301812.929136429076	2
2	3175	302165.482717681754	1
2	3180	303023.13066854639	0
2	3192	304628.473668693726	1
2	3197	304965.573707450357	0
2	3230	309075.073808905953	1
2	3232	309075.073808905953	0
2	3238	310009.12503753681	1
2	3243	310018.475754757571	0
2	3247	310875.617693794734	1
2	3252	310910.802736326029	0
2	3255	310955.778141349128	1
2	3260	311804.823849004925	0
2	3264	312454.70519562162	1
2	3269	312722.381489472219	0
2	3272	313293.549271058668	1
2	3280	313609.684372605323	0
2	3295	314971.583992659517	1
2	3300	314986.102420631925	0
2	3336	317191.866446337783	1
2	3341	317367.320078620368	0
2	3364	320527.446568457413	1
2	3366	320527.446568457413	0
2	3370	320721.617403741368	1
2	3373	320796.219674360978	2
2	3376	320915.224824893774	3
2	3379	320949.004341968884	4
2	3384	321442.2745243825	3
2	3390	321872.658091255309	4
2	3396	322305.360348644798	3
2	3399	322663.687137010733	4
2	3402	322956.740231829814	5
2	3407	323147.858303301626	4
2	3413	324014.919789720287	3
2	3418	324708.312826934491	2
2	3426	325471.194179975761	1
2	3435	326358.840519132609	0
2	3441	327206.368614854508	1
2	3446	327213.654932183102	0
2	3453	327638.275942867083	1
2	3458	328097.821441017906	0
2	3541	335545.919884180829	1
2	3543	335545.919884180829	0
2	3547	336088.20913566491	1
2	3552	336325.811810156414	0
2	3555	336793.845710461677	1
2	3560	337324.146309433521	0
2	3576	340491.21404624927	1
2	3578	340491.21404624927	0
2	3584	340970.313832730465	1
2	3590	341506.221311187146	0
2	3610	343223.055470657968	1
2	3612	343223.055470657968	0
2	3615	343861.4794491226	1
2	3620	344165.880123549534	0
2	3635	345722.896493675812	1
2	3637	345722.896493675812	0
2	3644	346373.744162417609	1
2	3649	346698.615426751168	0
2	3686	351048.880622174765	1
2	3688	351048.880622174765	0
2	3705	355354.103484592367	1
2	3707	355354.103484592367	0
2	3723	358815.446892777042	1
2	3725	358815.446892777042	0
2	3740	361541.972442556711	1
2	3742	361541.972442556711	0
2	3746	362219.323637384286	1
2	3749	362469.016085585377	2
2	3754	362521.863271183479	1
2	3760	363459.471897483278	0
2	3766	364065.721561107983	1
2	3771	364465.257607311943	0
2	3814	369125.836895828311	1
2	3819	369241.399767299996	0
2	3822	369408.617557848912	1
2	3827	370080.77513624135	0
2	3831	370626.240602609756	1
2	3836	371007.066972182886	0
2	3849	373999.58452243135	1
2	3854	374287.00673540116	0
2	3869	375642.211218638299	1
2	3871	375642.211218638299	0
2	3895	379013.51712557424	1
2	3897	379013.51712557424	0
2	3913	382669.574501544549	1
2	3915	382669.574501544549	0
2	3930	384897.166680736363	1
2	3932	384897.166680736363	0
2	3935	385013.864764412908	1
2	3941	385758.530619444012	0
2	3944	386604.76613061927	1
2	3949	386707.385892697023	0
2	3955	387096.076842710456	1
2	3961	387610.092828800737	0
2	3964	388416.309108319136	1
2	3969	388614.469970305746	0
2	3986	389997.92966003526	1
2	3991	390066.527359375568	0
2	3997	390692.853168929299	1
2	4003	391037.799413120334	0
2	4014	391896.421133286062	1
2	4019	392136.709550484785	0
2	4034	393357.358703354222	1
2	4037	393371.502426806989	2
2	4042	393390.157012765021	1
2	4045	393733.755494622472	2
2	4050	394240.334532384392	1
2	4059	395130.830224527155	0
2	4065	395671.475983293644	1
2	4070	395946.957840189007	0
2	4074	396559.847571212736	1
2	4077	396662.533139965687	2
2	4082	396860.480371630353	1
2	4090	397680.826996303442	0
2	4156	401482.201452001133	1
2	4158	401482.201452001133	0
2	4177	402680.176780720158	1
2	4183	402931.409789669687	0
2	4189	403836.975947028423	1
2	4191	403836.975947028423	0
2	4198	404780.263916855522	1
2	4200	404780.263916855522	0
2	4203	404783.056877294606	1
2	4208	405548.745421196605	0
2	4211	405581.951292568017	1
2	4220	406570.323095512487	0
2	4226	407405.300957782942	1
2	4231	407471.956455270587	0
2	4235	408104.332429424827	1
2	4240	408329.468583749032	0
2	4278	410335.696176660023	1
2	4283	410647.181544852033	0
2	4303	411944.530138373875	1
2	4308	412059.754940036703	0
2	4324	414884.845058977709	1
2	4326	414884.845058977709	0
2	4349	417045.804312313498	1
2	4351	417045.804312313498	0
2	4354	417448.951689852634	1
2	4359	417804.58789762181	0
2	4375	420732.407437531558	1
2	4377	420732.407437531558	0
2	4392	422207.839132478977	1
2	4394	422207.839132478977	0
2	4405	423219.777641625679	1
2	4411	423441.169014351324	0
2	4431	426503.173168029301	1
2	4436	426611.739423364289	0
2	4452	430143.661758613538	1
2	4454	430143.661758613538	0
2	4461	431425.382417975068	1
2	4463	431425.382417975068	0
2	4470	432481.038783119195	1
2	4475	432483.485494559605	0
2	4478	432959.761944457876	1
2	4483	433348.976084875704	0
2	4487	433747.199845330537	1
2	4492	434117.465944480912	0
2	4495	434129.810750161224	1
2	4503	434920.412463371751	0
2	4542	438168.085350000868	1
2	4547	438276.867712767547	0
2	4570	439788.350895126089	1
2	4572	439788.350895126089	0
2	4575	440540.344644808149	1
2	4581	440643.565899262902	0
2	4584	440703.617690220712	1
2	4589	441511.308207898636	0
2	4596	442428.605731806432	1
2	4598	442428.605731806432	0
2	4635	446386.360773834065	1
2	4640	446635.054217663835	0
2	4655	448845.375593791324	1
2	4657	448845.375593791324	0
2	4664	450023.908970856441	1
2	4666	450023.908970856441	0
2	4678	451173.232968586665	1
2	4683	451206.780777016705	0
2	4686	451248.672613457495	1
2	4689	451329.188112695145	2
2	4694	452113.800276476947	1
2	4700	452935.753147456755	0
2	4715	454695.270283977225	1
2	4717	454695.270283977225	0
2	4757	458605.365061433631	1
2	4759	458605.365061433631	0
2	4775	461658.735037974004	1
2	4777	461658.735037974004	0
2	4792	463814.553343529523	1
2	4794	463814.553343529523	0
2	4797	464097.430614790215	1
2	4803	464714.147323335969	0
2	4806	465344.905512027187	1
2	4811	465696.526239658471	0
2	4826	466916.176021771513	1
2	4828	466916.176021771513	0
2	4831	467328.521231903458	1
2	4836	467740.398277719004	0
2	4848	468568.826810425928	1
2	4853	468691.896863050822	0
2	4868	470039.948654020372	1
2	4870	470039.948654020372	0
2	4890	471659.185763018769	1
2	4895	471805.513729344496	0
2	4898	471926.000701432666	1
2	4906	472633.670004414051	0
2	4954	480195.21549575958	1
2	4956	480195.21549575958	0
2	4962	481395.976090659578	1
2	4964	481395.976090659578	0
2	4971	482821.416899482631	1
2	4973	482821.416899482631	0
2	4976	483297.548241441773	1
2	4980	483520.971606599063	2
2	4985	483736.238105586804	1
2	4988	483960.18261639781	2
2	4996	484526.291497588	1
2	5005	485412.415709985425	0
2	5008	485432.990723337487	1
2	5011	485930.939139228672	2
2	5016	486335.134745143406	1
2	5025	487190.27585165133	0
2	5031	487517.802376257782	1
2	5036	488065.701466948636	0
2	5105	493052.418207875648	1
2	5107	493052.418207875648	0
2	5114	494393.51401741585	1
2	5116	494393.51401741585	0
2	5119	494567.025791187554	1
2	5122	494601.116341090633	2
2	5125	494855.511160049508	3
2	5131	495421.754598090564	2
2	5134	495553.395302540787	3
2	5139	496373.881690490575	2
2	5145	497265.268874362596	1
2	5153	498068.21735884115	0
2	5160	498892.908239645027	1
2	5165	499075.635587721177	0
2	5203	502072.449573714886	1
2	5209	502366.592894164486	0
2	5212	502763.469002717898	1
2	5215	503092.611522082219	2
2	5220	503160.190881598044	1
2	5231	503952.636228682123	0
2	5249	506289.122018872369	1
2	5251	506289.122018872369	0
2	5279	508419.456345567867	1
2	5284	508504.149357004536	0
2	5287	509041.795392973961	1
2	5293	509361.332802975421	0
2	5296	509836.05368694084	1
2	5301	510116.553749774551	0
2	5304	510463.363755592208	1
2	5313	510920.549726283981	0
2	5325	512582.088279759496	1
2	5327	512582.088279759496	0
2	5338	513708.92860981925	1
2	5343	513754.984640335654	0
2	5371	515912.054055086701	1
2	5377	516073.04152434818	0
2	5380	516661.982054168191	1
2	5385	516952.933568695033	0
2	5408	519070.958787864897	1
2	5410	519070.958787864897	0
2	5414	519546.392229466915	1
2	5419	519929.270999074194	0
2	5462	528345.449412980153	1
2	5464	528345.449412980153	0
2	5470	529488.873526321433	1
2	5472	529488.873526321433	0
2	5475	529704.894835978706	1
2	5481	530373.507560333416	0
2	5484	530718.991160903513	1
2	5489	531317.010606997713	0
2	5510	534131.095170994045	1
2	5515	534259.245230212433	0
2	5518	534735.0071247187	1
2	5524	535208.436938852139	0
2	5564	539672.358932810848	1
2	5566	539672.358932810848	0
2	5569	539761.7852199488	1
2	5575	540568.364509731382	0
2	5582	542460.048472025359	1
2	5584	542460.048472025359	0
2	5587	542975.215678403761	1
2	5592	543389.515480414262	0
2	5612	545112.42606112353	1
2	5618	545337.233004790711	0
2	5621	545512.470476708597	1
2	5624	545585.231511351861	2
2	5629	546175.759672086211	1
2	5635	546996.086127270679	0
2	5658	548842.647326916549	1
2	5660	548842.647326916549	0
2	5663	549655.216662342826	1
2	5671	549829.881537692778	0
2	5688	551091.553947058342	1
2	5693	551136.990606837195	0
2	5696	551788.582356734759	1
2	5699	551933.332998033501	2
2	5708	552192.19055410854	1
2	5711	552250.687914078569	2
2	5716	553128.791004855993	1
2	5725	553982.785465509411	0
2	5758	556555.316114215432	1
2	5760	556555.316114215432	0
2	5763	556646.291044115486	1
2	5772	557584.109905355985	0
2	5778	558350.400433521633	1
2	5783	558355.130244351902	0
2	5800	559782.943755347847	1
2	5805	559838.546030962052	0
2	5825	561709.120697096012	1
2	5827	561709.120697096012	0
2	5850	563365.1429958522	1
2	5852	563365.1429958522	0
2	5867	565189.996832881665	1
2	5869	565189.996832881665	0
2	5893	567978.808548756755	1
2	5895	567978.808548756755	0
2	5910	569901.267741364013	1
2	5912	569901.267741364013	0
2	5937	575921.285368626215	1
2	5939	575921.285368626215	0
2	5947	578260.921529377532	1
2	5949	578260.921529377532	0
2	5952	578591.048651431744	1
2	5957	579201.180715719472	0
2	5973	582247.013249465101	1
2	5975	582247.013249465101	0
2	5978	582546.730908265237	1
2	5984	583098.446645507329	0
2	6016	587612.012538513331	1
2	6018	587612.012538513331	0
2	6025	588356.182440004609	1
2	6030	588606.94704264698	0
2	6060	593694.871751425973	1
2	6062	593694.871751425973	0
2	6069	595825.884491032891	1
2	6071	595825.884491032891	0
2	6078	596852.497694143513	1
2	6080	596852.497694143513	0
2	6087	598589.741156327253	1
2	6089	598589.741156327253	0
2	6092	598662.350951135633	1
2	6098	599211.735813071456	2
2	6103	599542.370967298552	1
2	6112	600429.334624294336	0
2	6134	602012.523678998182	1
2	6139	602269.356269080511	0
2	6142	602343.317025352842	1
2	6150	603256.280005868298	0
2	6154	603997.159176322446	1
2	6160	604083.624404276535	2
2	6165	604152.722062268093	1
2	6168	604285.303397429239	2
2	6173	605046.517978977617	1
2	6182	605937.366670204142	0
2	6212	607784.857266077488	1
2	6215	607964.510759140791	2
2	6220	608073.796883753268	1
2	6223	608461.812169336765	2
2	6235	609111.761633068941	1
2	6238	609340.886438477938	2
2	6243	610079.219922516484	1
2	6247	610472.864417685597	2
2	6255	611006.403102681322	1
2	6258	611089.823232925297	2
2	6261	611633.001399887913	3
2	6267	612038.972915363887	2
2	6275	612824.405785571722	1
2	6278	613031.441883056588	2
2	6284	613736.425185212162	1
2	6287	613773.864480950367	2
2	6298	614550.092643365052	1
2	6301	615110.025331604475	2
2	6307	615460.367279429871	1
2	6310	615513.215567073734	2
2	6318	616418.767818452278	1
2	6327	617148.124352227703	0
2	6410	621492.409321761462	1
2	6415	621805.329941819172	0
2	6429	623147.688006286647	1
2	6434	623399.841039590949	0
2	6446	624894.272041454499	1
2	6448	624894.272041454499	0
2	6460	626298.965410003423	1
2	6465	626555.670201833271	0
2	6469	627465.870717981418	1
2	6474	627594.933820341302	0
2	6503	631460.233989295947	1
2	6508	631532.530445298565	0
2	6511	632155.019522352064	1
2	6516	632357.782072886621	0
2	6531	633532.06902410967	1
2	6533	633532.06902410967	0
2	6566	638951.250684879654	1
2	6568	638951.250684879654	0
2	6572	639545.165795866873	1
2	6577	639848.351988567601	0
2	6580	640255.14582472185	1
2	6583	640734.162627974492	2
2	6588	640735.281195039981	1
2	6591	640878.215607863208	2
2	6597	641526.090997880781	1
2	6600	642006.13876302991	2
2	6603	642350.173751485368	3
2	6608	642550.690002761001	2
2	6614	643359.872321796021	1
2	6622	644206.38802689055	0
2	6642	645741.302511812599	1
2	6645	645745.548122079493	2
2	6650	645772.426446174794	1
2	6659	646530.872153360981	0
2	6662	646843.061163861417	1
2	6670	647274.667401904843	0
2	6690	648786.452166388621	1
2	6693	648876.227282835307	2
2	6696	648899.055175061058	3
2	6701	648901.84484911769	2
2	6709	649659.873138108873	1
2	6715	650593.494685577302	0
2	6721	651041.528876989893	1
2	6724	651302.258567679351	2
2	6729	651372.117811332781	1
2	6738	652436.241790116952	0
2	6773	654610.462329125488	1
2	6779	654910.975531699321	0
2	6785	655286.541004702757	1
2	6793	655744.753207810296	0
2	6820	658055.52701498424	1
2	6825	658067.398853218731	0
2	6832	658878.321961613699	1
2	6837	658912.549140218653	0
2	6840	658965.588522628613	1
2	6843	659136.390929327677	2
2	6846	659331.231247154738	3
2	6849	659502.622206076701	4
2	6854	659910.182534837611	3
2	6861	660760.621773843349	4
2	6866	660885.878286250712	3
2	6869	661067.398374431263	4
2	6874	661666.701465027136	3
2	6878	661858.496247396611	4
2	6886	662533.493715458589	3
2	6894	663343.901461632259	2
2	6903	664185.852113308883	1
2	6908	665024.29324423038	0
2	6915	665557.189372796076	1
2	6921	665894.518680594288	2
2	6926	665917.069382909263	1
2	6931	666729.220595136338	0
2	6943	667709.996101452072	1
2	6951	667866.93667857537	0
2	6960	668794.783357607053	1
2	6968	668978.158458492687	0
2	6971	669285.144122584793	1
2	6976	670010.831684455751	0
2	7075	675221.905210991909	1
2	7081	675450.033880353789	0
2	7089	676407.862841977247	1
2	7094	676529.32199213898	0
2	7097	676975.829013098392	1
2	7103	677448.468881440715	0
2	7110	679842.051307103372	1
2	7112	679842.051307103372	0
2	7118	680452.826462834567	1
2	7125	680692.717150440242	2
2	7130	680880.157012611974	1
2	7133	681252.570839326643	2
2	7138	681707.600108432293	1
2	7147	682508.802858026517	0
2	7169	684718.823836533423	1
2	7171	684718.823836533423	0
2	7207	687106.303140870108	1
2	7212	687175.262627950156	0
2	7225	689870.155915180069	1
2	7230	689979.988982688802	0
2	7246	693525.355038512152	1
2	7248	693525.355038512152	0
2	7264	697667.411582481313	1
2	7266	697667.411582481313	0
2	7282	700877.507322736058	1
2	7284	700877.507322736058	0
2	7296	702168.893041268252	1
2	7301	702239.347560352641	0
2	7308	703380.919065017416	1
2	7310	703380.919065017416	0
2	7313	704079.783524404981	1
2	7318	704230.627507280649	0
2	7325	705479.680166992136	1
2	7327	705479.680166992136	0
2	7330	705547.826919884468	1
2	7338	706229.613120248453	0
2	7381	710412.601146870706	1
2	7386	710545.419016448422	0
2	7389	710576.005612064872	1
2	7398	711520.916147510136	0
2	7411	715002.555795788808	1
2	7413	715002.555795788808	0
2	7446	720540.147060190418	1
2	7448	720540.147060190418	0
2	7451	720587.194908071916	1
2	7456	721611.995516532056	0
2	7464	723512.615225933261	1
2	7466	723512.615225933261	0
2	7469	724006.272736098478	1
2	7474	724430.603851087891	0
2	7498	726960.247566313317	1
2	7500	726960.247566313317	0
2	7503	727581.393824981403	1
2	7506	727712.684010060494	2
2	7511	727778.411641645585	1
2	7520	728568.217156426153	0
2	7523	728857.73150943338	1
2	7531	729473.231422097137	0
2	7548	731305.84968960132	1
2	7550	731305.84968960132	0
2	7591	735471.173760916648	1
2	7593	735471.173760916648	0
2	7608	738169.151470230382	1
2	7610	738169.151470230382	0
2	7613	738780.81411994161	1
2	7619	738914.511302378003	0
2	7622	739791.879903992294	1
2	7627	739966.24064536629	0
2	7643	742385.132228418411	1
2	7645	742385.132228418411	0
2	7648	742549.959053337869	1
2	7656	743325.168639241647	0
2	7659	743358.962415280361	1
2	7671	744297.040140943991	0
2	7674	744401.475629280011	1
2	7677	744676.911490138847	2
2	7682	745226.637953680259	1
2	7688	746150.4328805346	0
2	7691	746166.17959219749	1
2	7696	747066.031488738626	0
2	7711	747850.901437169018	1
2	7716	748133.364625632588	0
2	7719	748292.664596658803	1
2	7725	748870.724723379649	2
2	7731	749147.424393377573	1
2	7736	750061.573635760713	0
2	7742	750470.926329737016	1
2	7748	750931.028697024716	0
2	7762	752033.047991233805	1
2	7767	752126.249381045969	0
2	7803	754392.155795404422	1
2	7806	754449.797999649065	2
2	7811	754610.215566919503	1
2	7814	754660.5956848322	2
2	7822	755333.263592305645	1
2	7831	756287.275880603928	0
2	7890	760461.972801026724	1
2	7895	760688.43940159997	0
2	7911	763100.094897387551	1
2	7913	763100.094897387551	0
2	7916	763264.175064763557	1
2	7921	763967.867082852536	0
2	7928	765224.35394633508	1
2	7930	765224.35394633508	0
2	7933	765302.074184780534	1
2	7941	766140.856414999781	0
2	7945	766449.175799299802	1
2	7950	767029.162277506981	0
2	7956	767701.569296438501	1
2	7961	767868.075289032282	0
2	7965	768144.101810045107	1
2	7968	768438.594238165116	2
2	7976	768788.679151172487	1
2	7981	769645.936239474887	0
2	7988	770058.097787194465	1
2	7996	770765.049529143485	0
2	8000	771457.170385349953	1
2	8008	771590.652514645351	0
2	8043	773691.00754330415	1
2	8048	773973.552490139301	0
2	8095	776710.222572451876	1
2	8097	776710.222572451876	0
2	8100	776742.652175357581	1
2	8105	777434.778084047501	0
2	8108	777708.78379752176	1
2	8114	778380.645379002008	0
2	8125	779259.531228270756	1
2	8130	779506.5268536006	0
2	8133	779791.602363564726	1
2	8136	779867.792740966797	2
2	8142	780247.322998619416	1
2	8150	781239.064389523979	0
2	8170	782752.827527822058	1
2	8175	782901.033966031432	0
2	8187	784130.071557716908	1
2	8192	784254.778321953637	0
2	8220	786282.241151410777	1
2	8222	786282.241151410777	0
2	8225	786477.016049140623	1
2	8231	787208.806969061786	0
2	8237	787465.60749086298	1
2	8242	788076.758364656674	0
2	8263	790519.338192325152	1
2	8265	790519.338192325152	0
2	8305	795250.45472354604	1
2	8307	795250.45472354604	0
2	8315	797162.058334221753	1
2	8317	797162.058334221753	0
2	8320	797320.907440229295	1
2	8323	797488.048525529934	2
2	8326	797764.452712681828	3
2	8331	798098.393407609239	2
2	8337	799053.482766562214	1
2	8342	800029.615084029972	0
2	8345	800190.754736588817	1
2	8354	800965.290126744087	0
2	8357	801360.830934354598	1
2	8365	801796.162055746229	0
2	8368	802221.930556091338	1
2	8374	802644.952161240099	0
2	8394	803990.578291685654	1
2	8399	804130.317743384217	0
2	8421	805767.978467889867	1
2	8429	805974.675596017142	0
2	8432	806642.090239164882	1
2	8440	806769.031813397734	0
2	8446	807010.954740067403	1
2	8452	807546.268469780229	0
2	8460	808654.053194612113	1
2	8465	808847.80248651205	0
2	8468	808960.612716204719	1
2	8477	809633.515371559025	0
2	8480	809709.547169377754	1
2	8483	809810.95002544215	2
2	8488	810590.242398434326	1
2	8494	810829.426766340785	2
2	8498	810954.066237778001	3
2	8503	811524.090428518245	2
2	8514	812348.137516816846	1
2	8523	813303.940010100364	0
2	8607	819012.978756954197	1
2	8609	819012.978756954197	0
2	8612	819262.003588793392	1
2	8618	820014.313043635915	0
2	8643	825855.398673141448	1
2	8645	825855.398673141448	0
2	8662	830872.469929806534	1
2	8664	830872.469929806534	0
2	8668	831732.162508163845	1
2	8673	831796.739945804407	0
2	8676	832616.041168802507	1
2	8681	832727.736016805351	0
2	8685	833588.025154122249	1
2	8690	833787.338835987929	0
2	8705	835586.773129271854	1
2	8707	835586.773129271854	0
2	8713	836206.054822040487	1
2	8718	836415.030822354405	0
2	8722	836984.552852172751	1
2	8727	837333.798303760198	0
2	8747	838696.245119900867	1
2	8752	838819.210033160162	0
2	8755	838927.733110624606	1
2	8760	839834.695267315082	0
2	8794	842160.033549104127	1
2	8799	842295.953493368677	0
2	8806	843642.526702339215	1
2	8808	843642.526702339215	0
2	8822	844646.706206519729	1
2	8827	844904.165317190039	0
2	8848	847938.39017462916	1
2	8850	847938.39017462916	0
2	8870	849396.584786538426	1
2	8875	849488.417180803973	0
2	8882	850666.882312447708	1
2	8884	850666.882312447708	0
2	8899	853522.164773621729	1
2	8901	853522.164773621729	0
2	8908	854002.773271212606	1
2	8913	854498.300161316384	0
2	8916	854693.204885510144	1
2	8925	855487.513631687101	0
2	8928	855689.695410964587	1
2	8931	856225.835601769909	2
2	8936	856383.866890229199	1
2	8942	857272.066663642264	0
2	8945	857754.874493645676	1
2	8948	857977.160644874304	2
2	8951	858011.332827659099	3
2	8956	858015.589653117315	2
2	8968	858930.547727992456	1
2	8973	859755.140992872431	0
2	8976	860009.677293221209	1
2	8982	860371.827142184575	2
2	8988	860544.268895194225	3
2	8994	860629.019224179049	2
2	9000	861162.583128755005	3
2	9005	861530.59653380085	2
2	9014	862622.370960724029	1
2	9017	862625.286245209479	2
2	9025	863526.479505099984	1
2	9029	864197.313930012922	2
2	9034	864227.485739415113	1
2	9037	864284.249180793754	2
2	9040	864320.823865650034	3
2	9051	865115.622775139059	2
2	9057	865940.247979948292	1
2	9065	866822.857893168306	0
2	9068	867027.914404719256	1
2	9074	867246.387245020518	2
2	9080	867554.612671124963	1
2	9088	868357.164104599487	0
2	9192	873888.807623591754	1
2	9195	874177.938599221477	2
2	9200	874195.352101457472	1
2	9203	874244.193837381553	2
2	9209	875090.395415081279	1
2	9215	876003.964280235307	0
2	9228	877330.485086457185	1
2	9233	877459.629224655429	0
2	9237	878003.981080914115	1
2	9240	878094.498955310691	2
2	9245	878347.618316207403	1
2	9253	879201.293887393624	0
2	9314	883536.935724855401	1
2	9319	883782.375758699081	0
2	9322	884418.629102596982	1
2	9326	884639.643618816346	2
2	9331	884690.418756304004	1
2	9336	885595.817166254215	0
2	9343	887306.324260766415	1
2	9345	887306.324260766415	0
2	9348	887607.646287468545	1
2	9354	888051.565436151862	0
2	9382	890534.288527826923	1
2	9387	890738.537039572163	0
2	9390	891129.335486808715	1
2	9393	891334.852273219066	2
2	9402	891621.399693525446	1
2	9407	892576.583898054695	0
2	9413	892885.709168304499	1
2	9419	893379.505856400362	0
2	9422	894210.500113540229	1
2	9427	894339.896948078685	0
2	9431	895047.440480237074	1
2	9436	895166.466618100822	0
2	9439	895451.948851786042	1
2	9450	896100.377637000869	0
2	9462	897254.312547750257	1
2	9467	897315.841707368055	0
2	9500	899193.891116588467	1
2	9505	899300.502149282099	0
2	9508	899467.469380228364	1
2	9514	900148.171843904402	0
2	9517	900172.972369773969	1
2	9525	901038.075158855758	0
2	9547	902799.821992687257	1
2	9552	902965.479854350667	0
2	9555	903044.580870478223	1
2	9561	903950.150683320717	0
2	9620	908931.914102601051	1
2	9622	908931.914102601051	0
2	9629	911062.948375792916	1
2	9631	911062.948375792916	0
2	9638	912528.029955992603	1
2	9640	912528.029955992603	0
2	9646	913467.404759972481	1
2	9648	913467.404759972481	0
2	9669	915452.060662390362	1
2	9674	915680.822569796688	0
2	9680	916740.413497666508	1
2	9682	916740.413497666508	0
2	9706	919702.89969547911	1
2	9708	919702.89969547911	0
2	9711	919910.908930807977	1
2	9719	920502.207723933954	0
2	9723	921139.957654291426	1
2	9731	921335.182529184005	0
2	9734	921605.83136721597	1
2	9739	922269.002801275205	0
2	9773	925022.611711968556	1
2	9775	925022.611711968556	0
2	9799	927862.828987841977	1
2	9801	927862.828987841977	0
2	9816	930344.187078321683	1
2	9818	930344.187078321683	0
2	9821	930710.130114942067	1
2	9827	931225.928698893681	0
2	9842	933407.666687614239	1
2	9844	933407.666687614239	0
2	9874	937840.512649065873	1
2	9879	938027.102693249943	0
2	9882	938757.313423646529	1
2	9887	938793.739317468787	0
2	9894	940601.579582176398	1
2	9896	940601.579582176398	0
2	9912	942932.519701679446	1
2	9914	942932.519701679446	0
2	9925	944470.632265850911	1
2	9934	944754.400427150085	0
2	9937	944924.877168125993	1
2	9942	945601.626488566078	0
2	9945	946219.088813773823	1
2	9951	946409.144894617848	0
2	9962	947351.30553318469	1
2	9965	947421.482427842679	2
2	9970	947549.706365510967	1
2	9973	947812.697310439513	2
2	9977	948277.737494587547	3
2	9985	948509.757723168589	2
2	9990	949340.481037818032	1
2	9994	950013.857170842067	2
2	9999	950240.997173588148	1
2	10008	950991.686617474521	2
2	10013	951247.946670935549	1
2	10022	952299.918242601133	0
2	10079	956492.192352408889	1
2	10081	956492.192352408889	0
2	10091	957127.148374610088	1
2	10096	957397.203267033856	0
2	10113	959794.151808900489	1
2	10115	959794.151808900489	0
2	10136	961765.721167796091	1
2	10141	961869.393217338118	0
2	10147	962875.884823202446	1
2	10149	962875.884823202446	0
2	10153	963718.251845832108	1
2	10158	963812.058055930115	0
2	10161	964349.025917482478	1
2	10166	964613.91949656069	0
2	10173	965455.303013337258	1
2	10178	965546.632646226402	0
2	10215	968688.520927124349	1
2	10217	968688.520927124349	0
2	10220	969030.644593503584	1
2	10228	969426.545353500118	0
2	10234	969969.811515760261	1
2	10239	970219.597879255539	0
2	10243	970880.098039567401	1
2	10248	971143.590727759202	0
2	10256	971952.888126351692	1
2	10262	972154.397076769715	0
2	10290	974497.50355685691	1
2	10292	974497.50355685691	0
2	10298	975058.741754465973	1
2	10303	975375.184611218053	0
2	10310	976195.555328358432	1
2	10315	976374.053334893071	0
2	10321	976663.337030519861	1
2	10327	977260.687737974692	0
2	10345	978822.308884961995	1
2	10354	978935.381429560855	0
2	10374	980669.463420976144	1
2	10376	980669.463420976144	0
2	10399	983029.310239373607	1
2	10401	983029.310239373607	0
2	10404	983407.196532502331	1
2	10409	983882.687210900258	0
2	10433	986652.556887367348	1
2	10435	986652.556887367348	0
2	10450	988066.060579249019	1
2	10452	988066.060579249019	0
2	10458	988777.761618927296	1
2	10463	988817.355512483473	0
2	10476	991311.075462719663	1
2	10478	991311.075462719663	0
2	10509	993852.967940712453	1
2	10511	993852.967940712453	0
2	10527	996263.773138373963	1
2	10529	996263.773138373963	0
2	10545	999814.406820015006	1
2	10547	999814.406820015006	0
2	10559	1001335.153096070416	1
2	10564	1001538.182094913198	0
2	10576	1004313.607166560842	1
2	10581	1004486.295268353175	0
2	10606	1009020.986176218956	1
2	10608	1009020.986176218956	0
2	10611	1009383.682193151207	1
2	10615	1009846.726695197921	2
2	10620	1009948.019905858918	1
2	10623	1010028.21288437577	2
2	10628	1010838.697883558945	1
2	10631	1011309.944743955671	2
2	10637	1011641.554738516299	1
2	10640	1012227.205603948232	2
2	10645	1012566.360656576176	1
2	10654	1013517.078046080413	0
2	10690	1016074.350864743014	1
2	10692	1016074.350864743014	0
2	10695	1016279.192043758578	1
2	10701	1016942.980750185016	0
2	10707	1017389.366031836519	1
2	10712	1017760.519707495392	0
2	10715	1017774.401947859047	1
2	10724	1018630.458072772338	0
2	10727	1018977.815509694715	1
2	10732	1019538.874497293089	0
2	10766	1022347.370564137794	1
2	10768	1022347.370564137794	0
2	10783	1023543.310642580811	1
2	10788	1023637.948885665764	0
2	10826	1028653.187036990273	1
[...]
7	6163	604152.722062268093	3
7	6171	605046.517978977617	4
7	6176	605582.511439630764	3
7	6180	605937.366670204142	4
7	6184	606189.833699286993	3
7	6188	606817.619788827043	4
7	6198	607288.050853495651	3
7	6226	608911.643178490184	2
7	6229	609095.595732842307	1
7	6233	609111.761633068941	2
7	6241	610079.219922516484	3
7	6249	610702.757547193276	2
7	6253	611006.403102681322	3
7	6265	612038.972915363887	4
7	6269	612621.27721190342	3
7	6273	612824.405785571722	4
7	6282	613736.425185212162	5
7	6289	614520.954797755993	4
7	6292	614534.710441490989	3
7	6296	614550.092643365052	4
7	6305	615460.367279429871	5
7	6312	615935.286183586592	4
7	6316	616418.767818452278	5
7	6320	616433.465412854167	4
7	6325	617148.124352227703	5
7	6329	617184.69856729784	4
7	6332	617906.408096877328	3
7	6336	618061.590227283257	4
7	6366	619746.989769752863	3
7	6374	620151.226986761045	2
7	6388	620663.238411778928	1
7	6401	621188.331590723448	0
7	6419	622768.438808129532	1
7	6438	624227.817034791441	2
7	6451	625692.723916998918	3
7	6454	626224.609843778548	2
7	6472	627594.933820341302	3
7	6476	628503.24856270813	2
7	6480	628608.834816710905	3
7	6488	629340.202997695319	2
7	6497	631223.882062615632	1
7	6514	632357.782072886621	2
7	6519	632580.814546218907	1
7	6523	633181.719019239875	2
7	6537	634278.627358842297	3
7	6539	635877.773170165431	2
7	6548	636644.037642849095	1
7	6557	638392.70325483089	0
7	6575	639848.351988567601	1
7	6586	640735.281195039981	2
7	6595	641526.090997880781	3
7	6606	642550.690002761001	4
7	6612	643359.872321796021	5
7	6616	643390.626413890725	4
7	6620	644206.38802689055	5
7	6624	644445.74724615084	4
7	6628	644813.839054422192	3
7	6632	645193.838892188459	4
7	6652	645863.297904874369	3
7	6657	646530.872153360981	4
7	6664	647072.427899781065	3
7	6668	647274.667401904843	4
7	6673	648160.007967644225	3
7	6677	648240.488038457843	4
7	6681	648380.029338769449	3
7	6703	649045.010723326107	2
7	6707	649659.873138108873	3
7	6713	650593.494685577302	4
7	6717	650787.305585540957	3
7	6727	651372.117811332781	4
7	6732	652289.892313344563	3
7	6736	652436.241790116952	4
7	6742	653365.305764185184	5
7	6746	653516.443767368092	4
7	6754	653836.333483393825	3
7	6781	655125.231681131057	2
7	6787	655608.431334712862	1
7	6791	655744.753207810296	2
7	6797	656805.551750937112	3
7	6801	657036.376101379617	2
7	6828	658703.613648946312	1
7	6835	658912.549140218653	2
7	6852	659910.182534837611	3
7	6857	660178.635010195331	2
7	6864	660885.878286250712	3
7	6872	661666.701465027136	4
7	6880	662444.731045113746	3
7	6884	662533.493715458589	4
7	6888	663329.134380243356	3
7	6892	663343.901461632259	4
7	6897	664105.691965319473	3
7	6901	664185.852113308883	4
7	6906	665024.29324423038	5
7	6910	665103.607460793666	4
7	6917	665667.446623078408	3
7	6924	665917.069382909263	4
7	6929	666729.220595136338	5
7	6933	666824.162872952655	4
7	6938	667559.604918095725	5
7	6945	667838.371150944064	4
7	6955	668662.80515982751	5
7	6962	668962.260613490231	4
7	6974	670010.831684455751	5
7	6978	670085.495361721081	4
7	6981	670118.606541788533	3
7	6986	670993.665898572094	4
7	6990	671051.933841198857	3
7	7014	672251.439346841429	2
7	7053	674257.462290229718	1
7	7061	674564.357355442555	0
7	7084	676283.350660901635	1
7	7101	677448.468881440715	2
7	7106	678330.730125325221	3
7	7114	680143.514834902559	2
7	7121	680679.507558729663	1
7	7128	680880.157012611974	2
7	7136	681707.600108432293	3
7	7140	682020.086249541608	2
7	7145	682508.802858026517	3
7	7150	683355.214063115826	4
7	7173	684743.476651304792	3
7	7176	685251.790892890166	2
7	7180	685577.613158993961	3
7	7190	685971.483557509469	2
7	7201	686896.091768865949	1
7	7216	688129.811129785814	2
7	7219	689663.224123871	1
7	7233	690763.597354077138	2
7	7236	690998.416455342169	1
7	7252	694431.685788227321	2
7	7254	694770.941227827696	1
7	7269	697956.464655364669	0
7	7273	698475.19907393555	1
7	7288	701857.106291496688	2
7	7290	701958.790311823385	1
7	7305	703093.305052618876	2
7	7316	704230.627507280649	3
7	7322	704971.668536527517	4
7	7332	705755.342366816485	3
7	7336	706229.613120248453	4
7	7341	706288.205025140068	3
7	7345	707031.019038369169	4
7	7357	707773.328442124326	3
7	7366	709051.5429023275	2
7	7375	710244.571510489333	1
7	7391	710763.585000828812	0
7	7396	711520.916147510136	1
7	7401	712326.481477355765	2
7	7415	715198.42463753567	1
7	7418	715861.517220695906	0
7	7422	715974.25777912092	1
7	7436	719536.608531000354	0
7	7454	721611.995516532056	1
7	7460	722498.306572147487	2
7	7472	724430.603851087891	3
7	7478	725313.747726856106	4
7	7480	725397.011343194077	3
7	7488	726147.009937666452	2
7	7509	727778.411641645585	3
7	7513	728246.391582638227	2
7	7518	728568.217156426153	3
7	7525	728932.841027635229	2
7	7529	729473.231422097137	3
7	7535	730284.924995351635	4
7	7552	731887.023753360289	3
7	7556	732125.664543715616	2
7	7560	732330.648548981638	3
7	7569	732755.519411619671	2
7	7580	733151.259069447039	1
7	7596	736384.353986834148	2
7	7598	736588.34240546978	1
7	7617	738914.511302378003	2
7	7625	739966.24064536629	3
7	7629	740012.407930476322	2
7	7634	740795.438202731592	3
7	7650	742584.474605708982	2
7	7654	743325.168639241647	3
7	7661	743568.470342540806	2
7	7664	743942.751665259858	1
7	7669	744297.040140943991	2
7	7680	745226.637953680259	3
7	7686	746150.4328805346	4
7	7694	747066.031488738626	5
7	7698	747359.002457957798	4
7	7702	747592.580597341105	3
7	7706	747842.42297257426	4
7	7721	748612.720280435907	3
7	7729	749147.424393377573	4
7	7734	750061.573635760713	5
7	7738	750170.509486536306	4
7	7746	750931.028697024716	5
7	7750	751123.243089216648	4
7	7753	751532.16722985004	3
7	7757	751874.344542048939	4
7	7770	752914.55006183663	3
7	7774	753057.807771982805	4
7	7788	753869.584831948674	3
7	7816	755093.206243528864	2
7	7820	755333.263592305645	3
7	7824	755912.58324403774	2
7	7829	756287.275880603928	3
7	7833	756818.30266756941	2
7	7837	757224.373816880625	3
7	7867	758894.312294878699	2
7	7884	760414.283503497409	1
7	7897	760959.421144258357	0
7	7902	761596.347542067782	1
7	7919	763967.867082852536	2
7	7925	764803.912820559006	3
7	7935	765611.320725180681	2
7	7939	766140.856414999781	3
7	7948	767029.162277506981	4
7	7952	767285.525873766694	3
7	7959	767868.075289032282	4
7	7970	768566.627419269348	3
7	7974	768788.679151172487	4
7	7979	769645.936239474887	5
7	7984	769825.265636594053	4
7	7990	770745.961578858139	3
7	7994	770765.049529143485	4
7	8002	771484.5180151198	3
7	8006	771590.652514645351	4
7	8011	772470.553436857788	5
7	8015	772534.962033112642	4
7	8034	773461.693020243158	3
7	8050	774131.656847244161	2
7	8055	774931.686515048313	3
7	8069	775562.682911489238	2
7	8077	775809.504851176151	1
7	8103	777434.778084047501	2
7	8112	778380.645379002008	3
7	8116	778607.781032662108	2
7	8120	779257.687969647836	3
7	8140	780247.322998619416	4
7	8144	780791.802715928239	3
7	8148	781239.064389523979	4
7	8152	781650.02212371865	3
7	8157	782321.610156064307	4
7	8161	782580.011448418049	3
7	8179	783913.891223566812	4
7	8183	784124.026949074438	3
7	8195	785091.847391979939	4
7	8200	785337.502013699099	3
7	8211	785856.725222107751	2
7	8229	787208.806969061786	3
7	8233	787233.370245236322	2
7	8240	788076.758364656674	3
7	8246	788957.555422154908	4
7	8250	789137.851573446568	3
7	8267	790888.738260340611	2
7	8271	791426.600634448592	3
7	8275	791514.067010638787	2
7	8283	791932.191284932668	1
7	8296	794609.317673386441	0
7	8311	796203.859914493491	1
7	8329	798098.393407609239	2
7	8335	799053.482766562214	3
7	8340	800029.615084029972	4
7	8347	800201.366708436607	3
7	8352	800965.290126744087	4
7	8359	801753.52862159737	3
7	8363	801796.162055746229	4
7	8372	802644.952161240099	5
7	8376	802920.015732759777	4
7	8379	803327.464316049613	3
7	8383	803529.772831305269	4
7	8401	804145.735100886459	3
7	8405	805099.170975902944	4
7	8423	805815.064577421776	3
7	8434	806725.00227458868	2
7	8438	806769.031813397734	3
7	8442	806985.828630025897	2
7	8450	807546.268469780229	3
7	8455	808526.792857537193	4
7	8471	809260.375518472788	3
7	8475	809633.515371559025	4
7	8486	810590.242398434326	5
7	8490	810709.161953782433	4
7	8501	811524.090428518245	5
7	8505	811922.751395056941	4
7	8508	812036.4706973764	3
7	8512	812348.137516816846	4
7	8517	813171.07586655311	3
7	8521	813303.940010100364	4
7	8525	814169.784432367725	3
7	8530	814505.311036241429	4
7	8534	814762.406882851931	3
7	8557	815870.571508698234	2
7	8586	817245.2842526249	1
7	8594	817687.653996486666	0
7	8616	820014.313043635915	1
7	8621	820837.104506464399	2
7	8625	823329.922523833628	1
7	8634	824663.23935524084	0
7	8649	826799.271841935482	1
7	8653	830189.021431264608	0
7	8671	831796.739945804407	1
7	8679	832727.736016805351	2
7	8688	833787.338835987929	3
7	8693	834684.057754768457	4
7	8696	834995.091195457219	3
7	8709	836057.276749925045	2
7	8716	836415.030822354405	3
7	8725	837333.798303760198	4
7	8729	837472.786432569914	3
7	8732	838133.959288898266	2
7	8737	838281.944209252463	3
7	8758	839834.695267315082	4
7	8762	839882.884119052194	3
7	8766	840010.953649888092	2
7	8770	840833.188302928744	3
7	8788	841978.947632403433	2
7	8802	843126.122814525749	3
7	8810	843670.507705608984	2
7	8813	844283.417592457836	1
7	8817	844604.196081633222	2
7	8831	845858.280766791807	3
7	8838	846587.013362968458	2
7	8852	848484.197018882993	1
7	8857	848744.25097865081	2
7	8864	849192.462437116147	1
7	8878	850154.223586757206	2
7	8887	851563.88945012056	3
7	8889	851866.953347684624	2
7	8904	853984.113467815481	1
7	8911	854498.300161316384	2
7	8918	855323.761643549492	1
7	8923	855487.513631687101	2
7	8934	856383.866890229199	3
7	8940	857272.066663642264	4
7	8954	858015.589653117315	5
7	8958	858041.123599165204	4
7	8961	858339.033575501191	3
7	8966	858930.547727992456	4
7	8971	859755.140992872431	5
7	8978	860090.497201956384	4
7	8984	860396.252005477553	3
7	8992	860629.019224179049	4
7	8996	861104.913565982287	3
7	9003	861530.59653380085	4
7	9007	862039.598383138207	3
7	9012	862622.370960724029	4
7	9019	863114.795734891071	3
7	9023	863526.479505099984	4
7	9032	864227.485739415113	5
7	9042	864415.265245573657	4
7	9045	865090.312733611642	3
7	9049	865115.622775139059	4
7	9055	865940.247979948292	5
7	9059	866335.436070293246	4
7	9063	866822.857893168306	5
7	9070	867172.258925453491	4
7	9078	867554.612671124963	5
7	9082	867791.759955855137	4
7	9086	868357.164104599487	5
7	9090	869023.383004077828	4
7	9094	869191.244771508842	3
7	9098	869332.268404211971	4
7	9117	870493.696480798545	3
7	9120	870521.487788375133	2
7	9139	871446.118139204035	1
7	9168	872779.287715616883	0
7	9207	875090.395415081279	1
7	9213	876003.964280235307	2
7	9218	876843.472864283418	3
7	9243	878347.618316207403	4
7	9247	879125.766552751024	3
7	9251	879201.293887393624	4
7	9256	879616.36828576995	3
7	9260	880081.302906439604	4
7	9264	880119.127644554346	3
7	9291	881615.154883187955	2
7	9299	882780.327742579894	1
7	9308	883461.270185004983	0
7	9329	884690.418756304004	1
7	9334	885595.817166254215	2
7	9340	886597.177758223629	3
7	9352	888051.565436151862	4
7	9356	888516.266500296808	3
7	9359	888525.891304480799	2
7	9363	888992.477511757902	3
7	9376	890495.993727389349	2
7	9396	891574.472082785562	1
7	9400	891621.399693525446	2
7	9405	892576.583898054695	3
7	9409	892825.805849893841	2
7	9417	893379.505856400362	3
7	9425	894339.896948078685	4
7	9434	895166.466618100822	5
7	9441	895668.267626472224	4
7	9444	895681.082215915265	3
7	9448	896100.377637000869	4
7	9454	896992.247519026645	5
7	9458	897007.764590794622	4
7	9469	897796.032696242954	3
7	9473	898084.421792363913	4
7	9488	898747.314238031864	3
7	9496	898990.466607486598	2
7	9512	900148.171843904402	3
7	9519	900653.841321958008	2
7	9523	901038.075158855758	3
7	9528	901960.667202754328	2
7	9532	902021.237253492128	3
7	9559	903950.150683320717	4
7	9563	903950.318479271963	3
7	9566	904573.091870780069	2
7	9570	904718.018523383538	3
7	9590	905526.030287860601	2
7	9601	906572.946579013834	1
7	9610	908292.109983202769	0
7	9625	909757.967441980094	1
7	9634	911882.000923700952	2
7	9643	913462.010292613097	3
7	9651	913799.014622861506	2
7	9655	914288.522624305984	3
7	9663	915424.876866998082	2
7	9677	916650.799300887502	3
7	9685	917526.06253744392	2
7	9689	917529.674638243558	3
7	9696	918443.383194659833	2
7	9713	920336.17599993486	1
7	9717	920502.207723933954	2
7	9725	921293.410315796854	1
7	9729	921335.182529184005	2
7	9737	922269.002801275205	3
7	9743	923128.016418966832	4
7	9756	924411.960372693956	3
7	9761	924608.827012363852	2
7	9779	925919.989692014751	3
7	9781	926063.812287581731	2
7	9789	926708.184024373419	1
7	9804	928845.347547380333	2
7	9807	929843.464604761829	1
7	9825	931225.928698893681	2
7	9830	931947.036142300367	3
7	9832	932286.284930596884	2
7	9847	934236.447291036923	3
7	9850	935173.790650760135	2
7	9858	935594.454627202286	1
7	9868	937720.518402393983	0
7	9885	938793.739317468787	1
7	9891	939744.457057275258	2
7	9900	941365.25340054331	3
7	9902	942446.013779444478	2
7	9917	943956.530296125049	3
7	9919	944455.454110415076	2
7	9928	944688.294952463253	1
7	9940	945601.626488566078	2
7	9949	946409.144894617848	3
7	9954	947332.169332374242	4
7	9958	947334.701327074152	3
7	9979	948438.746542693759	2
7	9983	948509.757723168589	3
7	9988	949340.481037818032	4
7	9997	950240.997173588148	5
7	10001	950258.860563108476	4
7	10004	950809.975010574212	3
7	10011	951247.946670935549	4
7	10016	951925.550766577871	3
7	10020	952299.918242601133	4
7	10024	952809.765167752098	3
7	10029	953352.884724102282	4
7	10038	953790.789915355245	3
7	10067	955363.542594375795	2
7	10083	956516.762576497272	1
7	10087	956657.335175496704	0
7	10094	957397.203267033856	1
7	10100	958337.069314154964	2
7	10119	960671.129135060489	3
7	10121	960838.161868921392	2
7	10129	961557.336814472194	1
7	10144	962870.70578965655	2
7	10156	963812.058055930115	3
7	10164	964613.91949656069	4
7	10168	964853.306056029978	3
7	10176	965546.632646226402	4
7	10181	966380.776761437519	5
7	10185	966557.751907015498	4
7	10197	967031.824928927316	3
7	10205	967790.110703202974	2
7	10222	969112.586613588196	1
7	10226	969426.545353500118	2
7	10230	969775.264870161954	1
7	10237	970219.597879255539	2
7	10246	971143.590727759202	3
7	10251	971889.575217361688	4
7	10265	973041.109949156556	5
7	10273	973819.07697505413	4
7	10278	973928.746338977399	3
7	10294	974562.520329285855	2
7	10301	975375.184611218053	3
7	10306	975720.704498507731	2
7	10313	976374.053334893071	3
7	10317	976613.037993375351	2
7	10325	977260.687737974692	3
7	10330	978028.503898839445	4
7	10348	978897.123708941301	3
7	10356	979504.362732601723	2
7	10360	979956.977483093461	3
7	10378	980826.882893418417	2
7	10381	981026.573924984444	1
7	10385	981766.027711811653	2
7	10407	983882.687210900258	3
7	10411	983978.87768655814	2
7	10415	984554.704180022256	1
7	10419	984657.913665587672	2
7	10437	987187.183921041445	1
7	10442	987658.140286937533	2
7	10454	988415.942735170078	1
7	10461	988817.355512483473	2
7	10467	989663.897199744295	3
7	10480	991553.229457382006	2
7	10484	991998.65399347807	3
7	10492	992760.466704708834	2
7	10500	993533.052519319948	1
7	10515	994770.314904408294	2
7	10517	994922.086504166245	1
7	10532	997252.833939670456	2
7	10535	998041.955881247524	1
7	10550	1000670.129409024806	2
7	10553	1001216.531248058002	1
7	10567	1002571.308539975843	2
7	10570	1004161.28625282704	1
7	10585	1005436.740901400849	2
7	10587	1006157.00719830397	1
7	10597	1008725.107467571014	0
7	10618	1009948.019905858918	1
7	10626	1010838.697883558945	2
7	10635	1011641.554738516299	3
7	10643	1012566.360656576176	4
7	10648	1013455.035761051029	3
7	10652	1013517.078046080413	4
7	10657	1014496.129412644858	5
7	10661	1014647.962657412218	4
7	10664	1014764.232244701633	3
7	10681	1015510.970677754925	2
7	10699	1016942.980750185016	3
7	10703	1016965.087713114652	2
7	10710	1017760.519707495392	3
7	10717	1018121.800360054341	2
7	10722	1018630.458072772338	3
7	10730	1019538.874497293089	4
7	10736	1020394.286517823698	5
7	10748	1020996.728754811345	4
7	10753	1021051.24428833442	3
7	10770	1022503.094482432013	2
7	10773	1022921.063486089105	1
7	10777	1023376.877839315387	2
7	10790	1023705.909951770237	1
7	10794	1024537.189681581329	2
7	10808	1027542.382388987549	1
7	10813	1027823.183409385345	0
7	10834	1029566.845672324331	1
7	10840	1030284.716149658156	2
7	10848	1031151.773603234262	3
7	10857	1032072.816375545581	4
7	10867	1032757.696613565479	3
7	10871	1032855.350676126182	4
7	10878	1033241.944801284434	3
7	10885	1033636.975685596466	4
7	10893	1034030.200266974175	3
7	10900	1034605.518709142434	4
7	10909	1035415.304288528726	5
7	10913	1036206.062722006408	4
7	10917	1036519.688530991444	5
7	10921	1036741.098865184468	4
7	10928	1037181.540306901192	3
7	10932	1037502.995993781079	4
7	10936	1038186.572471408044	3
7	10939	1038361.339186070176	2
7	10943	1038373.980254314822	3
7	10949	1039225.040662012613	4
7	10966	1039869.33072329294	3
7	10976	1041152.378284459124	4
7	10980	1041248.584503642035	3
7	10998	1042256.596859261127	2
7	11010	1042517.023771674085	1
7	11014	1043159.678060163566	2
7	11039	1044422.132931263314	1
7	11057	1045942.740512672766	2
7	11059	1046170.73659968863	1
7	11069	1049141.578231941675	0
7	11084	1050851.982137274299	1
7	11093	1054147.092146753831	2
7	11096	1054756.48449557322	1
7	11111	1056721.835570268109	2
7	11120	1058154.094755360832	3
7	11122	1058208.788682633481	2
7	11136	1059761.416714390155	1
7	11143	1060070.463289033986	2
7	11151	1060903.473143209108	3
7	11156	1061621.209361028216	2
7	11160	1061774.775647544802	3
7	11180	1063061.558518625302	4
7	11184	1063256.447052655316	3
7	11194	1063871.45327808004	4
7	11203	1064665.198361667477	5
7	11207	1064760.167884718908	4
7	11210	1064780.595245741378	3
7	11214	1065493.978652648563	4
7	11223	1066403.505107018304	5
7	11227	1066624.859318568642	4
7	11233	1067093.444816759112	3
7	11237	1067341.848969272538	4
7	11246	1068277.459296223463	5
7	11250	1068368.535642640403	4
7	11260	1069048.787262001854	5
7	11264	1069520.14849943672	4
7	11269	1069949.503539124872	5
7	11273	1069953.677542577351	4
7	11279	1070549.38465704775	3
7	11283	1070877.727860396592	4
7	11289	1071781.470585864437	5
7	11293	1072389.463394502103	4
7	11296	1072451.507127147373	3
7	11303	1072568.702059761221	4
7	11307	1072951.362357817049	3
7	11312	1073378.213945133759	4
7	11336	1074678.606101240145	3
7	11355	1075493.054103979892	2
7	11373	1076545.356243171789	1
7	11377	1076604.485408895229	0
7	11415	1079049.976854231344	1
7	11429	1080218.190883122301	2
7	11437	1082528.118008393529	1
7	11444	1083017.090435909811	2
7	11449	1083614.067732680114	1
7	11453	1084079.154294652355	2
7	11475	1085919.810646926964	3
7	11479	1086840.124704398162	2
7	11484	1086880.480965334431	3
7	11496	1087606.188017822561	2
7	11500	1088040.899019082914	3
7	11508	1089730.312047636586	2
7	11513	1089769.926637953051	1
7	11526	1090806.470101115749	2
7	11533	1091573.354001930118	1
7	11543	1095163.784519982114	0
7	11567	1096355.701245141238	1
7	11576	1097180.548398346808	2
7	11581	1098188.050374504913	3
7	11590	1099191.148278564046	4
7	11594	1099657.927866084975	3
7	11598	1099977.21589507617	4
7	11604	1100806.126817447403	5
7	11608	1100916.836018140183	4
7	11620	1102344.281257907871	3
7	11625	1102370.594276240329	2
7	11642	1103435.597586823749	1
7	11646	1103518.171479241694	2
7	11654	1104296.403404764869	1
7	11658	1104433.011994694058	2
7	11663	1105347.759222287214	3
7	11672	1106183.555802578553	4
7	11683	1107081.126795097603	5
7	11690	1107404.657986076125	4
7	11694	1107962.091257190952	3
7	11698	1107979.003191030659	4
7	11702	1108325.152436122923	3
7	11706	1108773.518353525144	4
7	11712	1109638.73965924768	5
7	11721	1109955.646624144729	4
7	11739	1110797.988710652139	3
7	11753	1111641.186632389653	2
7	11766	1112150.008244034694	1
7	11783	1113175.950020499469	0
7	11787	1113831.358443661519	1
7	11805	1116068.033495114954	2
7	11813	1117004.231516541612	3
7	11820	1117662.180615469737	2
7	11825	1117934.52253746839	3
7	11830	1118924.230402696133	4
7	11838	1119993.201910677943	3
7	11854	1120560.709039279383	2
7	11858	1121124.243165644025	3
7	11863	1121614.743855749255	2
7	11867	1121864.063820738911	3
7	11876	1122248.905750184013	2
