version 2
run ParkingMeasurement-33-20170108-17:28:02-4286
attr configname ParkingMeasurement
attr datetime 20170108-17:28:02
attr experiment ParkingMeasurement
attr inifile parkingStudy.ini
attr iterationvars ""
attr iterationvars2 $repetition=33
attr measurement ""
attr network controltower.SimNetwork
attr processid 4286
attr repetition 33
attr replication #33
attr resultdir results
attr runnumber 33
attr seedset 33
param SimNetwork.a.parkingLot.parkingDelay "truncnormal(60min, 6min)"
param SimNetwork.a.runway.landingTime "truncnormal(15min, 1.5min)"
param SimNetwork.a.runway.takeoffTime "truncnormal(5min, 0.5min)"
param SimNetwork.a.runway.throughputCheckInterval 28.571min
param SimNetwork.wg.interArrivalTime exponential(28.571min)

vector 5  SimNetwork.a.runway  landedThroughput:vector  ETV
attr source  landedThroughputSignal
vector 6  SimNetwork.a.runway  tookoffThroughput:vector  ETV
attr source  tookoffThroughputSignal
vector 2  SimNetwork.a.landingQueue  queueLength:vector  ETV
attr source  queueLengthSignal
vector 1  SimNetwork.a.landingQueue  queueTime:vector  ETV
attr source  queueTimeSignal
vector 7  SimNetwork.a.parkingLot  parkingOccupancy:vector  ETV
attr source  parkingOccupancy
vector 4  SimNetwork.a.takeoffQueue  queueLength:vector  ETV
attr source  queueLengthSignal
vector 3  SimNetwork.a.takeoffQueue  queueTime:vector  ETV
attr source  queueTimeSignal
vector 0  SimNetwork.wg  responseTime:vector  ETV
attr source  responseTimeSignal
0	1728	203477.321613535846	7992.2807779388
0	1733	203783.915914384761	6720.9115236586
0	1743	206077.67642484623	8745.3235766621
0	1751	207005.015910192438	5599.4200260439
0	1787	212915.932506974627	10862.808659989
0	1795	213853.446272084929	6113.7253396863
0	1804	214925.499358999434	5428.2259797019
0	1855	220895.984925068057	10944.675977404
0	1864	222147.967352083343	6051.9714840585
0	1873	223159.559586210591	6280.3260708323
0	1881	223522.64079372986	6557.9931519808
0	1898	224900.18409614912	6931.8589731705
0	1908	229298.597094847796	9797.3463088266
0	1952	235364.865986771717	11596.255811593
0	1961	237049.873627055706	6184.7762372002
0	1992	239334.729737965541	7383.5290723105
0	2003	240532.259137914345	7768.5020089663
0	2012	242635.164564384728	8460.3418118929
0	2035	243926.925229319441	6220.0957426034
0	2046	245211.8641463048	7989.5153869069
0	2063	247944.493447669009	8850.6237137551
0	2080	249231.411881239541	6548.7091889278
0	2097	250911.722041928179	7258.2213039576
0	2106	253166.372074967798	7030.7349672005
0	2123	255008.481153780759	6996.2790955063
0	2177	260469.57012713354	10739.098111439
0	2186	260773.246013467807	7070.6869270122
0	2191	261057.882381957992	5569.4271149337
0	2200	262459.836901664153	5028.9962784748
0	2208	263052.004223623061	6419.324472964
0	2217	264392.649863899263	6794.2392658512
0	2398	285369.501405244961	26783.9156776
0	2403	285648.619803398906	17468.588265074
0	2408	285962.881926143242	14240.448953122
0	2413	286277.651553380576	14443.741689741
0	2419	286588.96526897507	14451.248027729
0	2427	286793.425345915057	14560.976683129
0	2435	287127.87245944064	13915.487601303
0	2455	288274.468086828442	13940.89548678
0	2460	288627.825057796726	13232.71482501
0	2465	288928.059384067714	13182.082912935
0	2470	289237.076962135745	13181.671749255
0	2475	289504.104542961357	12429.389086018
0	2481	289798.043390833843	12480.372563952
0	2489	290140.888294605725	10976.926836809
0	2499	291331.662264258489	11936.081439995
0	2508	291660.042946373933	10730.134991387
0	2513	291985.548141802871	9023.9629946142
0	2542	295312.892954632005	8456.2736633006
0	2587	299238.62696986359	9194.0917473856
0	2601	300176.576746908543	6990.4042396333
0	2606	300441.732862761028	6370.4193469623
0	2637	302648.1698534171	7576.3976549777
0	2651	303720.344782563125	8267.9652614292
0	2659	304044.251971673818	7435.7109234402
0	2664	304351.242468800611	7218.9369648302
0	2673	305430.472985253044	6528.3789907778
0	2681	306126.220808698518	5570.0900057679
0	2690	307155.927671052146	5804.2256339082
0	2717	313079.104364084725	10734.642417134
0	2725	313591.620981591703	5658.8832436023
0	2785	322849.019027959098	13858.835967151
0	2805	324048.561411369134	7011.5746559874
0	2815	325248.232665958422	7529.8733203519
0	2823	325571.424482968995	7288.9681871729
0	2837	326575.729481655824	7067.2774041359
0	2845	327387.495150386987	5917.1791850394
0	2857	328427.559490935047	5789.5521971626
0	2888	331562.557848953734	7702.5998550428
0	2911	333928.393940976314	8542.3509492985
0	2968	338979.553647220694	10705.919771771
0	2973	339261.947456124686	10740.259984699
0	2982	339518.113370525415	9664.9004346921
0	2995	340814.085112099965	7872.939871354
0	3004	341163.469079601595	7391.1895338201
0	3098	348810.557477274174	14141.670707727
0	3103	349114.444452293817	13470.57814548
0	3108	349415.120062673168	12635.388166585
0	3117	349711.087049791609	12352.847317766
0	3150	352319.45006802644	12813.590215982
0	3158	352667.231830801091	11199.278095163
0	3163	352960.941658838182	11971.311750616
0	3169	353292.408746783092	11296.41967533
0	3174	353543.906481082886	11269.668557105
0	3179	353862.556316117183	11236.966099473
0	3187	354145.214166552402	10914.261204859
0	3192	354446.714775473308	9101.3591286024
0	3197	354767.037263686979	9391.7097182039
0	3206	355130.982763656253	5517.361787513
0	3214	355941.081023956477	6087.2611197331
0	3243	367178.525901107171	16558.24395428
0	3272	372964.222320130684	10947.69093376
0	3280	373691.924935615478	6890.9835631372
0	3290	376598.875807272426	9704.7570118309
0	3335	384491.889987573596	12741.859675711
0	3343	384866.172868399918	4913.7629570134
0	3352	386761.990159941806	6335.7521367688
0	3369	388653.833208262794	7893.9910931316
0	3387	392154.219415533975	11222.256359086
0	3480	401405.465200273345	14104.464343833
0	3525	405043.311550796229	14823.719393521
0	3533	405366.869001476644	11602.900197884
0	3541	405702.154365210957	11100.733628278
0	3575	407775.296074671233	12956.396706047
0	3638	413421.423148997292	18584.912414129
0	3643	413692.302957292828	16537.507885761
0	3651	413979.045718881099	18159.780899786
0	3659	414267.823662223645	16766.66961543
0	3664	414581.794629960245	16138.596637112
0	3670	414888.090800462508	13280.998764064
0	3675	415179.132908900464	13831.569319173
0	3686	415502.792587105598	12938.097273721
0	3700	416610.760283993818	13978.484751849
0	3708	416880.505398430489	11324.130179936
0	3713	417166.107824143793	10889.806632341
0	3718	417473.218970735106	9928.5125548221
0	3723	417768.025966159644	10180.611287808
0	3731	418093.464310120809	10226.685378992
0	3757	420502.01703042141	11759.538634127
0	3799	424552.805789953446	13811.05129064
0	3804	424875.611177090807	13835.055217073
0	3810	425150.339251582057	9760.4862829408
0	3818	425430.857668848797	7398.2595622878
0	3823	425751.960728499658	7251.5654826864
0	3831	426033.475232724417	5771.4192363378
0	3851	427991.113124595109	6924.6170813955
0	3856	428308.482933871696	7090.1622828407
0	3866	431848.919346466974	9330.1087795702
0	3995	443334.401485225766	16560.623256788
0	4006	443634.512899978375	11300.601086701
0	4035	445849.734951283505	13122.370382668
0	4040	446121.678963057204	13391.374810487
0	4045	446450.46959516564	12630.983599734
0	4050	446777.606797257229	12779.029061878
0	4058	447061.130291278817	12252.977092192
0	4063	447403.619622994761	11749.861520073
0	4069	447736.308097138715	11084.977442614
0	4074	448011.284221693997	10951.339464285
0	4082	448309.860561200993	10966.940969722
0	4087	448589.522109843447	10005.141979558
0	4092	448862.689860725908	7091.3761483347
0	4101	449270.769055695689	5818.104799293
0	4137	456349.601361593937	11961.456924911
0	4145	457181.423054059867	5223.9149168577
0	4154	458484.737498604184	6417.4761511444
0	4230	468008.172398548503	13609.047352237
0	4235	468330.095539619982	8364.4483319509
0	4243	468633.760206717037	8234.929224716
0	4248	468937.964410583323	4834.1181199064
0	4256	469409.556510998787	8630.7391037418
0	4280	471445.595298377121	7321.9920590003
0	4290	472575.591926155045	7973.1675047332
0	4314	474949.243499420126	9128.8905151113
0	4327	476037.789565986311	5738.012391544
0	4381	480600.580106039654	9299.1956806336
0	4389	480945.640494537765	8162.4479984195
0	4403	482084.395177283333	7254.6492099682
0	4414	482376.891222923921	6507.1960295716
0	4419	482628.283643406799	6467.4520875799
0	4424	482917.923894969596	6186.920226597
0	4444	484905.172933279393	7131.9718821414
0	4458	486042.014683596406	6704.3840218821
0	4476	488827.86475776209	8024.4456747552
0	4484	489997.077888946408	6285.5497942478
0	4496	491413.687011298403	6594.5749561484
0	4569	500969.985702807788	13432.450158786
0	4574	501216.510979733044	9893.2894388275
0	4585	501580.755534789312	6575.8735198945
0	4610	503781.448335515006	8152.4455906356
0	4622	504053.102844888692	8273.267758642
0	4632	505291.729246775278	9356.4438095915
0	4640	505588.694087681129	9530.17159936
0	4646	505909.009336542959	9831.7873271399
0	4669	507441.292332735639	6167.2347012753
0	4699	510547.617774951962	8140.3019037702
0	4713	511783.035146001952	7895.9672262471
0	4728	512845.721777334569	6641.2077981395
0	4839	521878.8178755154	14553.021014316
0	4850	522185.660492708225	14856.101000073
0	4861	523160.86745590469	14707.161963363
0	4866	523489.144925788352	13054.630511566
0	4877	523810.910915996154	10967.938065318
0	4891	524855.61248859895	11822.264641577
0	4899	525176.277845357085	12054.180577213
0	4904	525466.616281627503	10788.634592912
0	4909	525835.151222446578	9678.3711785231
0	4914	526136.69692860618	9393.3795336929
0	4920	526472.460176405998	8455.1744092846
0	4928	526784.333146701226	8556.0384225362
0	4933	527036.720087696564	8555.8109368824
0	4938	527310.877771024381	7246.4838983477
0	4947	528827.80584180911	6646.8569022955
0	4998	533972.264593017556	10433.618350554
0	5006	534843.511157321074	5662.7824495589
0	5174	549017.293838592661	19356.187944678
0	5187	550147.306811289216	19288.006728565
0	5196	550455.233359198363	18588.715039497
0	5201	550754.562462076194	18258.093266713
0	5206	551108.343648654606	15606.896811777
0	5217	551406.596185962472	15710.446392291
0	5231	552560.888444908058	16133.753724584
0	5236	552819.722214225654	16083.185194541
0	5241	553190.000811697935	14460.007829787
0	5246	553501.024056724536	14651.405501706
0	5252	553800.574105246308	14050.688633451
0	5260	554102.399639013644	14263.289622824
0	5302	558270.042557562104	17092.557167498
0	5310	558611.083850946696	17133.914212007
0	5316	558873.528884483288	16095.679144066
0	5321	559211.335883654996	14439.832737644
0	5326	559524.983090943701	13424.185482536
0	5334	559801.368997840898	13417.464343264
0	5339	560111.205681063469	11362.898816986
0	5344	560382.663359666318	8980.6555498379
0	5350	560719.293901362932	6811.1579141068
0	5358	561020.761244205424	6807.1595968005
0	5366	561568.367352802296	5798.2772187938
0	5489	572382.137531836999	16357.826965807
0	5495	572724.603359402036	10780.325980866
0	5500	573035.2437830498	11087.330696923
0	5505	573335.882267239283	11135.600025948
0	5510	573597.577100900823	10921.386491701
0	5515	573892.569251780242	10816.330471894
0	5523	574212.355869118584	10474.50403706
0	5529	574468.520141379627	8334.7508763648
0	5540	574771.207331858151	8572.303343267
0	5625	582059.434468064727	13075.535854727
0	5636	582389.355605341756	13469.740917712
0	5664	584442.701307194685	13782.885429917
0	5675	585605.523001576245	10982.763306819
0	5683	585869.131528614491	10059.502546123
0	5691	586149.441061628788	11411.928895371
0	5702	587391.052994351637	11427.889996019
0	5713	587722.984327971888	11548.701740727
0	5733	588864.301235132233	11787.26093696
0	5747	590264.176656992819	13157.236382825
0	5752	590540.330633820524	12728.151699244
0	5757	590829.040291108293	8742.9930589551
0	5762	591100.506859962967	8938.3734942607
0	5767	591386.507221846598	7136.2190778983
0	5776	592099.733894673002	6158.3680736396
0	5810	595665.051044007718	8045.6668676516
0	5822	597525.912772417894	8753.6686560628
0	5839	598718.421955107726	6088.1383653545
0	5852	599941.557712648621	6411.3081350168
0	5862	602189.248338746154	8085.9168636225
0	5874	603425.435065305949	6006.225388998
0	5909	608883.675591683748	10445.403398707
0	5939	611807.707764656662	8500.6628356625
0	5948	612240.95929359256	7790.1355736594
0	5965	614150.555881621979	7495.8775007814
0	5973	614909.649882164859	6199.7256584656
0	5996	616298.650354015607	7208.7173198407
0	6027	619379.605921517776	9552.1988721067
0	6032	619670.852018307275	7121.2116940863
0	6049	621007.348391328527	6011.9808447325
0	6057	621997.495585816236	5877.8164893431
0	6066	622792.793843126561	6611.6227251478
0	6091	625075.695506095887	8750.5664834626
0	6117	627506.270449412476	7719.609551053
0	6125	628279.807283115594	5364.5797420799
0	6162	631831.07136652291	8112.4457782089
0	6167	632132.787920836977	6871.6471150275
0	6176	633442.608346069174	7154.1277608962
0	6193	635118.330673615186	6129.6687980989
0	6202	636066.806248604489	6500.4234187328
0	6236	640824.259959869665	10905.393258507
0	6246	642865.619920480652	8871.364007789
0	6254	643297.912578885055	5469.2490014293
0	6271	645373.765334866795	7489.8299185469
0	6297	649626.014316599501	10558.874308689
0	6309	651296.24050069014	7125.7413380752
0	6383	658006.478022791158	11445.56868551
0	6389	658276.035399328175	9955.3479908163
0	6397	658558.519533352592	7330.7931816419
0	6405	658868.088341676629	7028.4771305973
0	6419	660036.396812074629	7873.3274782439
0	6424	660360.465210177776	7246.4609859237
0	6432	661186.483588810456	7432.5617882813
0	6441	662258.885550560877	7604.1824123572
0	6450	663687.690541246228	7938.5223169582
0	6481	670549.858522676248	11954.039995614
0	6489	670828.110413942559	5282.1586321623
0	6633	684820.535283490493	19249.517420787
0	6644	685803.979710996629	15210.390118178
0	6649	686109.465159470735	13677.643573469
0	6657	686446.509692368792	11395.869965061
0	6662	686777.659212224371	11605.795823262
0	6670	687056.812210509794	11666.197762863
0	6675	687382.143428068956	11859.903022405
0	6687	687705.833710940176	9552.7684619673
0	6703	688916.551381276997	10247.848353272
0	6709	689188.108132945398	9186.6834977581
0	6714	689479.004670120035	9458.3780832996
0	6719	689861.952329510063	8938.000586006
0	6727	690176.439663103021	9135.6723618317
0	6758	693078.410520860256	10445.813380591
0	6763	693446.256356755664	8754.7512662534
0	6772	694393.929486783711	6975.3136938981
0	6781	696258.610521402423	6109.9366984717
0	6789	696790.14047856884	6425.0307063987
0	6834	705256.220158933289	14132.270674942
0	6883	709778.21310737467	8854.4221970545
0	6888	710051.016323288551	8805.4093859544
0	6893	710372.193615599676	8067.408495286
0	6904	710805.318061873293	8346.5587319067
0	6918	712298.373238144338	6581.8828533167
0	6926	712655.963173803257	6080.5325814914
0	6946	714036.620564514311	6530.2926920552
0	6980	716944.725723716151	9089.49448907
0	6985	717280.877556539457	6543.6890102017
0	6994	719156.346919540813	6406.2249864181
0	7005	719550.464145441825	4958.1781382637
0	7010	719859.293107009718	6103.8195761192
0	7045	725014.847518053595	9411.631945058
0	7054	726276.489036916768	5994.9664660682
0	7066	727946.558468610993	5826.6128293103
0	7149	737004.871143812446	13743.146769028
0	7155	737284.332738469363	9483.163327201
0	7169	737575.720551977537	7977.7747986748
0	7260	745012.292442994502	15118.008252492
0	7277	746203.655548693059	14096.11574827
0	7293	747397.069537552086	15284.133329532
0	7299	747723.2980619814	15346.06607494
0	7304	748006.597826803437	15594.414954984
0	7312	748276.455746432946	13019.145027919
0	7326	749475.87102805777	12049.484249671
0	7331	749803.759439798751	12263.332545164
0	7336	750113.516106992256	11017.793995001
0	7347	750362.667736621724	10402.573284873
0	7361	751563.322287970995	11070.693656226
0	7369	751867.58189055938	10880.204320728
0	7380	752948.071209070871	10400.32458111
0	7388	753255.68266760217	10364.276356388
0	7393	753541.846231004457	8676.3404485029
0	7398	753823.33813197241	7646.1688612052
0	7407	754714.147272830299	6443.7992679457
0	7416	756689.970182300797	6402.9802422515
0	7459	762439.386175947498	10865.924447892
0	7468	763502.944783566283	6158.5374249646
0	7479	764553.558843995314	6877.3193968502
0	7485	764843.95434773914	5963.7310146254
0	7516	772352.958342740736	12129.479545814
0	7547	775105.166160533378	7568.6878493039
0	7559	777922.077265496109	9606.5580149502
0	7564	778170.711875626444	6068.0457245588
0	7581	779362.20070679778	6825.4650065706
0	7599	783363.007534262	9711.7753731077
0	7662	790207.838186993114	11981.919398647
0	7671	790496.698692978062	8322.8259503015
0	7676	790825.499022147353	7295.3082801889
0	7684	791334.793941934083	5771.6377045762
0	7716	794183.404614331883	8319.3862043626
0	7721	794491.112507887104	8406.385562513
0	7726	794774.799628169247	8591.5014621422
0	7755	798126.719464751046	11600.311682883
0	7760	798433.123139011805	6294.9247514072
0	7789	801297.81264614672	8656.6639059064
0	7794	801577.819998279804	5703.7182095199
0	7811	803617.16566722055	7206.7142008073
0	7820	804838.285362381834	5366.0578579068
0	7829	806437.108710637917	6819.2477445392
0	7874	814767.155273174308	12973.498639394
0	7882	815846.531965263224	5805.3387826226
0	7891	816460.695731894871	5538.8385091641
0	7908	818896.659356939658	7568.0982903015
0	7943	823195.850664933193	9809.6045354195
0	7955	825167.566004182472	7494.2344370865
0	7960	825471.049161878111	6069.4550357322
0	7969	826464.880552571611	5480.4248744623
0	8023	832972.232944703368	11309.750445307
0	8032	833295.97505799871	6312.9361949247
0	8040	833619.273673068792	5738.3727932878
0	8062	835562.091609181366	6671.438068584
0	8079	837001.272023348746	6005.7981121578
0	8091	838872.377643473997	7693.7700051678
0	8096	839174.504473747855	5752.0508797451
0	8108	840088.20390461033	6175.3618557857
0	8143	845168.134220849522	9359.1658441861
0	8168	848451.736619614923	8431.0599265471
0	8174	848757.871348493526	5974.5059704327
0	8190	850048.068041430273	6900.9161954414
0	8199	851845.346725558413	6730.2062550332
0	8212	853940.334075102298	6718.7500723019
0	8272	860937.608862182663	12112.660278912
0	8280	861251.324132260426	7544.8291532231
0	8297	862462.568046272274	6958.7543268559
0	8313	863667.18504449535	6426.3600537062
0	8318	863949.3878624609	6291.6546579014
0	8327	864444.524250936596	6266.6167413684
0	8335	865618.940485903257	6642.4361091748
0	8352	867400.87820356345	6401.6650963542
0	8363	871046.546580532629	8808.7265322897
0	8402	878224.171147780016	12190.002989533
0	8416	879882.369630807117	7329.0194989722
0	8425	881667.624891734291	6505.8657006741
0	8459	885071.874363808203	7992.8918186195
0	8542	892351.250020080558	14195.253391379
0	8547	892682.917959850925	10638.489730911
0	8555	892966.10927137205	10080.347058923
0	8561	893292.110336713924	7616.8762167776
0	8566	893563.473515992986	10307.979233255
0	8571	893884.768606880495	7801.0113811634
0	8576	894151.442184907558	6970.8630785234
0	8584	894474.63582735646	7195.0340878599
0	8593	895267.488388562274	7664.0623494352
0	8601	895946.095541102604	6384.6983187482
0	8690	907233.611551414018	17466.218316829
0	8764	913878.565325614407	13495.341293345
0	8769	914185.220058450404	11747.58107389
0	8777	914469.0963076576	13197.894688573
0	8782	914753.939266192035	11829.446172008
0	8787	915107.860960025495	11956.358308028
0	8793	915433.96441925803	11758.566307397
0	8801	915698.240154403067	11270.70008993
0	8806	915979.951581550596	8934.1868734109
0	8814	916245.124092292887	9181.5651014739
0	8819	916561.587401664016	9435.2527102049
0	8824	916851.911458543365	7727.0899301381
0	8833	917187.033967546193	7999.8816020397
0	8838	917488.357258726221	6695.2136131084
0	8901	923998.067577702777	11411.448328665
0	8909	924324.161048757039	6159.2271328453
0	8914	924616.806071230115	5425.0624985125
0	8925	925331.99151629881	5925.1694172881
0	8942	927005.230933969775	6960.0698806439
0	8956	928204.899940778304	7643.4437119354
0	9001	932235.533422149297	10577.794200096
0	9010	932570.431328235543	7313.5835968284
0	9026	933633.00041589883	6786.4527022898
0	9031	933979.997544667316	5373.1656078038
0	9040	934831.361800173145	6007.6233715738
0	9048	935376.680094459355	6467.3632698821
0	9057	937091.49996610075	6623.4834283104
0	9101	943112.403121534037	10857.941963137
0	9110	944567.875417868705	6412.0397186369
0	9133	946596.089040611139	6852.7633658269
0	9143	947765.148906140225	7026.6033728115
0	9167	950087.715178411952	8257.1219363646
0	9186	952346.808914908584	6909.1477600356
0	9195	953712.80893777712	7346.2553940205
0	9212	955563.450702078295	7040.1038212439
0	9220	955968.855298000828	6117.0131369154
0	9246	959191.143732578415	8593.7668584057
0	9263	961392.249153940242	7003.4667884236
0	9272	962306.311142728628	5465.1362336969
0	9281	964359.149545524255	6651.1540802624
0	9345	973026.774588394874	13104.117707294
0	9350	973319.738697589401	6131.5041361977
0	9359	973715.947226022752	6124.1014102155
0	9367	974556.200619809535	6692.0274060895
0	9398	976826.458359859129	7091.5587574451
0	9460	982228.754150615604	12112.082635677
0	9469	982588.368791045765	11613.696877328
0	9477	982906.046652200836	8175.5114183754
0	9482	983196.38185864829	8271.4803808497
0	9487	983587.016468844804	6902.5002751261
0	9495	983924.135874373961	7068.6508949681
0	9501	984219.383092112709	5658.8553499526
0	9520	985591.134407339505	6554.3962977662
0	9526	985825.330270125726	6684.0450602397
0	9543	988563.424403515556	7568.3737947965
0	9586	993115.417776669407	8725.2286646803
0	9600	993996.362740309982	6476.5206036562
0	9643	998041.828354317148	9014.7586192636
0	9648	998319.122400977745	8547.1946410821
0	9653	998614.887560262203	8209.4112131207
0	9664	999128.97531486217	7290.1415896485
0	9686	1000900.131790614923	7138.9310192465
0	9698	1001217.654849965823	7295.3610953989
0	9703	1001530.157347718792	6088.5694355699
0	9760	1006688.913826505502	10401.918310815
0	9765	1006955.585041213899	8062.4174444344
0	9776	1007240.716091923295	7753.3406120036
0	9790	1008546.196843334318	6775.5479440644
0	9795	1008808.939028924152	7035.3839285179
0	9803	1009531.267011094887	7224.3091846847
0	10007	1025065.897608885051	22590.918524019
0	10056	1028925.396361373495	26093.056061636
0	10081	1031154.269727894372	23935.208614192
0	10086	1031464.001956815644	21919.036784384
0	10091	1031738.863523021462	21252.141381281
0	10100	1032030.457095502573	21509.382555683
0	10105	1032323.103182465837	21386.876324506
0	10110	1032629.569817113084	21222.701374721
0	10118	1032984.491534443283	21357.44738653
0	10163	1037038.071536373348	24919.015479147
0	10177	1038239.273809965586	25679.141875114
0	10185	1038547.087735539171	24597.761741016
0	10199	1039895.237476891015	24616.920862127
0	10210	1040213.389066709699	24615.558366618
0	10218	1040519.588686685599	24502.311128663
0	10229	1041578.494215437146	24572.694527872
0	10234	1041851.573824229832	23327.440468788
0	10242	1042152.723532931232	20891.997619724
0	10248	1042465.278672207753	21418.459005864
0	10253	1042744.337916755101	21064.547322261
0	10261	1043021.871299260052	18190.499996844
0	10266	1043325.405953208102	18447.174935184
0	10271	1043599.041785299383	18634.785100052
0	10279	1043852.331166281062	16537.335490043
0	10293	1045189.286765604335	16488.833768666
0	10301	1045494.151080680888	16677.899305118
0	10324	1047706.066769691857	14913.653877843
0	10337	1048928.491051396373	14771.667031138
0	10343	1049231.643935022235	15870.74541906
0	10348	1049586.799790165999	13912.535390795
0	10356	1049852.539794859857	13017.8226164
0	10361	1050175.687951725935	11924.118158579
0	10366	1050468.047417511912	10072.09859636
0	10371	1050778.563353457817	7013.6498907074
0	10380	1051399.231599199789	6162.1378293555
0	10397	1052964.356686976743	7311.2111529845
0	10431	1057365.406535002542	9826.8121378865
0	10440	1058785.43473369602	7056.2484341887
0	10449	1059485.748825693337	6162.6502781937
0	10465	1061037.818425490979	6555.8974659613
0	10500	1065839.29711283426	9527.4218867039
0	10509	1067416.41362236263	7601.7521999337
0	10518	1068046.860016704811	5140.4792640134
0	10638	1078411.294591620224	14816.133020732
0	10646	1078655.895243424742	14134.579094222
0	10651	1078971.006358302576	10500.725497805
0	10662	1079302.01564644144	10714.459508763
0	10690	1081458.54123855395	12682.8139003
0	10696	1081786.695479421639	11682.784047772
0	10701	1082123.633485875831	11487.544395781
0	10706	1082374.127289487635	11221.53465087
0	10711	1082709.174518572375	10484.74763769
0	10719	1082980.338138597813	9101.804095589
0	10733	1084203.709829815072	10303.177763248
0	10738	1084493.617358639091	8060.7107911756
0	10746	1084774.743169527858	7775.1759895905
0	10751	1085049.019979826953	6073.5647250432
0	10794	1089368.137227491341	10063.251699645
0	10802	1089921.14047934839	7121.4402998816
0	10811	1090657.659172074114	5077.4070337745
0	10840	1093788.893266683783	7713.7403717697
0	10848	1094125.111409664939	7195.529916771
0	10902	1098872.938243778839	10739.218324805
0	10910	1099184.962130782437	7405.7223216231
0	10926	1100313.370605640914	8033.9037963365
0	10943	1101394.708158190349	7302.5460797415
0	10948	1101692.513401321564	7036.991801855
0	10956	1101999.778066084071	7084.9257415401
0	10965	1102322.542932192846	7177.8845226044
0	11145	1116588.080657505748	19806.172385894
0	11153	1116867.530395311975	17834.451081411
0	11158	1117162.597572751701	16987.76341201
0	11163	1117498.822816963066	15201.792563123
0	11169	1117832.811582672956	14637.032217195
0	11174	1118095.582788017095	15599.932637637
0	11182	1118374.471737406342	15137.851044949
0	11190	1118641.073743224236	14929.002363832
0	11195	1118912.034303932866	14038.268288394
0	11200	1119203.125971155315	13786.234823833
0	11206	1119473.352349249766	12520.182524795
0	11214	1119743.690443684725	10736.391165882
0	11219	1120035.935179928698	10535.981134955
0	11224	1120281.299467832895	9886.0409405561
0	11232	1120611.497101107834	9354.1891771171
0	11243	1121827.833202848566	10426.517174414
0	11251	1122096.30239107196	10675.225788583
1	1705	201405.595884148535	0
1	1716	202282.415465834802	229.2916188496
1	1757	207739.720932398662	0
1	1766	209497.273379297516	0
1	1774	210276.751818932954	325.44287126866
1	1810	216095.99586802481	0
1	1821	216981.511579568869	102.27806419057
1	1827	217958.982276837999	994.33463508894
1	1835	218891.890294675414	923.56517169681
1	1844	219672.012735211669	170.76194919048
1	1886	223768.6101751791	0
1	1914	230865.09738985553	0
1	1923	231951.200665655055	0
1	1931	232902.448317007199	138.69118805918
1	1940	234174.822752491836	0
1	1966	237222.34875939789	0
1	1977	238078.592851780906	371.76336506486
1	1994	239334.729737965541	240.86000405159
1	2017	242682.702692311745	0
1	2037	243926.925229319441	273.42449134885
1	2051	246135.637107767304	0
1	2068	248012.202058274497	0
1	2085	249730.472015694798	0
1	2111	253702.559086455581	0
1	2129	255488.455267024267	0
1	2137	256632.679750659067	0
1	2146	257554.83761909899	123.99699590968
1	2154	258518.411487838848	920.00088979076
1	2166	259316.277633562322	730.69190591725
1	2224	268180.031538324963	0
1	2234	271722.432973021155	0
1	2252	272612.888129127814	778.97826548841
1	2260	273500.512740939824	1362.7954996935
1	2265	274250.942670665076	2018.4940078793
1	2274	275280.622938652441	2068.2380805153
1	2292	276228.978324290974	1895.4057242428
1	2303	277210.523937521252	1815.4137047348
1	2315	278181.874121198141	2435.8976500659
1	2323	278929.601499521538	2874.1962866413
1	2335	279632.411184987816	2557.6957280446
1	2343	280458.424520877577	3140.7536939953
1	2355	281553.491100265683	2389.5296424687
1	2366	282517.217898306431	3121.6370740425
1	2378	283403.587003009707	2473.6790480223
1	2383	284231.000813138764	1269.41566595
1	2437	287127.87245944064	271.25316810928
1	2491	290140.888294605725	96.353072127779
1	2519	293186.172507275241	0
1	2527	294153.631557417097	82.318041618365
1	2544	295312.892954632005	241.12075619259
1	2552	296179.46756996184	727.08804882791
1	2561	297053.526862484425	444.98581425081
1	2572	297940.803466664782	808.4979626944
1	2589	299238.62696986359	336.53297538832
1	2611	300556.130802930571	0
1	2625	301453.74115042043	102.03911327649
1	2639	302648.1698534171	303.70790646634
1	2695	307932.737737989357	0
1	2704	308990.183060808367	0
1	2732	317036.986755381733	0
1	2741	317980.039990484635	261.68064487808
1	2749	318845.78432446635	563.32802867022
1	2758	319695.586299050609	187.13422153071
1	2767	321470.315965347561	0
1	2787	322849.019027959098	211.01173418667
1	2807	324048.561411369134	188.60341745816
1	2825	325571.424482968995	185.38149129119
1	2859	328427.559490935047	153.92561548493
1	2868	329264.192424586061	742.50495316082
1	2879	330275.345023777116	422.13208794376
1	2894	332941.145240745995	0
1	2913	333928.393940976314	156.11439519484
1	2922	334849.225753095628	180.33898354853
1	2933	335948.035740045145	304.16943323104
1	2942	336858.828507484438	79.096611396043
1	2954	337742.613843226946	384.37411120141
1	2984	339518.113370525415	12.253518481243
1	3006	341163.469079601595	173.83917137944
1	3020	342040.765753176839	572.81201753879
1	3035	342853.902416309445	857.91334485638
1	3046	343680.35159575919	1406.1136717811
1	3052	344676.331751377084	2050.7415347327
1	3066	345624.629590741004	2393.6766290479
1	3075	346707.804812137306	1362.4491652664
1	3083	347615.843042554005	2240.515497071
1	3119	349711.087049791609	97.466073648354
1	3127	350413.648344865761	559.82844064241
1	3135	351148.172495268329	527.89054844093
1	3223	362016.531386370492	0
1	3245	367178.525901107171	377.58452862893
1	3250	368180.06902548613	1285.9502300446
1	3260	371750.030311862384	0
1	3297	379952.409911386498	0
1	3309	380761.483127365818	335.24510419286
1	3317	381631.389207271022	871.54709213984
1	3323	382613.495723387372	1681.5326669393
1	3357	387301.000856439923	0
1	3375	390219.592157275324	0
1	3393	393763.968803592533	0
1	3405	394759.82948009072	158.40874315801
1	3416	395747.472932607455	928.57356398352
1	3425	396620.983734910771	1784.4730000422
1	3436	397575.155632338333	1755.8908132431
1	3442	398364.173791154364	1209.3787196224
1	3453	399359.655499049292	1858.5014522557
1	3462	400155.713400758666	1712.5154079105
1	3482	401405.465200273345	57.901610545865
1	3493	402274.31823207997	667.2261956819
1	3505	403155.973251051695	591.27793766671
1	3516	403774.414254616986	1142.1387224722
1	3543	405702.154365210957	145.77914671689
1	3555	406527.808694525226	251.50750272259
1	3577	407775.296074671233	230.58965875819
1	3589	408638.452976196711	1051.0382978453
1	3597	409647.62448365322	1780.8455525248
1	3606	410428.386681086741	1685.9082847923
1	3621	411427.175548589401	685.4210492759
1	3626	412304.687619095303	1264.1316590779
1	3688	415502.792587105598	112.93961846433
1	3733	418093.464310120809	60.866203559779
1	3742	419099.416388932467	599.02114311918
1	3759	420502.01703042141	239.96103403477
1	3770	421353.367612067739	286.8715688681
1	3776	422219.379951402259	1001.0593003713
1	3787	423099.624368293441	580.81380139667
1	3836	426773.778228438255	0
1	3872	432333.911813277831	0
1	3883	433168.209927958584	440.84535934303
1	3892	433990.197638848285	1259.8934862785
1	3903	434980.545730527377	1161.0597350958
1	3915	435988.970413036972	1990.3926776573
1	3923	436880.044322254385	2071.8911231672
1	3938	437685.795229435803	2032.037126514
1	3949	438620.922158269359	1969.5915037443
1	3955	439404.502699816393	2344.5579424078
1	3966	440323.840695209437	2980.9211037301
1	3975	441168.409138879693	2584.0290085942
1	3983	442087.715052710166	316.40134031893
1	4008	443634.512899978375	181.84864357566
1	4023	444591.509755909617	203.36531922687
1	4107	451957.50813720213	0
1	4116	452927.593861166109	860.33251370636
1	4125	454399.125046311107	0
1	4160	459965.647207669055	0
1	4171	460858.204911392963	459.37392939193
1	4177	461716.298240862834	937.4808336058
1	4186	464103.846290676949	0
1	4204	465039.256505451354	915.65326607454
1	4212	465913.889421522613	1311.4650001007
1	4221	466780.429195953809	960.07621164494
1	4262	470299.777174442267	0
1	4282	471445.595298377121	144.21087297109
1	4295	472783.192496118241	0
1	4316	474949.243499420126	119.49753210495
1	4329	476037.789565986311	168.09437263399
1	4341	476742.152834162828	581.32127833596
1	4349	477605.613791686231	874.61012331367
1	4358	478595.116910562314	821.91585942435
1	4366	479352.085306389489	14.45464467523
1	4391	480945.640494537765	142.22141153089
1	4430	483711.528094698588	0
1	4446	484905.172933279393	86.060878129404
1	4464	487537.535544021521	0
1	4498	491413.687011298403	90.465470392814
1	4508	495004.882014894842	0
1	4520	495894.256894902872	265.25415002346
1	4534	496793.653073193893	1013.8179869472
1	4543	497698.182022246334	1762.8965850625
1	4548	498801.460556385148	2742.9380680641
1	4557	499828.336448292975	3751.11443889
1	4587	501580.755534789312	306.69790332896
1	4599	502508.916326322056	101.60045514026
1	4624	504053.102844888692	166.03492513385
1	4651	506204.513979195049	0
1	4671	507441.292332735639	115.49547153655
1	4676	508313.270255189603	983.71076255483
1	4688	509369.528299937041	915.82280739572
1	4701	510547.617774951962	113.10336073009
1	4730	512845.721777334569	2.748926655982
1	4741	513744.061097977388	710.71325095507
1	4753	514712.341577127645	1590.2443089835
1	4761	515423.323480037779	745.34179132248
1	4770	516239.637428848684	82.857384925225
1	4778	517117.198761324184	373.8813664109
1	4790	518049.016079803184	31.730312681773
1	4807	518933.558927217658	705.2642030526
1	4813	519865.709112648224	1384.7999618341
1	4824	520790.529261762619	726.1353890859
1	4852	522185.660492708225	4.711553194623
1	4879	523810.910915996154	272.26467353292
1	4952	529180.728707762145	0
1	4961	530037.848306895812	376.74241298095
1	4969	530952.759821148638	93.459738424315
1	4978	531890.148283226067	23.629963524316
1	4986	532753.524499038086	257.05530367446
1	5012	535501.446836877186	0
1	5029	536501.770608861822	805.62081519028
1	5041	537410.043211532044	982.9084912081
1	5047	538368.050820009965	1631.5138003252
1	5058	539401.173200195647	671.18021828509
1	5073	540273.329572204286	1423.711017186
1	5084	541181.335425718367	1431.4499539229
1	5093	542108.477343704249	2269.3673275149
1	5107	543060.28138860908	1882.7959985448
1	5116	544169.109052577865	2691.9394136381
1	5124	545061.908266600129	2284.0585261832
1	5133	545880.556929557418	1109.0537835469
1	5150	546764.528700785049	663.73109237756
1	5159	547708.516354423524	1324.6116998471
1	5176	549017.293838592661	268.98697451506
1	5219	551406.596185962472	4.588376134016
1	5262	554102.399639013644	194.26365175751
1	5273	554947.745858025562	734.1442106206
1	5282	555811.101041135183	41.010907126693
1	5293	556923.799769553058	899.48920352343
1	5371	561944.277378536167	0
1	5386	562825.084874726194	877.17178859929
1	5394	563607.447373924937	1407.1651326336
1	5403	564349.742055960524	1673.5514467611
1	5408	565360.509670296064	2284.2708904096
1	5420	566284.011154025761	2546.1593219667
1	5428	567163.860959717837	1030.091694703
1	5437	568226.815021379719	2027.9110327886
1	5455	569187.909518511727	268.29483088187
1	5463	570120.255887516721	1136.3572741788
1	5475	571167.374091497101	507.55821421933
1	5542	574771.207331858151	148.44763710045
1	5553	575696.384379052855	958.872212795
1	5568	576480.2397885589	670.61080606719
1	5579	577464.832008691196	1501.6690103588
1	5588	578117.570348160721	1943.2877609154
1	5593	579067.336340017747	1990.2960418454
1	5602	579959.149193887606	2852.2089197193
1	5610	580688.427555138889	2876.2486205621
1	5638	582389.355605341756	303.30837318854
1	5647	583274.614395063332	1112.481029361
1	5666	584442.701307194685	192.41316324644
1	5693	586149.441061628788	208.07524059538
1	5715	587722.984327971888	103.60015161579
1	5735	588864.301235132233	92.05711877709
1	5781	592630.283589753183	0
1	5793	593661.404564823551	131.15498719177
1	5801	594476.185566788288	372.85409166464
1	5824	597525.912772417894	106.7030961099
1	5841	598718.421955107726	280.14976213091
1	5876	603425.435065305949	118.39013631176
1	5884	604450.823719933145	0
1	5893	606654.67838084058	0
1	5911	608883.675591683748	173.75136798454
1	5922	609775.683764421931	685.75073024698
1	5931	610671.734405418022	844.32735600693
1	5953	612549.640324220959	0
1	5978	614995.367546596063	0
1	5998	616298.650354015607	178.97125754245
1	6010	617234.591503747337	1053.4203857686
1	6015	618170.825074977717	1845.6960523445
1	6037	619786.660898359454	0
1	6071	622915.227541035721	0
1	6079	623913.989237355955	195.36364904196
1	6096	625261.14080580944	0
1	6105	626288.480585173007	0
1	6130	628988.661875516325	0
1	6139	629826.116975459105	259.73414558746
1	6150	630605.667717620529	686.80101625824
1	6181	633994.255912691699	0
1	6208	637828.663577455786	0
1	6219	638696.46253833571	812.52712201579
1	6228	639669.56120452625	602.42119661548
1	6259	644170.499162614935	0
1	6277	646560.909337281404	0
1	6286	648320.687408511869	0
1	6311	651296.24050069014	68.51414897946
1	6323	652252.333904683998	412.72269360467
1	6332	653304.432833581402	1141.3634997506
1	6343	654150.214307534858	1036.2100832808
1	6352	655110.98766110834	1357.0658605792
1	6363	656100.262007282862	1445.5588690792
1	6369	656813.661378224778	1064.4931539367
1	6407	658868.088341676629	272.26981461454
1	6456	665545.951781780271	0
1	6464	666337.758849582747	766.74098687929
1	6491	670828.110413942559	234.5208211243
1	6500	672431.82158600182	0
1	6509	675050.639727307487	0
1	6527	676013.829548247852	841.96615928567
1	6535	676956.85245744718	1566.2380097999
1	6541	677799.853133508837	2277.6127278453
1	6552	678732.096405981769	579.03115700884
1	6558	679571.320618283131	902.61759027765
1	6572	680309.735741980874	308.31110679362
1	6587	681201.344398682752	1180.7178118624
1	6592	682028.899267740707	1104.9475242366
1	6607	682871.772141931819	1831.0048406605
1	6618	683686.765050048574	1054.1679097788
1	6635	684820.535283490493	129.0301929882
1	6689	687705.833710940176	287.21791805456
1	6729	690176.439663103021	27.765840172301
1	6738	691034.647112901982	669.53734073188
1	6746	692073.714632639669	949.76514864854
1	6796	700923.790910320138	0
1	6805	701654.209676478639	408.6027391445
1	6816	702584.110090210879	279.32496989715
1	6822	703501.913222266483	1043.1538922999
1	6839	705716.490384827616	0
1	6851	706636.664201701828	61.233609389986
1	6862	707605.897508038378	99.569635579227
1	6871	708595.400908117359	740.16967347121
1	6906	710805.318061873293	68.129515535557
1	6931	712750.121933122723	0
1	6948	714036.620564514311	281.14703362379
1	6957	714960.995076533162	368.70906935501
1	6968	715724.319961455278	121.10438845968
1	7016	720281.522570848611	0
1	7025	722119.945639300712	0
1	7033	723261.72437478405	0
1	7068	727946.558468610993	145.38905734259
1	7077	729597.945753302785	0
1	7086	730477.827221333045	583.54303083055
1	7095	732107.539800423012	0
1	7112	732940.125968799927	827.18976077967
1	7121	733893.936041987483	1516.7040549464
1	7126	734783.168699389895	2370.9858275702
1	7138	735773.740927467806	516.43020895413
1	7171	737575.720551977537	149.3337735903
1	7179	738537.0188900706	996.59199543565
1	7188	739402.034594822402	306.31248283115
1	7199	740261.454490098885	301.36003834969
1	7214	741221.224294659548	728.59566291424
1	7222	742111.474607437841	1124.0970376064
1	7234	742963.15553023436	415.40890227393
1	7242	743856.350991039191	964.94467982529
1	7262	745012.292442994502	146.78666049298
1	7279	746203.655548693059	26.486277925816
1	7314	748276.455746432946	6.10774154833
1	7349	750362.667736621724	75.677796572428
1	7371	751867.58189055938	294.12016250392
1	7421	757344.40735860164	0
1	7430	758262.116368518732	585.87692137361
1	7438	759235.548127955798	355.32479484211
1	7447	760223.478796926956	0
1	7491	767536.478311229494	0
1	7500	768375.973104416312	60.453853870424
1	7518	772352.958342740736	250.29219167308
1	7527	773271.873561146859	735.13786091973
1	7538	774066.904869442133	415.67270828788
1	7569	778225.918788346007	0
1	7588	782173.872742676518	0
1	7605	783530.190741958405	0
1	7614	785563.156237357853	0
1	7628	786452.990763858942	588.97235388971
1	7640	787432.004825354732	1347.2778799807
1	7648	788384.61713862472	2201.3189725977
1	7654	789259.107420679796	2732.6996388119
1	7690	792138.198387604603	0
1	7704	792992.607104247372	351.45836400708
1	7732	795874.101788759863	0
1	7743	796864.583895832059	454.13242941876
1	7766	799472.227504474992	0
1	7774	800225.160894588947	607.29992849021
1	7799	801793.656633780226	0
1	7836	810041.193182640604	0
1	7845	811069.0807311849	147.22350845414
1	7853	812029.932880099331	701.37181346119
1	7862	813386.246129513673	0
1	7896	817673.331567095935	0
1	7913	819401.594126145902	0
1	7922	820984.455678109267	0
1	7931	821897.248510952521	234.76601155572
1	7974	826983.03886307398	0
1	7982	827880.900879780948	0
1	7991	828890.653540597374	0
1	8000	830995.473911190953	0
1	8012	831800.368424179684	621.7607858735
1	8042	833619.273673068792	196.82007906604
1	8050	834447.852057378089	535.01000855343
1	8067	835808.968376663389	0
1	8110	840088.20390461033	67.527211542546
1	8119	842783.365378060797	0
1	8128	843642.565425182306	495.41357919346
1	8145	845168.134220849522	52.993750324286
1	8154	847221.584002800446	0
1	8179	848824.94858327068	0
1	8214	853940.334075102298	233.83909606493
1	8223	855503.813719416351	0
1	8232	857240.824990789179	0
1	8240	858149.507436572751	491.77423201325
1	8255	858980.724379884736	802.81687031657
1	8260	859758.580111438402	782.07573470998
1	8282	861251.324132260426	252.11102505115
1	8299	862462.568046272274	224.74799802935
1	8341	866034.168158247436	0
1	8368	872553.35013183488	0
1	8378	875161.759191060177	0
1	8387	877078.982545188685	0
1	8404	878224.171147780016	68.174519078418
1	8430	882044.42822893994	0
1	8442	882966.186717299304	80.424504850724
1	8450	883836.165894962956	580.67161222461
1	8464	885675.234119936279	0
1	8476	886606.270681959782	522.51345624273
1	8487	887481.754806792251	301.17570040808
1	8502	888337.910295109829	1058.3085556132
1	8507	889143.727743796813	1540.3017046698
1	8519	890112.377378553016	550.98015619866
1	8530	891064.803144818505	1297.4099102332
1	8609	900383.224032269478	0
1	8617	901273.159902155074	1.958283070474
1	8626	902437.638984560857	0
1	8638	903438.879880502117	514.3867863185
1	8646	904228.857631902668	1077.3549799056
1	8658	905195.979347229156	1520.5812353682
1	8666	905920.307695242815	1492.7676307696
1	8692	907233.611551414018	187.84684327436
1	8697	908142.793157156488	1079.2341663375
1	8709	909153.249335919766	2026.9146444606
1	8720	910025.003979951193	900.18245154588
1	8732	910858.679647865264	1671.5272823588
1	8737	911640.473991820704	847.33034620289
1	8752	912771.198005270571	184.57875623266
1	8843	918164.933915911783	0
1	8852	919191.743572717621	0
1	8863	920149.610705207322	742.78860619659
1	8872	920848.810189639008	803.64913631317
1	8880	921661.335939149855	1099.8797103069
1	8889	922684.288409963043	1026.5491879093
1	8927	925331.99151629881	75.143784891623
1	8944	927005.230933969775	158.68322036078
1	8961	928606.831936863557	0
1	8973	929355.252245639656	531.51381704029
1	8981	930221.818814910484	1312.5019903333
1	8993	931116.684916575532	648.66837878517
1	9012	932570.431328235543	315.97016983883
1	9063	938155.835699231785	0
1	9072	939743.325674784261	0
1	9080	940738.545533328761	0
1	9089	941830.593242047345	0
1	9115	945437.661154872962	0
1	9135	946596.089040611139	229.53549685448
1	9149	948523.34688083444	0
1	9169	950087.715178411952	235.87301732652
1	9177	950939.315836094264	341.93896192154
1	9200	954388.782365516602	0
1	9226	956841.174909031735	0
1	9234	957757.790037933198	49.794572671391
1	9251	959922.6568811012	0
1	9288	967188.234561391676	0
1	9299	968179.046405733034	587.20058992575
1	9305	969216.655072338959	1352.4818586189
1	9316	970242.3726171831	507.47301476909
1	9325	970992.180407788159	875.50889284937
1	9330	971888.153131934759	913.48121821701
1	9372	974730.535233825454	0
1	9384	975650.133516761076	725.23203896246
1	9400	976826.458359859129	141.94216614044
1	9409	977708.797236775856	853.31225737004
1	9417	978616.180092778375	55.652350618283
1	9432	979400.843625145027	364.10551557174
1	9437	980165.905890509356	1024.6206806233
1	9449	981026.197468613061	31.146859893999
1	9506	984390.189111989095	0
1	9532	987519.842136653798	0
1	9548	989027.069735053516	0
1	9557	989778.383799194776	6.456039299172
1	9565	990699.602707796208	294.12636065472
1	9574	991838.83372521367	0
1	9602	993996.362740309982	235.1619689416
1	9611	994907.606976191091	985.31322162412
1	9622	995892.768085531178	451.18017338228
1	9631	996738.102069304713	451.10655361422
1	9666	999128.97531486217	235.80771808265
1	9675	999824.712306801639	337.33682688191
1	9708	1001770.64889926988	0
1	9722	1002662.930315906631	889.37521550038
1	9734	1003634.721545812683	1327.7637194025
1	9742	1004538.713775739546	2063.7346908738
1	9748	1005442.11528913049	2609.7749893933
1	9778	1007240.716091923295	21.654978220504
1	9808	1009544.965172431408	0
1	9823	1010562.421641700461	75.699499959541
1	9835	1011505.682976060171	984.60843624071
1	9849	1012291.285754055389	1355.058896096
1	9858	1013230.243638001241	1823.3751956087
1	9866	1014120.280754766012	2493.2366068524
1	9875	1015034.580100729763	2915.5240435029
1	9895	1016020.737941288125	3460.6060064367
1	9904	1016881.861751155435	2932.5357566323
1	9912	1017766.209685561029	2487.8930707974
1	9921	1018492.782279062704	2894.9515789706
1	9932	1019442.053934921541	3424.7763768987
1	9941	1020428.945451379144	3423.1457638145
1	9958	1021368.684193887734	2844.550838446
1	9970	1022184.74045485676	1137.920788513
1	9975	1023196.078790125024	1935.352876918
1	9987	1024093.815716908476	2414.0251224147
1	10009	1025065.897608885051	234.52630646898
1	10015	1025916.601432270995	1038.3704142465
1	10027	1026873.719348446838	1909.4626631995
1	10035	1027692.69275736545	377.69708112713
1	10058	1028925.396361373495	224.94336443488
1	10066	1029788.382193578612	972.13041801601
1	10120	1032984.491534443283	192.07864259483
1	10132	1033963.506352014639	602.60783605194
1	10143	1034956.046303153055	799.22228289509
1	10152	1035858.436016323627	184.17161695255
1	10165	1037038.071536373348	203.35435791383
1	10187	1038547.087735539171	295.51794239197
1	10220	1040519.588686685599	123.63986553346
1	10281	1043852.331166281062	87.41770353069
1	10303	1045494.151080680888	257.05731083661
1	10312	1046399.926007965179	746.78047397291
1	10326	1047706.066769691857	167.47237257584
1	10385	1051729.186299507271	0
1	10402	1053323.098547499629	0
1	10411	1054481.920959529673	0
1	10420	1056311.875226130351	0
1	10454	1059814.661422428972	0
1	10472	1062906.380752691402	0
1	10480	1063741.247266272264	146.08569538369
1	10492	1064625.055402491757	103.73925328853
1	10523	1068470.280860497947	0
1	10537	1069573.548176400922	985.99203872206
1	10546	1070385.377600849933	1609.6502625959
1	10557	1071253.633044195263	1149.7216125456
1	10563	1072174.059008639076	1537.9699185438
1	10571	1073011.451745531011	1858.8591069135
1	10580	1073833.578921041958	1609.1520401598
1	10594	1074676.013356848221	797.4793138394
1	10603	1075572.379797778952	1671.8477312122
1	10614	1076435.931391801018	3.024824337487
1	10626	1077346.69268812986	347.12550819252
1	10664	1079302.01564644144	326.56039165773
1	10673	1080241.222893427444	936.33736558085
1	10721	1082980.338138597813	180.63795913105
1	10757	1085580.252138299631	0
1	10765	1086357.366914430441	282.2140195164
1	10777	1087297.931071129151	368.34957823518
1	10785	1088239.876296344527	106.15637737081
1	10816	1091779.239809159331	0
1	10828	1092655.819214183227	376.35240487882
1	10850	1094125.111409664939	32.949331216132
1	10861	1095118.448313546723	462.92671408013
1	10873	1095994.917842907921	1080.0655183639
1	10881	1096833.098610166882	1688.4402005785
1	10890	1097718.444772243777	936.53650063163
1	10912	1099184.962130782437	151.88281688165
1	10928	1100313.370605640914	138.53644489913
1	10967	1102322.542932192846	25.512678352316
1	10975	1103135.777607745375	640.12745736514
1	10993	1104142.017593761202	946.23822828368
1	11004	1105000.763089849212	1764.1423973923
1	11013	1105840.612389545361	2128.541010153
1	11021	1106635.253891108827	1761.4878755698
1	11030	1107440.421447253511	2023.530299931
1	11038	1108474.315835267454	1521.1460108131
1	11050	1109201.006379860583	193.70710205772
1	11064	1109997.171958920288	497.21791394657
1	11075	1110800.448594631592	405.19006735475
1	11090	1111738.365079662696	481.05715567193
1	11099	1112792.732867911727	1391.4168394775
1	11107	1113630.01588948259	2208.9392869936
1	11128	1114481.774994837528	739.21897368875
1	11133	1115437.961872156739	1229.1156651434
1	11234	1120611.497101107834	322.85868351863
1	11253	1122096.30239107196	252.84587049833
1	11265	1123118.200433656598	863.29110585589
2	1703	201405.595884148535	1
2	1705	201405.595884148535	0
2	1711	202053.123846985198	1
2	1716	202282.415465834802	0
2	1755	207739.720932398662	1
2	1757	207739.720932398662	0
2	1764	209497.273379297516	1
2	1766	209497.273379297516	0
2	1769	209951.308947664292	1
2	1774	210276.751818932954	0
2	1808	216095.99586802481	1
2	1810	216095.99586802481	0
2	1813	216879.233515378294	1
2	1816	216964.647641749056	2
2	1821	216981.511579568869	1
2	1827	217958.982276837999	0
2	1830	217968.325122978602	1
2	1835	218891.890294675414	0
2	1839	219501.250786021194	1
2	1844	219672.012735211669	0
2	1884	223768.6101751791	1
2	1886	223768.6101751791	0
2	1912	230865.09738985553	1
2	1914	230865.09738985553	0
2	1921	231951.200665655055	1
2	1923	231951.200665655055	0
2	1926	232763.757128948024	1
2	1931	232902.448317007199	0
2	1938	234174.822752491836	1
2	1940	234174.822752491836	0
2	1964	237222.34875939789	1
2	1966	237222.34875939789	0
2	1969	237706.829486716047	1
2	1977	238078.592851780906	0
2	1989	239093.869733913946	1
2	1994	239334.729737965541	0
2	2015	242682.702692311745	1
2	2017	242682.702692311745	0
2	2029	243653.500737970586	1
2	2037	243926.925229319441	0
2	2049	246135.637107767304	1
2	2051	246135.637107767304	0
2	2066	248012.202058274497	1
2	2068	248012.202058274497	0
2	2083	249730.472015694798	1
2	2085	249730.472015694798	0
2	2109	253702.559086455581	1
2	2111	253702.559086455581	0
2	2127	255488.455267024267	1
2	2129	255488.455267024267	0
2	2135	256632.679750659067	1
2	2137	256632.679750659067	0
2	2141	257430.840623189309	1
2	2146	257554.83761909899	0
2	2149	257598.410598048092	1
2	2154	258518.411487838848	0
2	2160	258585.585727645067	1
2	2166	259316.277633562322	0
2	2222	268180.031538324963	1
2	2224	268180.031538324963	0
2	2232	271722.432973021155	1
2	2234	271722.432973021155	0
2	2237	271833.909863639407	1
2	2243	272137.717241246276	2
2	2246	272232.448662785739	3
2	2252	272612.888129127814	2
2	2255	273212.384858137162	3
2	2260	273500.512740939824	2
2	2265	274250.942670665076	1
2	2269	274333.572600048224	2
2	2274	275280.622938652441	1
2	2277	275395.110232786416	2
2	2280	275745.976471132272	3
2	2287	276055.405212880276	4
2	2292	276228.978324290974	3
2	2298	277074.715456943228	4
2	2303	277210.523937521252	3
2	2306	277317.670826882309	4
2	2315	278181.874121198141	3
2	2323	278929.601499521538	2
2	2326	279163.961457796968	3
2	2329	279395.580824263917	4
2	2335	279632.411184987816	3
2	2343	280458.424520877577	2
2	2349	280929.907954987376	3
2	2355	281553.491100265683	2
2	2366	282517.217898306431	1
2	2370	282961.58514718872	2
2	2378	283403.587003009707	1
2	2383	284231.000813138764	0
2	2432	286856.619291331365	1
2	2437	287127.87245944064	0
2	2486	290044.535222477946	1
2	2491	290140.888294605725	0
2	2517	293186.172507275241	1
2	2519	293186.172507275241	0
2	2522	294071.313515798732	1
2	2527	294153.631557417097	0
2	2539	295071.772198439416	1
2	2544	295312.892954632005	0
2	2547	295452.379521133931	1
2	2552	296179.46756996184	0
2	2556	296608.541048233617	1
2	2561	297053.526862484425	0
2	2564	297132.305503970383	1
2	2572	297940.803466664782	0
2	2584	298902.093994475267	1
2	2589	299238.62696986359	0
2	2609	300556.130802930571	1
2	2611	300556.130802930571	0
2	2620	301351.702037143941	1
2	2625	301453.74115042043	0
2	2634	302344.461946950763	1
2	2639	302648.1698534171	0
2	2693	307932.737737989357	1
2	2695	307932.737737989357	0
2	2702	308990.183060808367	1
2	2704	308990.183060808367	0
2	2730	317036.986755381733	1
2	2732	317036.986755381733	0
2	2736	317718.359345606551	1
2	2741	317980.039990484635	0
2	2744	318282.456295796129	1
2	2749	318845.78432446635	0
2	2753	319508.452077519903	1
2	2758	319695.586299050609	0
2	2765	321470.315965347561	1
2	2767	321470.315965347561	0
2	2782	322638.007293772426	1
2	2787	322849.019027959098	0
2	2798	323859.957993910979	1
2	2807	324048.561411369134	0
2	2820	325386.04299167781	1
2	2825	325571.424482968995	0
2	2854	328273.633875450119	1
2	2859	328427.559490935047	0
2	2862	328521.687471425239	1
2	2868	329264.192424586061	0
2	2871	329853.212935833353	1
2	2879	330275.345023777116	0
2	2892	332941.145240745995	1
2	2894	332941.145240745995	0
2	2905	333772.279545781477	1
2	2913	333928.393940976314	0
2	2917	334668.886769547095	1
2	2922	334849.225753095628	0
2	2928	335643.866306814107	1
2	2933	335948.035740045145	0
2	2937	336779.731896088395	1
2	2942	336858.828507484438	0
2	2948	337358.239732025541	1
2	2954	337742.613843226946	0
2	2979	339505.859852044172	1
2	2984	339518.113370525415	0
2	3000	340989.629908222153	1
2	3006	341163.469079601595	0
2	3009	341467.95373563805	1
2	3015	341995.989071453069	2
2	3020	342040.765753176839	1
2	3023	342274.237923978075	2
2	3029	342625.590216644362	3
2	3035	342853.902416309445	2
2	3038	343230.952961693086	3
2	3046	343680.35159575919	2
2	3052	344676.331751377084	1
2	3058	345345.355646870955	2
2	3061	345375.327545483053	3
2	3066	345624.629590741004	2
2	3075	346707.804812137306	1
2	3083	347615.843042554005	0
2	3113	349613.620976143255	1
2	3119	349711.087049791609	0
2	3122	349853.819904223351	1
2	3127	350413.648344865761	0
2	3130	350620.281946827402	1
2	3135	351148.172495268329	0
2	3221	362016.531386370492	1
2	3223	362016.531386370492	0
2	3236	366800.941372478242	1
2	3240	366894.118795441562	2
2	3245	367178.525901107171	1
2	3250	368180.06902548613	0
2	3258	371750.030311862384	1
2	3260	371750.030311862384	0
2	3295	379952.409911386498	1
2	3297	379952.409911386498	0
2	3300	380426.23802317296	1
2	3304	380759.84211513118	2
2	3309	380761.483127365818	1
2	3312	380931.963056448075	2
2	3317	381631.389207271022	1
2	3323	382613.495723387372	0
2	3355	387301.000856439923	1
2	3357	387301.000856439923	0
2	3373	390219.592157275324	1
2	3375	390219.592157275324	0
2	3391	393763.968803592533	1
2	3393	393763.968803592533	0
2	3400	394601.420736932712	1
2	3405	394759.82948009072	0
2	3408	394818.89936862393	1
2	3411	394836.510734868567	2
2	3416	395747.472932607455	1
2	3419	395819.264819095189	2
2	3425	396620.983734910771	1
2	3428	397154.795071532005	2
2	3431	397501.154046793624	3
2	3436	397575.155632338333	2
2	3442	398364.173791154364	1
2	3445	398443.197992848183	2
2	3453	399359.655499049292	1
2	3462	400155.713400758666	0
2	3477	401347.56358972748	1
2	3482	401405.465200273345	0
2	3485	401607.092036398073	1
2	3493	402274.31823207997	0
2	3496	402564.695313384983	1
2	3499	402632.275532144774	2
2	3505	403155.973251051695	1
2	3516	403774.414254616986	0
2	3538	405556.375218494065	1
2	3543	405702.154365210957	0
2	3549	406276.301191802637	1
2	3555	406527.808694525226	0
2	3569	407544.706415913044	1
2	3572	407587.414678351455	2
2	3577	407775.296074671233	1
2	3580	407866.778931128453	2
2	3589	408638.452976196711	1
2	3592	408742.478396294425	2
2	3597	409647.62448365322	1
2	3606	410428.386681086741	0
2	3609	410741.754499313504	1
2	3615	411040.555960017362	2
2	3621	411427.175548589401	1
2	3626	412304.687619095303	0
2	3683	415389.85296864127	1
2	3688	415502.792587105598	0
2	3728	418032.59810656103	1
2	3733	418093.464310120809	0
2	3737	418500.395245813284	1
2	3742	419099.416388932467	0
2	3754	420262.055996386642	1
2	3759	420502.01703042141	0
2	3762	421066.496043199642	1
2	3765	421218.320651030959	2
2	3770	421353.367612067739	1
2	3776	422219.379951402259	0
2	3779	422518.810566896771	1
2	3787	423099.624368293441	0
2	3834	426773.778228438255	1
2	3836	426773.778228438255	0
2	3870	432333.911813277831	1
2	3872	432333.911813277831	0
2	3875	432727.364568615552	1
2	3878	432730.30415256979	2
2	3883	433168.209927958584	1
2	3887	433819.485995431553	2
2	3892	433990.197638848285	1
2	3895	433998.577735379644	2
2	3898	434808.153199087221	3
2	3903	434980.545730527377	2
2	3907	435653.758102921803	3
2	3915	435988.970413036972	2
2	3918	436651.330654525012	3
2	3923	436880.044322254385	2
2	3926	437059.944757408581	3
2	3930	437342.919591479332	4
2	3938	437685.795229435803	3
2	3944	438584.380130285482	4
2	3949	438620.922158269359	3
2	3955	439404.502699816393	2
2	3966	440323.840695209437	1
2	3975	441168.409138879693	0
2	3978	441771.313712391241	1
2	3983	442087.715052710166	0
2	4003	443452.664256402717	1
2	4008	443634.512899978375	0
2	4015	444388.144436682744	1
2	4023	444591.509755909617	0
2	4105	451957.50813720213	1
2	4107	451957.50813720213	0
2	4110	452067.261347459752	1
2	4116	452927.593861166109	0
2	4123	454399.125046311107	1
2	4125	454399.125046311107	0
2	4158	459965.647207669055	1
2	4160	459965.647207669055	0
2	4163	460398.83098200103	1
2	4166	460778.817407257032	2
2	4171	460858.204911392963	1
2	4177	461716.298240862834	0
2	4184	464103.846290676949	1
2	4186	464103.846290676949	0
2	4189	464123.603239376816	1
2	4196	464602.424421421868	2
2	4204	465039.256505451354	1
2	4207	465820.352984308865	2
2	4212	465913.889421522613	1
2	4221	466780.429195953809	0
2	4260	470299.777174442267	1
2	4262	470299.777174442267	0
2	4276	471301.38442540603	1
2	4282	471445.595298377121	0
2	4293	472783.192496118241	1
2	4295	472783.192496118241	0
2	4307	474829.745967315171	1
2	4316	474949.243499420126	0
2	4324	475869.695193352325	1
2	4329	476037.789565986311	0
2	4332	476160.831555826868	1
2	4336	476731.003668372558	2
2	4341	476742.152834162828	1
2	4349	477605.613791686231	0
2	4352	477773.201051137959	1
2	4358	478595.116910562314	0
2	4361	479337.630661714259	1
2	4366	479352.085306389489	0
2	4386	480803.419083006873	1
2	4391	480945.640494537765	0
2	4428	483711.528094698588	1
2	4430	483711.528094698588	0
2	4441	484819.112055149989	1
2	4446	484905.172933279393	0
2	4462	487537.535544021521	1
2	4464	487537.535544021521	0
2	4493	491323.221540905589	1
2	4498	491413.687011298403	0
2	4506	495004.882014894842	1
2	4508	495004.882014894842	0
2	4512	495629.00274487941	1
2	4515	495779.835086246684	2
2	4520	495894.256894902872	1
2	4523	495935.285437183789	2
2	4526	496058.522488321089	3
2	4529	496077.222009403015	4
2	4534	496793.653073193893	3
2	4543	497698.182022246334	2
2	4548	498801.460556385148	1
2	4557	499828.336448292975	0
2	4579	501274.057631460353	1
2	4587	501580.755534789312	0
2	4594	502407.315871181794	1
2	4599	502508.916326322056	0
2	4615	503887.067919754842	1
2	4624	504053.102844888692	0
2	4649	506204.513979195049	1
2	4651	506204.513979195049	0
2	4662	507325.79686119909	1
2	4665	507329.559492634777	2
2	4671	507441.292332735639	1
2	4676	508313.270255189603	0
2	4679	508453.705492541326	1
2	4688	509369.528299937041	0
2	4696	510434.51441422187	1
2	4701	510547.617774951962	0
2	4725	512842.972850678587	1
2	4730	512845.721777334569	0
2	4733	513033.347847022321	1
2	4736	513122.097268144161	2
2	4741	513744.061097977388	1
2	4748	514677.981688715298	2
2	4753	514712.341577127645	1
2	4761	515423.323480037779	0
2	4765	516156.780043923459	1
2	4770	516239.637428848684	0
2	4773	516743.317394913282	1
2	4778	517117.198761324184	0
2	4785	518017.285767121411	1
2	4790	518049.016079803184	0
2	4796	518228.294724165063	1
2	4799	518480.909150814126	2
2	4807	518933.558927217658	1
2	4813	519865.709112648224	0
2	4819	520064.393872676715	1
2	4824	520790.529261762619	0
2	4847	522180.948939513602	1
2	4852	522185.660492708225	0
2	4874	523538.646242463229	1
2	4879	523810.910915996154	0
2	4950	529180.728707762145	1
2	4952	529180.728707762145	0
2	4955	529661.105893914864	1
2	4961	530037.848306895812	0
2	4964	530859.300082724323	1
2	4969	530952.759821148638	0
2	4973	531866.518319701751	1
2	4978	531890.148283226067	0
2	4981	532496.469195363626	1
2	4986	532753.524499038086	0
2	5010	535501.446836877186	1
2	5012	535501.446836877186	0
2	5015	535696.149793671547	1
2	5024	536427.134720323944	2
2	5029	536501.770608861822	1
2	5033	536736.537019684757	2
2	5041	537410.043211532044	1
2	5047	538368.050820009965	0
2	5050	538729.992981910559	1
2	5053	538849.618555018285	2
2	5058	539401.173200195647	1
2	5064	539749.885471795432	2
2	5067	539839.110016189347	3
2	5073	540273.329572204286	2
2	5079	541177.485390064291	3
2	5084	541181.335425718367	2
2	5087	541477.169638939753	3
2	5093	542108.477343704249	2
2	5102	542777.849740416939	3
2	5107	543060.28138860908	2
2	5116	544169.109052577865	1
2	5119	544771.503146010564	2
2	5124	545061.908266600129	1
2	5133	545880.556929557418	0
2	5136	546100.79760840749	1
2	5142	546383.904654576458	2
2	5150	546764.528700785049	1
2	5159	547708.516354423524	0
2	5171	548748.306864077598	1
2	5176	549017.293838592661	0
2	5214	551402.007809828456	1
2	5219	551406.596185962472	0
2	5257	553908.13598725613	1
2	5262	554102.399639013644	0
2	5265	554213.601647404962	1
2	5273	554947.745858025562	0
2	5277	555770.09013400849	1
2	5282	555811.101041135183	0
2	5288	556024.310566029625	1
2	5293	556923.799769553058	0
2	5369	561944.277378536167	1
2	5371	561944.277378536167	0
2	5374	561947.913086126899	1
2	5377	562200.282241291314	2
2	5381	562676.190609199426	3
2	5386	562825.084874726194	2
2	5389	563076.238779886423	3
2	5394	563607.447373924937	2
2	5397	563737.851832059038	3
2	5403	564349.742055960524	2
2	5408	565360.509670296064	1
2	5412	566133.769265014826	2
2	5415	566198.90398859114	3
2	5420	566284.011154025761	2
2	5428	567163.860959717837	1
2	5437	568226.815021379719	0
2	5443	568919.614687629857	1
2	5446	568983.898613337888	2
2	5455	569187.909518511727	1
2	5463	570120.255887516721	0
2	5466	570659.815877277775	1
2	5475	571167.374091497101	0
2	5534	574622.759694757706	1
2	5537	574737.512166257851	2
2	5542	574771.207331858151	1
2	5553	575696.384379052855	0
2	5556	575809.628982491708	1
2	5559	575963.162998332372	2
2	5563	576174.282587245316	3
2	5568	576480.2397885589	2
2	5571	577077.040298172347	3
2	5574	577106.940274168313	4
2	5579	577464.832008691196	3
2	5583	577812.178934576788	4
2	5588	578117.570348160721	3
2	5593	579067.336340017747	2
2	5602	579959.149193887606	1
2	5610	580688.427555138889	0
2	5630	582086.047232153215	1
2	5633	582162.133365702315	2
2	5638	582389.355605341756	1
2	5647	583274.614395063332	0
2	5661	584250.288143948248	1
2	5666	584442.701307194685	0
2	5688	585941.365821033406	1
2	5693	586149.441061628788	0
2	5710	587619.384176356093	1
2	5715	587722.984327971888	0
2	5730	588772.244116355143	1
2	5735	588864.301235132233	0
2	5779	592630.283589753183	1
2	5781	592630.283589753183	0
2	5788	593530.249577631786	1
2	5793	593661.404564823551	0
2	5796	594103.331475123645	1
2	5801	594476.185566788288	0
2	5819	597419.209676307999	1
2	5824	597525.912772417894	0
2	5836	598438.272192976813	1
2	5841	598718.421955107726	0
2	5870	603307.044928994191	1
2	5876	603425.435065305949	0
2	5882	604450.823719933145	1
2	5884	604450.823719933145	0
2	5891	606654.67838084058	1
2	5893	606654.67838084058	0
2	5906	608709.924223699209	1
2	5911	608883.675591683748	0
2	5914	609089.933034174955	1
2	5922	609775.683764421931	0
2	5925	609827.40704941109	1
2	5931	610671.734405418022	0
2	5951	612549.640324220959	1
2	5953	612549.640324220959	0
2	5976	614995.367546596063	1
2	5978	614995.367546596063	0
2	5990	616119.679096473158	1
2	5993	616181.17111797872	2
2	5998	616298.650354015607	1
2	6001	616325.129022633241	2
2	6010	617234.591503747337	1
2	6015	618170.825074977717	0
2	6035	619786.660898359454	1
2	6037	619786.660898359454	0
2	6069	622915.227541035721	1
2	6071	622915.227541035721	0
2	6074	623718.625588313999	1
2	6079	623913.989237355955	0
2	6094	625261.14080580944	1
2	6096	625261.14080580944	0
2	6103	626288.480585173007	1
2	6105	626288.480585173007	0
2	6128	628988.661875516325	1
2	6130	628988.661875516325	0
2	6134	629566.382829871642	1
2	6139	629826.116975459105	0
2	6142	629918.86670136229	1
2	6150	630605.667717620529	0
2	6179	633994.255912691699	1
2	6181	633994.255912691699	0
2	6206	637828.663577455786	1
2	6208	637828.663577455786	0
2	6211	637883.935416319924	1
2	6219	638696.46253833571	0
2	6222	639067.140007910771	1
2	6228	639669.56120452625	0
2	6257	644170.499162614935	1
2	6259	644170.499162614935	0
2	6275	646560.909337281404	1
2	6277	646560.909337281404	0
2	6284	648320.687408511869	1
2	6286	648320.687408511869	0
2	6306	651227.72635171068	1
2	6311	651296.24050069014	0
2	6315	651839.611211079327	1
2	6318	652163.069333830757	2
2	6323	652252.333904683998	1
2	6326	653114.00422425405	2
2	6332	653304.432833581402	1
2	6338	653753.921800529174	2
2	6343	654150.214307534858	1
2	6346	654654.703138203704	2
2	6352	655110.98766110834	1
2	6358	655749.168224288043	2
2	6363	656100.262007282862	1
2	6369	656813.661378224778	0
2	6402	658595.818527062087	1
2	6407	658868.088341676629	0
2	6454	665545.951781780271	1
2	6456	665545.951781780271	0
2	6459	665571.017862703458	1
2	6464	666337.758849582747	0
2	6486	670593.589592818258	1
2	6491	670828.110413942559	0
2	6498	672431.82158600182	1
2	6500	672431.82158600182	0
2	6507	675050.639727307487	1
2	6509	675050.639727307487	0
2	6512	675171.863388962186	1
2	6515	675390.614447647289	2
2	6519	675522.240405663586	3
2	6527	676013.829548247852	2
2	6535	676956.85245744718	1
2	6541	677799.853133508837	0
2	6544	678153.065248972925	1
2	6547	678668.703028005484	2
2	6552	678732.096405981769	1
2	6558	679571.320618283131	0
2	6564	680001.424635187251	1
2	6567	680020.626586820398	2
2	6572	680309.735741980874	1
2	6579	680923.951743504103	2
2	6582	681040.7673012713	3
2	6587	681201.344398682752	2
2	6592	682028.899267740707	1
2	6602	682632.597140269731	2
2	6607	682871.772141931819	1
2	6618	683686.765050048574	0
2	6627	684691.505090502288	1
2	6635	684820.535283490493	0
2	6681	687418.615792885616	1
2	6689	687705.833710940176	0
2	6724	690148.67382293072	1
2	6729	690176.439663103021	0
2	6732	690365.109772170105	1
2	6738	691034.647112901982	0
2	6741	691123.949483991128	1
2	6746	692073.714632639669	0
2	6794	700923.790910320138	1
2	6796	700923.790910320138	0
2	6800	701245.606937334138	1
2	6805	701654.209676478639	0
2	6808	702304.785120313725	1
2	6811	702458.759329966623	2
2	6816	702584.110090210879	1
2	6822	703501.913222266483	0
2	6837	705716.490384827616	1
2	6839	705716.490384827616	0
2	6846	706575.430592311842	1
2	6851	706636.664201701828	0
2	6857	707506.327872459151	1
2	6862	707605.897508038378	0
2	6865	707855.231234646148	1
2	6871	708595.400908117359	0
2	6901	710737.188546337736	1
2	6906	710805.318061873293	0
2	6929	712750.121933122723	1
2	6931	712750.121933122723	0
2	6943	713755.473530890524	1
2	6948	714036.620564514311	0
2	6951	714592.286007178155	1
2	6957	714960.995076533162	0
2	6960	715603.215572995593	1
2	6968	715724.319961455278	0
2	7014	720281.522570848611	1
2	7016	720281.522570848611	0
2	7023	722119.945639300712	1
2	7025	722119.945639300712	0
2	7031	723261.72437478405	1
2	7033	723261.72437478405	0
2	7063	727801.169411268402	1
2	7068	727946.558468610993	0
2	7075	729597.945753302785	1
2	7077	729597.945753302785	0
2	7080	729894.284190502492	1
2	7086	730477.827221333045	0
2	7093	732107.539800423012	1
2	7095	732107.539800423012	0
2	7098	732112.93620802026	1
2	7101	732377.231987041073	2
2	7104	732412.182871819725	3
2	7112	732940.125968799927	2
2	7121	733893.936041987483	1
2	7126	734783.168699389895	0
2	7132	735257.310718513677	1
2	7138	735773.740927467806	0
2	7160	737426.386778387241	1
2	7166	737540.426894634951	2
2	7171	737575.720551977537	1
2	7179	738537.0188900706	0
2	7183	739095.722111991251	1
2	7188	739402.034594822402	0
2	7194	739960.094451749195	1
2	7199	740261.454490098885	0
2	7205	740492.62863174531	1
2	7209	740987.377569831465	2
2	7214	741221.224294659548	1
2	7222	742111.474607437841	0
2	7226	742547.746627960431	1
2	7229	742891.406311213903	2
2	7234	742963.15553023436	1
2	7242	743856.350991039191	0
2	7257	744865.505782501519	1
2	7262	745012.292442994502	0
2	7274	746177.169270767243	1
2	7279	746203.655548693059	0
2	7309	748270.348004884616	1
2	7314	748276.455746432946	0
2	7344	750286.989940049296	1
2	7349	750362.667736621724	0
2	7366	751573.461728055456	1
2	7371	751867.58189055938	0
2	7419	757344.40735860164	1
2	7421	757344.40735860164	0
2	7424	757676.239447145119	1
2	7430	758262.116368518732	0
2	7433	758880.223333113691	1
2	7438	759235.548127955798	0
2	7445	760223.478796926956	1
2	7447	760223.478796926956	0
2	7489	767536.478311229494	1
2	7491	767536.478311229494	0
2	7495	768315.519250545888	1
2	7500	768375.973104416312	0
2	7513	772102.666151067654	1
2	7518	772352.958342740736	0
2	7521	772536.735700227132	1
2	7527	773271.873561146859	0
2	7533	773651.232161154251	1
2	7538	774066.904869442133	0
2	7567	778225.918788346007	1
2	7569	778225.918788346007	0
2	7586	782173.872742676518	1
2	7588	782173.872742676518	0
2	7603	783530.190741958405	1
2	7605	783530.190741958405	0
2	7612	785563.156237357853	1
2	7614	785563.156237357853	0
2	7617	785864.018409969236	1
2	7620	786084.726945374076	2
2	7623	786183.298166027035	3
2	7628	786452.990763858942	2
2	7631	786526.407781867937	3
2	7640	787432.004825354732	2
2	7648	788384.61713862472	1
2	7654	789259.107420679796	0
2	7688	792138.198387604603	1
2	7690	792138.198387604603	0
2	7696	792641.148740240288	1
2	7704	792992.607104247372	0
2	7730	795874.101788759863	1
2	7732	795874.101788759863	0
2	7735	796410.451466413299	1
2	7743	796864.583895832059	0
2	7764	799472.227504474992	1
2	7766	799472.227504474992	0
2	7769	799617.860966098738	1
2	7774	800225.160894588947	0
2	7797	801793.656633780226	1
2	7799	801793.656633780226	0
2	7834	810041.193182640604	1
2	7836	810041.193182640604	0
2	7840	810921.857222730763	1
2	7845	811069.0807311849	0
2	7848	811328.561066638138	1
2	7853	812029.932880099331	0
2	7860	813386.246129513673	1
2	7862	813386.246129513673	0
2	7894	817673.331567095935	1
2	7896	817673.331567095935	0
2	7911	819401.594126145902	1
2	7913	819401.594126145902	0
2	7920	820984.455678109267	1
2	7922	820984.455678109267	0
2	7926	821662.482499396802	1
2	7931	821897.248510952521	0
2	7972	826983.03886307398	1
2	7974	826983.03886307398	0
2	7980	827880.900879780948	1
2	7982	827880.900879780948	0
2	7989	828890.653540597374	1
2	7991	828890.653540597374	0
2	7998	830995.473911190953	1
2	8000	830995.473911190953	0
2	8003	831178.607638306184	1
2	8012	831800.368424179684	0
2	8037	833422.45359400275	1
2	8042	833619.273673068792	0
2	8045	833912.842048824663	1
2	8050	834447.852057378089	0
2	8065	835808.968376663389	1
2	8067	835808.968376663389	0
2	8105	840020.676693067784	1
2	8110	840088.20390461033	0
2	8117	842783.365378060797	1
2	8119	842783.365378060797	0
2	8122	843147.151845988845	1
2	8128	843642.565425182306	0
2	8139	845115.140470525236	1
2	8145	845168.134220849522	0
2	8152	847221.584002800446	1
2	8154	847221.584002800446	0
2	8177	848824.94858327068	1
2	8179	848824.94858327068	0
2	8209	853706.494979037366	1
2	8214	853940.334075102298	0
2	8221	855503.813719416351	1
2	8223	855503.813719416351	0
2	8230	857240.824990789179	1
2	8232	857240.824990789179	0
2	8235	857657.733204559506	1
2	8240	858149.507436572751	0
2	8243	858177.907509568165	1
2	8250	858976.504376728418	2
2	8255	858980.724379884736	1
2	8260	859758.580111438402	0
2	8277	860999.213107209276	1
2	8282	861251.324132260426	0
2	8293	862237.820048242919	1
2	8299	862462.568046272274	0
2	8339	866034.168158247436	1
2	8341	866034.168158247436	0
2	8366	872553.35013183488	1
2	8368	872553.35013183488	0
2	8376	875161.759191060177	1
2	8378	875161.759191060177	0
2	8385	877078.982545188685	1
2	8387	877078.982545188685	0
2	8399	878155.996628701598	1
2	8404	878224.171147780016	0
2	8428	882044.42822893994	1
2	8430	882044.42822893994	0
2	8437	882885.76221244858	1
2	8442	882966.186717299304	0
2	8445	883255.494282738349	1
2	8450	883836.165894962956	0
2	8462	885675.234119936279	1
2	8464	885675.234119936279	0
2	8467	886083.757225717049	1
2	8476	886606.270681959782	0
2	8479	887180.579106384174	1
2	8482	887279.601739496597	2
2	8487	887481.754806792251	1
2	8493	887603.426039127051	2
2	8502	888337.910295109829	1
2	8507	889143.727743796813	0
2	8510	889561.397222354356	1
2	8514	889767.393234585284	2
2	8519	890112.377378553016	1
2	8530	891064.803144818505	0
2	8607	900383.224032269478	1
2	8609	900383.224032269478	0
2	8612	901271.2016190846	1
2	8617	901273.159902155074	0
2	8624	902437.638984560857	1
2	8626	902437.638984560857	0
2	8629	902924.493094183614	1
2	8632	903151.502651997032	2
2	8638	903438.879880502117	1
2	8641	903675.398111860968	2
2	8646	904228.857631902668	1
2	8649	904427.540064473219	2
2	8658	905195.979347229156	1
2	8666	905920.307695242815	0
2	8681	907045.764708139661	1
2	8684	907063.558990818957	2
2	8687	907126.334691459155	3
2	8692	907233.611551414018	2
2	8697	908142.793157156488	1
2	8704	909124.821528405311	2
2	8709	909153.249335919766	1
2	8712	909187.152365506493	2
2	8720	910025.003979951193	1
2	8727	910793.143645617811	2
2	8732	910858.679647865264	1
2	8737	911640.473991820704	0
2	8747	912586.619249037915	1
2	8752	912771.198005270571	0
2	8841	918164.933915911783	1
2	8843	918164.933915911783	0
2	8850	919191.743572717621	1
2	8852	919191.743572717621	0
2	8855	919406.822099010729	1
2	8858	920045.161053325839	2
2	8863	920149.610705207322	1
2	8867	920561.45622884292	2
2	8872	920848.810189639008	1
2	8875	921657.739222053751	2
2	8880	921661.335939149855	1
2	8889	922684.288409963043	0
2	8922	925256.847731407187	1
2	8927	925331.99151629881	0
2	8939	926846.547713609	1
2	8944	927005.230933969775	0
2	8959	928606.831936863557	1
2	8961	928606.831936863557	0
2	8964	928823.738428599361	1
2	8967	928909.316824577223	2
2	8973	929355.252245639656	1
2	8981	930221.818814910484	0
2	8984	930468.016537790361	1
2	8993	931116.684916575532	0
2	9006	932254.461158396717	1
2	9012	932570.431328235543	0
2	9061	938155.835699231785	1
2	9063	938155.835699231785	0
2	9070	939743.325674784261	1
2	9072	939743.325674784261	0
2	9078	940738.545533328761	1
2	9080	940738.545533328761	0
2	9087	941830.593242047345	1
2	9089	941830.593242047345	0
2	9113	945437.661154872962	1
2	9115	945437.661154872962	0
2	9127	946366.553543756663	1
2	9135	946596.089040611139	0
2	9147	948523.34688083444	1
2	9149	948523.34688083444	0
2	9161	949851.842161085433	1
2	9169	950087.715178411952	0
2	9172	950597.376874172724	1
2	9177	950939.315836094264	0
2	9198	954388.782365516602	1
2	9200	954388.782365516602	0
2	9224	956841.174909031735	1
2	9226	956841.174909031735	0
2	9229	957707.995465261807	1
2	9234	957757.790037933198	0
2	9249	959922.6568811012	1
2	9251	959922.6568811012	0
2	9286	967188.234561391676	1
2	9288	967188.234561391676	0
2	9291	967591.845815807282	1
2	9294	967864.173213720043	2
2	9299	968179.046405733034	1
2	9305	969216.655072338959	0
2	9308	969734.899602414006	1
2	9311	970116.671514938789	2
2	9316	970242.3726171831	1
2	9320	970974.671913717753	2
2	9325	970992.180407788159	1
2	9330	971888.153131934759	0
2	9370	974730.535233825454	1
2	9372	974730.535233825454	0
2	9375	974924.90147779862	1
2	9384	975650.133516761076	0
2	9395	976684.516193718688	1
2	9400	976826.458359859129	0
2	9403	976855.484979405814	1
2	9409	977708.797236775856	0
2	9412	978560.527742160092	1
2	9417	978616.180092778375	0
2	9421	979036.738109573285	1
2	9427	979141.285209886062	2
2	9432	979400.843625145027	1
2	9437	980165.905890509356	0
2	9444	980995.050608719062	1
2	9449	981026.197468613061	0
2	9504	984390.189111989095	1
2	9506	984390.189111989095	0
2	9530	987519.842136653798	1
2	9532	987519.842136653798	0
2	9546	989027.069735053516	1
2	9548	989027.069735053516	0
2	9552	989771.927759895604	1
2	9557	989778.383799194776	0
2	9560	990405.476347141488	1
2	9565	990699.602707796208	0
2	9572	991838.83372521367	1
2	9574	991838.83372521367	0
2	9594	993761.200771368377	1
2	9597	993922.293754566968	2
2	9602	993996.362740309982	1
2	9611	994907.606976191091	0
2	9617	995441.587912148895	1
2	9622	995892.768085531178	0
2	9626	996286.995515690492	1
2	9631	996738.102069304713	0
2	9661	998893.167596779515	1
2	9666	999128.97531486217	0
2	9670	999487.375479919726	1
2	9675	999824.712306801639	0
2	9706	1001770.64889926988	1
2	9708	1001770.64889926988	0
2	9711	1001773.555100406255	1
2	9714	1002306.957826410189	2
2	9717	1002474.979084865754	3
2	9722	1002662.930315906631	2
2	9725	1002832.340299737158	3
2	9734	1003634.721545812683	2
2	9742	1004538.713775739546	1
2	9748	1005442.11528913049	0
2	9773	1007219.061113702791	1
2	9778	1007240.716091923295	0
2	9806	1009544.965172431408	1
2	9808	1009544.965172431408	0
2	9815	1010486.72214174092	1
2	9818	1010521.074539819466	2
2	9823	1010562.421641700461	1
2	9826	1010936.226857959436	2
2	9829	1011406.868442392499	3
2	9835	1011505.682976060171	2
2	9838	1011627.044147913617	3
2	9841	1012119.056057226823	4
2	9849	1012291.285754055389	3
2	9852	1012560.131934851436	4
2	9858	1013230.243638001241	3
2	9861	1013949.32599452313	4
2	9866	1014120.280754766012	3
2	9875	1015034.580100729763	2
2	9878	1015278.316614763676	3
2	9881	1015597.830700092063	4
2	9890	1016017.277558022854	5
2	9895	1016020.737941288125	4
2	9904	1016881.861751155435	3
2	9907	1017005.799687564675	4
2	9912	1017766.209685561029	3
2	9921	1018492.782279062704	2
2	9924	1018524.133355441744	3
2	9932	1019442.053934921541	2
2	9941	1020428.945451379144	1
2	9950	1021046.819666343722	2
2	9953	1021260.725913207016	3
2	9958	1021368.684193887734	2
2	9961	1021679.790594493754	3
2	9970	1022184.74045485676	2
2	9975	1023196.078790125024	1
2	9987	1024093.815716908476	0
2	9998	1024831.371302416076	1
2	10001	1024878.23101802451	2
2	10004	1024964.256685247328	3
2	10009	1025065.897608885051	2
2	10015	1025916.601432270995	1
2	10027	1026873.719348446838	0
2	10030	1027314.995676238316	1
2	10035	1027692.69275736545	0
2	10050	1028700.452996938612	1
2	10053	1028816.251775562607	2
2	10058	1028925.396361373495	1
2	10066	1029788.382193578612	0
2	10115	1032792.412891848449	1
2	10120	1032984.491534443283	0
2	10123	1033360.898515962695	1
2	10132	1033963.506352014639	0
2	10135	1034156.824020257969	1
2	10143	1034956.046303153055	0
2	10147	1035674.264399371079	1
2	10152	1035858.436016323627	0
2	10160	1036834.717178459517	1
2	10165	1037038.071536373348	0
2	10182	1038251.569793147202	1
2	10187	1038547.087735539171	0
2	10215	1040395.948821152138	1
2	10220	1040519.588686685599	0
2	10276	1043764.913462750372	1
2	10281	1043852.331166281062	0
2	10298	1045237.093769844276	1
2	10303	1045494.151080680888	0
2	10306	1045653.145533992267	1
2	10312	1046399.926007965179	0
2	10321	1047538.594397116016	1
2	10326	1047706.066769691857	0
2	10383	1051729.186299507271	1
2	10385	1051729.186299507271	0
2	10400	1053323.098547499629	1
2	10402	1053323.098547499629	0
2	10409	1054481.920959529673	1
2	10411	1054481.920959529673	0
2	10418	1056311.875226130351	1
2	10420	1056311.875226130351	0
2	10452	1059814.661422428972	1
2	10454	1059814.661422428972	0
2	10470	1062906.380752691402	1
2	10472	1062906.380752691402	0
2	10475	1063595.161570888569	1
2	10480	1063741.247266272264	0
2	10486	1064521.316149203229	1
2	10492	1064625.055402491757	0
2	10521	1068470.280860497947	1
2	10523	1068470.280860497947	0
2	10526	1068587.556137678859	1
2	10529	1068775.727338254003	2
2	10537	1069573.548176400922	1
2	10541	1070103.911431649634	2
2	10546	1070385.377600849933	1
2	10549	1070636.089090095323	2
2	10552	1071152.592638617511	3
2	10557	1071253.633044195263	2
2	10563	1072174.059008639076	1
2	10566	1072224.426880882167	2
2	10571	1073011.451745531011	1
2	10580	1073833.578921041958	0
2	10583	1073878.534043008818	1
2	10586	1073900.532066566738	2
2	10594	1074676.013356848221	1
2	10603	1075572.379797778952	0
2	10609	1076432.906567463531	1
2	10614	1076435.931391801018	0
2	10621	1076999.567179937342	1
2	10626	1077346.69268812986	0
2	10656	1078975.455254783709	1
2	10664	1079302.01564644144	0
2	10667	1079304.885527846597	1
2	10673	1080241.222893427444	0
2	10716	1082799.70017946676	1
2	10721	1082980.338138597813	0
2	10755	1085580.252138299631	1
2	10757	1085580.252138299631	0
2	10760	1086075.152894914038	1
2	10765	1086357.366914430441	0
2	10772	1086929.58149289397	1
2	10777	1087297.931071129151	0
2	10780	1088133.719918973715	1
2	10785	1088239.876296344527	0
2	10814	1091779.239809159331	1
2	10816	1091779.239809159331	0
2	10823	1092279.466809304408	1
2	10828	1092655.819214183227	0
2	10845	1094092.162078448807	1
2	10850	1094125.111409664939	0
2	10853	1094655.521599466598	1
2	10856	1094914.852324544005	2
2	10861	1095118.448313546723	1
2	10864	1095144.658409588403	2
2	10873	1095994.917842907921	1
2	10876	1096781.908271612152	2
2	10881	1096833.098610166882	1
2	10890	1097718.444772243777	0
2	10907	1099033.079313900784	1
2	10912	1099184.962130782437	0
2	10923	1100174.834160741786	1
[...]
7	5478	572066.377339913483	5
7	5482	572104.707293528129	4
7	5485	572311.080805668779	3
7	5519	574000.998354938281	2
7	5544	574898.300918590736	1
7	5547	574944.998098707137	0
7	5551	575696.384379052855	1
7	5566	576480.2397885589	2
7	5577	577464.832008691196	3
7	5586	578117.570348160721	4
7	5591	579067.336340017747	5
7	5595	579371.67665824941	4
7	5600	579959.149193887606	5
7	5604	580069.092543357343	4
7	5608	580688.427555138889	5
7	5612	580823.852552401259	4
7	5615	581013.862719545799	3
7	5620	581695.319313781038	4
7	5641	583061.992539280372	3
7	5645	583274.614395063332	4
7	5649	583519.632207143009	3
7	5652	584062.038884709227	2
7	5656	584108.389640069321	3
7	5670	585290.558422812234	4
7	5679	585686.562095412469	3
7	5697	587085.49410933721	4
7	5706	587406.66028063423	3
7	5718	588115.211047786078	2
7	5721	588449.75758374349	1
7	5725	588614.552887323709	2
7	5739	589973.193730611305	3
7	5743	590119.854137771875	2
7	5770	591804.872537127323	1
7	5784	593225.793391142832	0
7	5791	593661.404564823551	1
7	5799	594476.185566788288	2
7	5805	595356.972073678521	3
7	5813	597190.558921705324	2
7	5826	597633.380141909039	1
7	5831	598436.093412172291	2
7	5843	599341.517470019988	1
7	5847	599619.176723697577	2
7	5856	601910.463040377187	1
7	5864	603151.117857026499	0
7	5879	604440.586772229836	1
7	5888	605244.439990698032	2
7	5897	607607.788569714329	3
7	5900	608580.310161846084	2
7	5916	609643.257274080748	1
7	5920	609775.683764421931	2
7	5929	610671.734405418022	3
7	5934	611549.821683875994	4
7	5941	611937.833559423722	3
7	5956	613379.582102896218	4
7	5959	613908.703575627142	3
7	5967	614619.351914050379	2
7	5981	615420.67715787154	1
7	5985	615978.13901252288	2
7	6003	616926.683549947923	1
7	6008	617234.591503747337	2
7	6013	618170.825074977717	3
7	6018	618991.429589677092	2
7	6022	619062.887557056427	3
7	6039	620494.329430222597	2
7	6044	620699.368860004348	3
7	6051	621722.070232971274	2
7	6060	622501.334773156022	1
7	6077	623913.989237355955	2
7	6082	624034.649045237422	1
7	6086	624808.299869312481	2
7	6100	626176.932590972154	3
7	6107	626756.565236182798	2
7	6111	627200.167402496231	3
7	6119	627965.793403113812	2
7	6137	629826.116975459105	3
7	6144	630147.649796668346	2
7	6148	630605.667717620529	3
7	6152	630758.102406599487	2
7	6157	631530.55460004584	3
7	6170	633137.38248354661	2
7	6184	634489.804545127833	1
7	6188	634768.773180932909	2
7	6195	635709.12263744714	1
7	6213	638210.812078657958	0
7	6217	638696.46253833571	1
7	6226	639669.56120452625	2
7	6231	640546.04950990858	3
7	6239	642554.335542338482	2
7	6248	643024.843252564006	1
7	6261	644500.588170601724	0
7	6266	645098.213604517673	1
7	6280	647602.01372568091	2
7	6288	648551.432714171864	1
7	6292	649356.534829556153	2
7	6300	651014.707043627463	1
7	6321	652252.333904683998	2
7	6330	653304.432833581402	3
7	6334	653533.403135233604	2
7	6341	654150.214307534858	3
7	6350	655110.98766110834	4
7	6354	655730.223625904447	3
7	6361	656100.262007282862	4
7	6367	656813.661378224778	5
7	6371	657064.655480648079	4
7	6375	657696.168215278487	5
7	6379	657851.692316866789	4
7	6393	658444.174071443684	3
7	6409	659394.694414390234	2
7	6413	659745.673945885664	3
7	6426	660894.104818697363	2
7	6435	661968.481881755473	1
7	6443	663400.05244995615	0
7	6462	666337.758849582747	1
7	6468	667168.303141428418	2
7	6471	670187.98718405984	1
7	6477	670505.272806162998	0
7	6494	671833.170724836083	1
7	6503	673316.682316355352	2
7	6521	676009.519618714825	1
7	6525	676013.829548247852	2
7	6529	676675.272800777956	1
7	6533	676956.85245744718	2
7	6539	677799.853133508837	3
7	6550	678732.096405981769	4
7	6556	679571.320618283131	5
7	6560	679776.939004890304	4
7	6570	680309.735741980874	5
7	6574	680364.678406215661	4
7	6585	681201.344398682752	5
7	6590	682028.899267740707	6
7	6594	682093.101862263657	5
7	6598	682408.617621982783	4
7	6605	682871.772141931819	5
7	6609	682873.792217780305	4
7	6612	683522.617943106062	3
7	6616	683686.765050048574	4
7	6622	684488.525500418963	5
7	6629	684816.357620916207	4
7	6638	685560.714852609451	5
7	6653	686298.25245402674	4
7	6666	687014.857210234888	3
7	6683	687448.373569824246	2
7	6691	688055.816298675825	1
7	6695	688657.918553709971	2
7	6699	688829.229425142577	1
7	6736	691034.647112901982	2
7	6744	692073.714632639669	3
7	6749	692583.044944878	2
7	6753	692798.935213379617	3
7	6765	694041.672112336882	2
7	6774	695885.508684639388	1
7	6783	696485.493899238981	0
7	6803	701654.209676478639	1
7	6814	702584.110090210879	2
7	6820	703501.913222266483	3
7	6825	704391.329762259062	4
7	6828	704966.513981990754	3
7	6841	705882.338024198632	2
7	6849	706636.664201701828	3
7	6853	707253.85186540704	2
7	6860	707605.897508038378	3
7	6869	708595.400908117359	4
7	6873	708739.982742324759	3
7	6877	709445.274188273443	4
7	6895	710433.903207240485	3
7	6910	711733.403163297174	4
7	6912	712024.402721936707	3
7	6920	712385.810557416816	2
7	6934	713225.225973243809	1
7	6938	713755.441087639139	2
7	6955	714960.995076533162	3
7	6962	715685.596012667798	2
7	6966	715724.319961455278	3
7	6972	716627.526150853631	4
7	6976	716835.409358635552	3
7	6988	718888.981482681179	2
7	6996	719216.564969125053	1
7	7001	719429.659800879847	0
7	7019	721208.742922668029	1
7	7028	722929.031628849343	2
7	7037	724132.168045962495	3
7	7039	724704.995289384095	2
7	7048	725985.018831849023	1
7	7057	727635.222753865321	0
7	7072	728995.517041469295	1
7	7084	730477.827221333045	2
7	7089	731315.761094949464	3
7	7106	732520.64478918787	2
7	7110	732940.125968799927	3
7	7115	733858.062664930208	2
7	7119	733893.936041987483	3
7	7124	734783.168699389895	4
7	7128	735136.280203530236	3
7	7136	735773.740927467806	4
7	7140	736188.982525074685	3
7	7144	736673.9020103999	4
7	7162	737490.894615020939	3
7	7173	738421.135206614603	2
7	7177	738537.0188900706	3
7	7186	739402.034594822402	4
7	7190	739761.161326072328	3
7	7197	740261.454490098885	4
7	7201	740330.36031244389	3
7	7212	741221.224294659548	4
7	7216	741998.388376952226	3
7	7220	742111.474607437841	4
7	7232	742963.15553023436	5
7	7236	743400.088106580543	4
7	7240	743856.350991039191	5
7	7245	744329.962121923163	4
7	7249	744763.30272444961	5
7	7253	744807.110660204098	4
7	7264	745699.066356304028	3
7	7269	745881.40953275888	4
7	7281	746496.772192491089	3
7	7285	747090.091519962476	4
7	7289	747381.992168275126	3
7	7316	748663.972106473796	2
7	7321	749164.873530234735	3
7	7340	750256.193757014849	2
7	7351	750731.869533915325	1
7	7356	751240.531417218461	2
7	7375	752715.058876869363	3
7	7384	753009.511659793901	2
7	7401	754469.617319104425	1
7	7410	756338.100980436207	0
7	7428	758262.116368518732	1
7	7436	759235.548127955798	2
7	7442	760094.076299595449	3
7	7451	761136.375707861479	4
7	7453	762138.518357616839	3
7	7462	763217.936807634645	2
7	7470	764216.576435243554	1
7	7475	764361.002892756838	0
7	7498	768375.973104416312	1
7	7503	769311.673951230126	2
7	7507	772085.099779599521	1
7	7525	773271.873561146859	2
7	7529	773444.537590941896	1
7	7536	774066.904869442133	2
7	7541	774813.004235228486	3
7	7550	777627.911260790249	2
7	7555	777710.698421457963	1
7	7573	778981.847181707036	2
7	7575	779070.193094483946	1
7	7590	782994.814647420737	0
7	7594	783019.090602131524	1
7	7608	784510.00549233305	2
7	7626	786452.990763858942	3
7	7634	786971.246125640914	2
7	7638	787432.004825354732	3
7	7642	787897.418988351334	2
7	7646	788384.61713862472	3
7	7652	789259.107420679796	4
7	7657	789905.864142748598	5
7	7667	790336.855210777659	4
7	7678	791029.381190377763	3
7	7692	792330.374002622722	2
7	7698	792765.429676939822	1
7	7702	792992.607104247372	2
7	7706	793430.609498043344	1
7	7711	793818.376626671784	2
7	7737	796491.704764277549	1
7	7741	796864.583895832059	2
7	7745	796987.974225245718	1
7	7750	797823.027727511476	2
7	7772	800225.160894588947	3
7	7778	800945.560143772674	4
7	7780	801011.488461127728	3
7	7785	801214.282488131691	2
7	7803	802521.739078613346	3
7	7805	803321.50780002901	2
7	7814	804471.189790124872	1
7	7823	806095.307051316129	0
7	7843	811069.0807311849	1
7	7851	812029.932880099331	2
7	7857	812785.356457829597	3
7	7866	814388.925225838389	4
7	7868	814507.800184246283	3
7	7876	815546.101345477338	2
7	7885	816199.176760846115	1
7	7899	817918.20138679871	0
7	7903	818607.519843918644	1
7	7917	820359.624195454907	2
7	7929	821897.248510952521	3
7	7933	822531.218379116007	2
7	7937	822842.418703241716	3
7	7946	824874.204647145733	2
7	7951	824982.366850642594	1
7	7962	826181.007338080506	0
7	7977	827608.029154659792	1
7	7986	828820.313151124819	2
7	7995	829993.987020410335	3
7	8006	831781.584119432744	2
7	8010	831800.368424179684	3
7	8014	832271.020133855571	2
7	8018	832696.314936250811	3
7	8027	833041.011053781367	2
7	8048	834447.852057378089	3
7	8053	835007.969887220963	2
7	8057	835252.835339813874	3
7	8069	836182.337298200441	2
7	8074	836715.995766112853	3
7	8082	838564.621619069454	2
7	8087	838663.671181436432	1
7	8098	839819.946251038471	0
7	8113	840988.717323564675	1
7	8126	843642.565425182306	2
7	8131	844475.175486782782	3
7	8133	844896.421571864469	2
7	8148	846175.515596111694	3
7	8156	847290.693477096953	2
7	8159	847644.91960229154	1
7	8163	848142.626351155471	2
7	8182	849656.272262234358	3
7	8184	849760.089023988326	2
7	8193	851615.32332546081	1
7	8202	853598.134889990368	0
7	8217	854854.018272530959	1
7	8226	856288.738475164516	2
7	8238	858149.507436572751	3
7	8245	858774.641420343934	2
7	8253	858980.724379884736	3
7	8258	859758.580111438402	4
7	8262	860231.341928437723	3
7	8267	860631.465702751394	4
7	8285	862016.817075325051	5
7	8287	862148.680381928309	4
7	8301	862661.375703540647	3
7	8304	863313.206364201421	2
7	8308	863333.034133722658	3
7	8321	864148.480236364327	2
7	8329	865341.347450520629	1
7	8343	866570.84306194133	0
7	8347	867040.884291793997	1
7	8356	870710.783526721864	0
7	8372	873342.448991747698	1
7	8382	876201.889478881762	2
7	8389	877142.250072190723	1
7	8394	877934.471687538893	2
7	8407	879119.24012664102	3
7	8410	879565.335031807099	2
7	8419	881334.212702333976	1
7	8432	882615.107599312289	0
7	8440	882966.186717299304	1
7	8448	883836.165894962956	2
7	8454	884763.508491260348	3
7	8469	886192.65403480572	2
7	8474	886606.270681959782	3
7	8485	887481.754806792251	4
7	8489	887533.691072824035	3
7	8496	888144.283396255439	2
7	8500	888337.910295109829	3
7	8505	889143.727743796813	4
7	8517	890112.377378553016	5
7	8521	890239.761898854373	4
7	8524	890702.442205627999	3
7	8528	891064.803144818505	4
7	8533	891612.942042356355	3
7	8537	891993.202776481641	4
7	8551	892804.225867732245	3
7	8578	894163.282600897027	2
7	8587	894956.510062623014	1
7	8595	895676.97515000341	0
7	8615	901273.159902155074	1
7	8621	902251.618086776882	2
7	8636	903438.879880502117	3
7	8644	904228.857631902668	4
7	8651	905018.141867075225	3
7	8656	905195.979347229156	4
7	8660	905860.671478664488	3
7	8664	905920.307695242815	4
7	8668	906643.625691909354	3
7	8672	906888.495299498761	2
7	8676	906984.164431316345	3
7	8695	908142.793157156488	4
7	8700	908679.509819275901	3
7	8707	909153.249335919766	4
7	8714	909613.700004334508	3
7	8718	910025.003979951193	4
7	8722	910074.490086736999	3
7	8730	910858.679647865264	4
7	8735	911640.473991820704	5
7	8739	911824.544992585679	4
7	8743	912288.08511318916	3
7	8750	912771.198005270571	4
7	8755	913577.392595367603	5
7	8759	913662.43273398857	4
7	8773	914458.444823979101	3
7	8797	915673.853129589867	2
7	8810	916134.891606525226	1
7	8828	916894.372141615962	0
7	8847	919040.122058026388	1
7	8861	920149.610705207322	2
7	8870	920848.810189639008	3
7	8878	921661.335939149855	4
7	8883	922325.477099027628	3
7	8887	922684.288409963043	4
7	8892	923678.229710804635	5
7	8896	923958.851701722954	4
7	8905	924146.905289447206	3
7	8916	925069.156211404081	2
7	8931	926122.245170557268	3
7	8933	926649.976976629824	2
7	8946	927191.575536876628	1
7	8951	927887.478746096171	2
7	8971	929355.252245639656	3
7	8975	929685.733501872621	2
7	8979	930221.818814910484	3
7	8987	930978.795325305069	2
7	8991	931116.684916575532	3
7	8996	931918.717256760736	4
7	9014	932928.50452368912	3
7	9018	933304.959534027062	4
7	9022	933613.136338358454	3
7	9034	934511.627599872981	2
7	9042	935082.60696852759	1
7	9051	936773.040206798165	0
7	9066	939132.008188484291	1
7	9075	940681.13808472706	2
7	9084	941492.50568731657	3
7	9091	942676.489895117817	2
7	9095	942814.676755560812	3
7	9103	944260.955378846551	2
7	9117	945622.057603771299	1
7	9122	946308.559716743282	2
7	9129	946440.036848859488	1
7	9138	947495.676931705519	2
7	9152	949367.899435007731	3
7	9155	949784.868306192837	2
7	9163	949972.815668458565	1
7	9175	950939.315836094264	2
7	9181	952056.514565946572	3
7	9189	953395.927958819434	2
7	9202	954447.322301430635	1
7	9207	955263.736266691887	2
7	9214	955688.945705338455	1
7	9232	957757.790037933198	2
7	9238	958481.819681727062	3
7	9240	958924.458644087463	2
7	9255	960827.308083863965	3
7	9257	961113.42802808923	2
7	9266	962014.452781973715	1
7	9275	964070.337519038663	0
7	9297	968179.046405733034	1
7	9303	969216.655072338959	2
7	9314	970242.3726171831	3
7	9323	970992.180407788159	4
7	9328	971888.153131934759	5
7	9333	972411.016782451545	4
7	9336	972530.397196732088	3
7	9340	972714.305364434627	4
7	9352	973426.303925459478	3
7	9361	974222.553289767808	2
7	9377	975290.712470290199	1
7	9382	975650.133516761076	2
7	9386	976351.337596600875	1
7	9390	976533.777833888667	2
7	9407	977708.797236775856	3
7	9415	978616.180092778375	4
7	9423	979074.068703930533	3
7	9430	979400.843625145027	4
7	9435	980165.905890509356	5
7	9440	980787.535495847365	4
7	9447	981026.197468613061	5
7	9451	981418.837509477971	4
7	9455	981949.57279267969	5
7	9465	982356.938149450265	4
7	9473	982698.616368216443	3
7	9491	983630.59663675256	2
7	9508	984816.871809417356	1
7	9512	985296.129512756755	2
7	9516	985339.602742522391	1
7	9535	988283.672128320989	2
7	9537	988308.571774709865	1
7	9555	989778.383799194776	2
7	9563	990699.602707796208	3
7	9569	991784.256087243737	4
7	9576	991915.018428733431	3
7	9581	992811.689572005621	4
7	9588	993674.37637455946	3
7	9605	994278.33532620328	2
7	9609	994907.606976191091	3
7	9613	995150.60240552996	2
7	9620	995892.768085531178	3
7	9629	996738.102069304713	4
7	9633	997004.298118039052	3
7	9637	997691.477569028899	4
7	9655	998863.700269551519	3
7	9673	999824.712306801639	4
7	9677	1000372.852039295558	3
7	9681	1000649.162923346771	4
7	9688	1000965.938590945104	3
7	9694	1001196.412849986427	2
7	9720	1002662.930315906631	3
7	9728	1003621.619612315401	2
7	9732	1003634.721545812683	3
7	9736	1004430.398077517389	2
7	9740	1004538.713775739546	3
7	9746	1005442.11528913049	4
7	9752	1006418.54941441483	5
7	9756	1006673.695192187737	4
7	9769	1006997.16253406902	3
7	9782	1008230.847870971775	4
7	9786	1008504.287647670449	3
7	9797	1009298.279382530048	2
7	9811	1009836.849381045421	1
7	9821	1010562.421641700461	2
7	9833	1011505.682976060171	3
7	9843	1012202.047211958624	2
7	9847	1012291.285754055389	3
7	9856	1013230.243638001241	4
7	9864	1014120.280754766012	5
7	9868	1014132.041487893381	4
7	9873	1015034.580100729763	5
7	9883	1015639.32199518806	4
7	9886	1015685.381299123993	3
7	9893	1016020.737941288125	4
7	9898	1016568.381710950188	3
7	9902	1016881.861751155435	4
7	9910	1017766.209685561029	5
7	9914	1018033.224802632683	4
7	9919	1018492.782279062704	5
7	9926	1018614.289159970437	4
7	9930	1019442.053934921541	5
7	9934	1019497.348908564277	4
7	9939	1020428.945451379144	5
7	9943	1020519.509699167498	4
7	9946	1020989.75673139963	3
7	9956	1021368.684193887734	4
7	9964	1021876.817279380384	3
7	9968	1022184.74045485676	4
7	9973	1023196.078790125024	5
7	9978	1023418.963751072991	4
7	9981	1023893.27295777999	3
7	9985	1024093.815716908476	4
7	9989	1024723.614126539161	3
7	9993	1024794.893123414009	4
7	10013	1025916.601432270995	5
7	10017	1025941.339575295984	4
7	10021	1026868.985018541751	3
7	10025	1026873.719348446838	4
7	10033	1027692.69275736545	5
7	10037	1027958.301137467202	4
7	10040	1028120.382020161715	3
7	10045	1028628.494101102712	4
7	10060	1028944.871336255413	3
7	10064	1029788.382193578612	4
7	10068	1029986.17667083201	3
7	10073	1030796.027184981488	4
7	10077	1030977.166994922203	3
7	10095	1031874.082283957323	2
7	10126	1033901.137465921299	1
7	10130	1033963.506352014639	2
7	10137	1034757.843665840499	1
7	10141	1034956.046303153055	2
7	10150	1035858.436016323627	3
7	10155	1036706.533535457593	4
7	10168	1037320.566851976995	3
7	10172	1037925.948509648637	4
7	10190	1039317.625534759346	3
7	10194	1039572.561984555907	4
7	10203	1039921.52266204945	3
7	10206	1039931.017761985767	2
7	10224	1041230.925427216439	3
7	10238	1041980.97904467951	2
7	10257	1042780.439503025807	1
7	10284	1044872.120389187295	0
7	10288	1044896.405685035717	1
7	10310	1046399.926007965179	2
7	10316	1047418.672273183577	3
7	10328	1048629.579379514871	2
7	10332	1048664.362068703084	3
7	10352	1049846.402038273938	2
7	10374	1051082.369316017496	1
7	10387	1052433.073369922814	0
7	10392	1052713.038787363685	1
7	10405	1054194.241913902932	2
7	10414	1055451.307536239207	3
7	10422	1056368.153182363768	2
7	10426	1057068.210306014296	3
7	10434	1058539.56631183693	2
7	10442	1059201.434637817287	1
7	10457	1060656.134476517652	2
7	10459	1060703.811680300633	1
7	10478	1063741.247266272264	2
7	10482	1064238.873231852153	1
7	10490	1064625.055402491757	2
7	10495	1065555.869801390559	3
7	10503	1067159.097734291446	2
7	10511	1067787.571947732732	1
7	10531	1069565.524774033233	0
7	10535	1069573.548176400922	1
7	10544	1070385.377600849933	2
7	10555	1071253.633044195263	3
7	10561	1072174.059008639076	4
7	10569	1073011.451745531011	5
7	10574	1073792.035095430178	4
7	10578	1073833.578921041958	5
7	10588	1074618.012743262925	4
7	10592	1074676.013356848221	5
7	10597	1075259.066060000401	4
7	10601	1075572.379797778952	5
7	10605	1075831.514101859612	4
7	10612	1076435.931391801018	5
7	10617	1076700.360606022388	4
7	10624	1077346.69268812986	5
7	10628	1077813.789414570546	4
7	10632	1078086.434644348119	5
7	10642	1078620.715908064137	4
7	10658	1079150.226646526329	3
7	10671	1080241.222893427444	4
7	10675	1080351.612705286968	3
7	10678	1081049.654167106345	2
7	10682	1081143.906232933868	3
7	10686	1081329.343646059456	2
7	10724	1083623.255248445147	1
7	10728	1083879.050556969636	2
7	10742	1084607.304474356982	1
7	10763	1086357.366914430441	2
7	10767	1086734.744344025895	1
7	10775	1087297.931071129151	2
7	10783	1088239.876296344527	3
7	10789	1089096.017396070516	4
7	10796	1089629.739500018231	3
7	10805	1090358.401967114052	2
7	10818	1091794.926277274178	1
7	10826	1092655.819214183227	2
7	10830	1093009.964882425629	1
7	10834	1093523.208262328284	2
7	10859	1095118.448313546723	3
7	10867	1095837.450178310386	2
7	10871	1095994.917842907921	3
7	10879	1096833.098610166882	4
7	10883	1097105.439533097096	3
7	10888	1097718.444772243777	4
7	10893	1098518.021477209616	5
7	10897	1098743.480352523015	4
7	10914	1099899.194642073322	3
7	10918	1099989.342967285504	4
7	10930	1100382.976612030545	3
7	10935	1101113.397353546604	4
7	10939	1101146.12242792625	3
7	10952	1101834.321351521748	2
7	10973	1103135.777607745375	3
7	10986	1103975.863586161978	2
7	10991	1104142.017593761202	3
7	10995	1104447.788821293194	2
7	11002	1105000.763089849212	3
7	11011	1105840.612389545361	4
7	11015	1106120.044139314464	3
7	11019	1106635.253891108827	4
7	11028	1107440.421447253511	5
7	11032	1108150.891324234893	4
7	11036	1108474.315835267454	5
7	11040	1108587.224151905549	4
7	11048	1109201.006379860583	5
7	11052	1109205.245031398713	4
7	11055	1109291.832094985724	3
7	11062	1109997.171958920288	4
7	11069	1110594.846336613256	3
7	11073	1110800.448594631592	4
7	11088	1111738.365079662696	5
7	11092	1112151.354634188135	4
7	11097	1112792.732867911727	5
7	11101	1113170.336030078317	4
7	11105	1113630.01588948259	5
7	11112	1114001.534396489955	4
7	11115	1114092.73554346627	3
7	11122	1114323.847129945186	2
7	11126	1114481.774994837528	3
7	11131	1115437.961872156739	4
7	11137	1116350.806334811642	5
7	11141	1116543.240207207348	4
7	11149	1116815.008363336976	3
7	11178	1118124.020828265097	2
7	11186	1118383.881470032605	1
7	11210	1119737.197684961136	0
7	11238	1121555.79060602907	1
7	11263	1123118.200433656598	2
