version 2
run ParkingMeasurement-61-20170106-02:04:49-12432
attr configname ParkingMeasurement
attr datetime 20170106-02:04:49
attr experiment ParkingMeasurement
attr inifile parkingStudy.ini
attr iterationvars ""
attr iterationvars2 $repetition=61
attr measurement ""
attr network SimNetwork
attr processid 12432
attr repetition 61
attr replication #61
attr resultdir results
attr runnumber 61
attr seedset 61
param SimNetwork.a.parkingLot.parkingDelay exponential(30min)
param SimNetwork.a.runway.landingTime exponential(15min)
param SimNetwork.a.runway.takeoffTime exponential(5min)
param SimNetwork.a.runway.throughputCheckInterval 28.571min
param SimNetwork.wg.interArrivalTime exponential(28.571min)

vector 7  SimNetwork.a.parkingLot  parkingOccupancy:vector  ETV
attr source  parkingOccupancy
vector 2  SimNetwork.a.landingQueue  queueLength:vector  ETV
attr source  queueLengthSignal
vector 1  SimNetwork.a.landingQueue  queueTime:vector  ETV
attr source  queueTimeSignal
vector 5  SimNetwork.a.runway  landedThroughput:vector  ETV
attr source  landedThroughputSignal
vector 6  SimNetwork.a.runway  tookoffThroughput:vector  ETV
attr source  tookoffThroughputSignal
vector 4  SimNetwork.a.takeoffQueue  queueLength:vector  ETV
attr source  queueLengthSignal
vector 3  SimNetwork.a.takeoffQueue  queueTime:vector  ETV
attr source  queueTimeSignal
vector 0  SimNetwork.wg  responseTime:vector  ETV
attr source  responseTimeSignal
0	1466	152101.266575259004	9531.2731239557
0	1471	152167.007656654632	8338.7886456417
0	1489	155638.1195563372	8732.6603032683
0	1528	162232.72571464457	12605.837898769
0	1533	162519.675888981657	8418.2652787526
0	1542	163321.107035764254	6768.4629531111
0	1550	163991.25414800333	4168.0331655683
0	1577	168064.69989232555	8035.3492988153
0	1626	174493.29232365575	7430.2013319995
0	1631	174565.180242866659	10078.476142648
0	1636	174713.181904963512	6087.2194848969
0	1645	175910.203341837092	7235.5686019695
0	1654	177376.746373660258	6623.9413452798
0	1671	178699.352479018709	7539.2127462144
0	1726	186606.836448740671	8441.6156599479
0	1743	187617.791953592648	5105.8540554453
0	1779	189211.028028665249	3776.4922934415
0	1784	189376.053350757847	3206.0485047648
0	1796	190341.403603538404	2947.9928186542
0	1816	192515.586170888803	13381.132550562
0	1821	193343.555709823633	12794.197675721
0	1826	193379.666105999961	5471.8501687973
0	1831	193468.029772187844	11785.547398196
0	1840	194584.211978092701	5770.395493258
0	1893	203925.830601085347	14529.445004907
0	1902	204137.402401921771	3971.798613099
0	1910	204336.883948794663	8878.6499734546
0	1918	204961.928628415303	2823.5200773394
0	1973	209714.355576521092	10697.825055622
0	1978	209894.945547063271	7222.0720973814
0	1983	210037.304313231186	4997.827343217
0	1988	210076.383423934378	4765.257894722
0	1993	210225.187583283177	4045.2564101242
0	2022	214280.557179529662	2466.7333411995
0	2077	219967.635203979412	12967.988218268
0	2088	220223.92601887452	7058.6344273258
0	2093	220233.625565376179	5581.5509114945
0	2101	220509.882390834988	5678.6357783392
0	2111	220742.866741844413	6514.1076933287
0	2171	228545.269975890567	10526.023180897
0	2176	228578.700156412152	11738.514842364
0	2181	228889.097146079643	8540.9461183064
0	2186	228908.72749751932	7855.4063450858
0	2191	229253.553626677145	5770.823520261
0	2196	229509.384878702421	8327.0986586067
0	2216	230497.248770458294	6619.1725742677
0	2230	232043.535254813064	2134.1528268936
0	2250	239402.82484119762	8925.9052941981
0	2276	243249.642997577588	4668.025983744
0	2294	246228.796316705483	5558.5308242588
0	2311	247118.532611582092	2051.1414049595
0	2319	247406.846261493947	5776.4265220759
0	2360	252249.850309735867	5745.6952016316
0	2365	252321.719232319023	3808.0126055954
0	2373	252692.154591809657	4411.1824422264
0	2520	265817.803476159613	17278.878918601
0	2525	266091.3321291082	13593.544802066
0	2530	266093.153392390365	13052.875413744
0	2541	266668.363170667406	13309.485112111
0	2552	267627.485812307669	13790.07298978
0	2557	267865.22270916902	13713.193400395
0	2565	267872.092709557941	13645.138457975
0	2570	267962.727530396517	11705.509420994
0	2575	267988.459398895438	10129.856937333
0	2583	268583.090971746421	11404.184437076
0	2589	269494.770214426612	8689.2652017888
0	2594	269696.764993318146	13646.804954325
0	2599	269947.159558046475	5214.6926160252
0	2608	271292.954637897385	13025.083411481
0	2622	272972.797781411842	6673.4080062039
0	2648	276701.208557285091	5682.6234538041
0	2665	278694.881352107368	3969.3460324423
0	2673	278886.640190167089	3218.0602952253
0	2692	284380.530422480253	7147.4776081561
0	2718	287843.538397876633	4481.2853752491
0	2735	288741.135417401349	2028.711112358
0	2762	293141.705420209118	8401.330941835
0	2771	295331.167223328605	6463.0450305214
0	2779	295877.420502320659	7879.1861248779
0	2845	302504.178669764667	12178.819982251
0	2860	303506.385733495558	7393.192839185
0	2865	303566.651143927695	6537.9472219818
0	2870	303885.635251286287	5846.9149703461
0	2875	304096.5934282092	7389.6067758129
0	2883	304381.401046941262	6340.1260369334
0	2914	307400.37431243676	7188.0928572767
0	2923	309035.277530670456	3361.8124190453
0	2931	310011.231516094816	5746.6607697599
0	2967	316646.998403060888	10045.069368611
0	2984	317730.776713654295	2542.5748396207
0	2993	319458.729316432331	3554.5944026311
0	3002	320924.435303989662	7268.9170928512
0	3224	350238.327009858256	33234.245738681
0	3229	350385.953374580649	28734.387769714
0	3237	350393.881358022782	27923.386540727
0	3255	351571.773254964805	29193.699549998
0	3305	355335.138665943066	29847.690241047
0	3316	356396.568700749129	31317.198576935
0	3325	356833.549665992797	29672.699859407
0	3338	357374.187410447511	30722.905160591
0	3665	391817.657839057537	63930.070994999
0	3670	391943.974815570856	62908.55674091
0	3675	392350.210823694922	64728.659260087
0	3681	392577.40237220461	60376.390658695
0	3689	392636.190885789852	59574.662801417
0	3702	392879.424560461374	57226.032956817
0	3710	393657.601932917908	53265.406392931
0	3715	393948.385066368652	62424.716178063
0	3720	394085.489680216723	46415.990944917
0	3729	394548.281736872004	52583.98244444
0	3750	395749.177881926133	49684.687254073
0	3780	397528.093615931933	46850.353420834
0	3785	397570.632870465645	46486.165304237
0	3790	397696.483082035308	49365.653251001
0	3795	397704.01794926352	44563.460655195
0	3804	397920.221337826527	46371.72123665
0	3809	398114.288216175568	43767.414085966
0	3814	398156.224211711346	41673.719621667
0	3819	398187.79536463708	40838.896810945
0	3827	398364.208138151937	38519.047090122
0	3874	400608.295507637851	38157.267402318
0	3879	400614.739051284259	40636.801591887
0	3891	401211.605532641806	42409.296067477
0	3899	401706.552116187743	38925.75710133
0	3904	401785.341779318059	37733.533165033
0	3909	402004.293556999542	43362.888931418
0	3914	402152.97894753427	37824.475620271
0	3919	402586.034053332058	38093.494100092
0	3924	402721.21440209693	37238.429393354
0	3929	402799.392234965685	35172.115429908
0	3937	402837.615030190644	33287.11458735
0	3943	402867.450969565068	33722.076474527
0	3948	402880.629733981545	36319.674049768
0	3956	403151.926595364488	28822.92199219
0	3969	404474.118684959161	34851.150383438
0	3980	404681.812687753326	34231.214175113
0	3994	405279.874356845529	29014.122264341
0	4005	406298.250714073896	29162.282499466
0	4010	406497.79106321712	27245.990468275
0	4015	406644.450255364303	29265.502952457
0	4020	406971.528021283001	26146.201988617
0	4025	407055.432150248535	22484.968078779
0	4030	407113.134981280521	22010.049273824
0	4035	407534.427991211436	17806.855113387
0	4044	408339.494319886605	17865.837306498
0	4054	408391.277195034567	13916.859960529
0	4059	408403.153777303481	22875.972767921
0	4064	408646.579252443789	12950.884792425
0	4073	409908.879080719466	15163.758044495
0	4089	411229.209056540795	14983.787520637
0	4095	411447.348969921053	18814.010551091
0	4100	411829.978861142522	12998.518726871
0	4105	412025.456764296999	15299.939967175
0	4110	412027.158940600596	13814.635958671
0	4115	412170.058760789459	12556.626403859
0	4123	412621.876168137772	12606.282299915
0	4140	413934.682204866319	10976.030743723
0	4145	413944.964279221212	9222.4284591455
0	4150	413976.694039650572	9746.0869846529
0	4158	414514.762905452934	6603.6635510471
0	4169	415071.919118138928	5838.519107841
0	4209	418470.439175529612	6077.6467865621
0	4214	418638.530348642357	4276.1666579163
0	4222	418784.26660018972	2833.9012212543
0	4227	418945.381839322323	3732.175940912
0	4246	424307.72019051594	7619.6075069123
0	4270	432860.616485011712	9593.2133172101
0	4285	435708.300190095851	5627.7853846375
0	4326	442079.686673002753	5310.645707545
0	4354	444626.395970555852	11838.022719499
0	4362	444929.576490333418	7025.7899222059
0	4379	447299.892900924848	5686.7437735487
0	4391	449014.785550897642	7207.4951481596
0	4397	449233.520016742365	9035.8484922205
0	4405	450144.519669769708	5845.4867658868
0	4440	454740.217346146628	9211.5441674179
0	4463	457024.578740601205	3406.7658889452
0	4468	457048.791659770042	3141.9585893449
0	4474	457742.959727137316	5975.184040364
0	4568	471244.378677444835	15916.30209028
0	4586	472191.511818220976	10396.689877199
0	4638	475991.578022928599	15819.453010716
0	4647	476711.068125133107	14595.134138773
0	4652	476768.967889112232	14571.434498395
0	4657	476875.004057531605	11177.416141904
0	4662	477129.131036373258	8915.0818511318
0	4667	477264.472875282901	12028.24009882
0	4672	477356.335349269863	5016.2721378128
0	4677	477506.770024866657	4517.7871701546
0	4693	478164.504538153971	5210.9035729864
0	4702	478308.993698887945	6732.570543576
0	4710	479399.852998476067	7976.2203226263
0	4719	480076.650194405	10025.371927855
0	4735	480714.768949036597	7143.589071211
0	4762	485710.380423794544	5334.6062062134
0	4770	486165.974260338168	3659.3590958857
0	4789	490894.905712097155	13192.258203732
0	4801	492252.254372215375	8825.9291329499
0	4851	496822.066923277823	7936.401997296
0	4866	497857.059924354307	5863.563892996
0	4871	498271.978374993427	4160.4947884617
0	4879	498680.68944918642	3160.9569603421
0	4893	499060.259053117153	5738.0900776478
0	4951	502061.641952204286	6457.4215899584
0	4961	502099.506567741038	3639.3518248351
0	4966	502202.22752263412	3200.2896353825
0	4972	502431.832569295453	2935.0582186805
0	4980	503613.808998668249	3977.3641389185
0	4989	504236.54605862971	4805.3458231852
0	5013	505630.890369377394	3827.1501201785
0	5022	506452.858394154932	2086.2589801515
0	5035	509902.638680030825	10470.644663771
0	5059	515364.745856220598	10123.994451652
0	5077	517842.52643310786	8053.5679079141
0	5085	518972.716428256883	8620.6709541641
0	5102	520061.22226979618	3219.3181636702
0	5127	522434.324431919769	2826.9313125084
0	5147	523525.290254098119	3277.0024707355
0	5188	525866.235928247847	3303.763835004
0	5193	526001.6891808877	5916.5201720368
0	5202	526385.61720709651	2976.5100740642
0	5213	527575.279487285978	3883.4758853673
0	5218	527600.790932845226	3643.2883162471
0	5297	537274.906673570473	6126.5747327262
0	5305	537277.480062509889	7720.6525299533
0	5318	537537.628928488464	5501.3633138379
0	5323	537830.660117344361	6862.1432864903
0	5331	538128.087011014928	13073.656528
0	5336	538179.217433220727	2821.6915755931
0	5345	538460.796373357289	5681.254839178
0	5371	542874.317506440202	9002.1953270442
0	5380	543681.28402535031	3208.5332270037
0	5388	544829.981296034188	7554.2967770212
0	5415	549265.822661916663	7463.2315714994
0	5521	562544.831895876037	16382.114766993
0	5532	563186.98888901133	11633.441090011
0	5537	563278.532157945164	13952.361115694
0	5542	563922.96402138906	11184.8809188
0	5547	563928.732137243391	16493.705572929
0	5553	564165.998255313808	14430.911223953
0	5558	564805.255454883502	11237.127778031
0	5563	565281.882461979747	10194.922040795
0	5568	565429.344115210844	11776.284943079
0	5607	570860.170491536761	11292.118343086
0	5615	571019.918821238036	5235.9886530537
0	5620	571033.491419344962	9152.5529523776
0	5637	572588.704941643629	3928.0127454874
0	5655	576359.607842863313	6896.4540475179
0	5676	580299.931296372487	4051.5501813651
0	5715	582305.144255959268	4053.4761237947
0	5728	582737.419405099183	11586.165733063
0	5737	582884.220409339445	3108.599680933
0	5753	584271.750964742305	3358.415308435
0	5758	584409.799833548582	3201.4144362504
0	5770	584857.67974308149	2795.8365942268
0	5788	586164.43894158753	3331.0591585628
0	5797	586808.888518099456	2324.6796665444
0	5814	588214.840506810303	3371.5465434223
0	5831	590323.668673809261	2774.9321221141
0	5857	594479.575801534065	2656.3075060972
0	5875	597019.440687280183	8066.8566355139
0	5883	597892.411755661852	5339.4520974819
0	5927	604052.390922848585	8436.5224489312
0	5936	605349.979404968429	6965.408105824
0	5945	607910.902229513592	8627.5099844179
0	5954	609103.64082179134	10903.625976865
0	5980	613079.103322315056	11311.292864907
0	6001	616546.456325930529	6676.8099347252
0	6006	616624.42747487781	4022.3178830241
0	6050	623288.018886168816	9415.2590311398
0	6059	624070.935953580554	2911.8061108053
0	6090	625983.932666714144	3810.1117896825
0	6152	629782.22593902932	13141.711196468
0	6157	629943.483713376978	8683.888272348
0	6162	629960.340809554775	4204.0700360258
0	6170	630520.34664728331	4541.1077011697
0	6175	630811.478742777331	4753.853174821
0	6181	630971.367794831074	4101.3260519495
0	6189	631374.050138415133	4972.782281555
0	6217	634361.522853351178	9472.7619768734
0	6231	635188.722808859631	3926.8868842973
0	6241	635944.327614517819	4016.5685006189
0	6250	637540.981554269702	10342.515117258
0	6259	637816.767313897521	4344.7211006495
0	6280	641303.619667107513	6170.7543600456
0	6312	646678.685322648253	6925.6567734999
0	6320	647469.322017144677	6272.6722136877
0	6337	648871.187970258674	5345.2366793304
0	6346	650032.936004521008	5611.7099681302
0	6366	656692.034254770399	8610.3515299119
0	6382	657456.984890862995	2242.1292612075
0	6411	665905.454196735177	5241.2033780515
0	6419	666731.138064248038	9742.3507778593
0	6437	668875.933802067461	3438.2478075095
0	6466	672741.840190712069	3361.6619838321
0	6488	674105.993579055604	5885.5835021148
0	6505	676295.672925467363	4920.5024442333
0	6513	676592.946775855095	3555.5656813975
0	6550	679532.129747738963	6845.7183673599
0	6555	679658.686454501146	4038.0690894897
0	6564	680971.11876575849	4080.8310803304
0	6581	682289.291412436067	5529.1293448188
0	6614	685178.380636341066	2353.9308303443
0	6622	685361.028879641598	3043.1049207391
0	6639	687283.816278334969	9522.33644795
0	6656	688082.426040492635	6655.2028441765
0	6664	688515.582998899005	4404.5124493107
0	6684	690021.797426152957	3697.9393595621
0	6689	690063.427877855861	2439.3245328946
0	6736	696776.017316132174	8071.5529697813
0	6741	696824.527345461536	3936.2333667124
0	6750	697920.102876587094	3920.4353657945
0	6782	701638.232002479697	5649.8758780676
0	6787	701639.8637440044	6890.2773298041
0	6792	702616.179913308137	4029.446156292
0	6810	704601.222819658849	5401.465485423
0	6838	706936.823987623551	2996.5387032906
0	6846	707660.149606759203	2817.2028621407
0	6913	711865.835231829907	4891.1206818855
0	6918	712101.989416611914	4147.3313574085
0	6929	712553.719418506276	3304.1776911682
0	6934	712612.27328359283	2803.0026110642
0	6943	713554.347800452354	8415.7376084689
0	6960	715499.213434297272	4690.324394645
0	6969	717010.447668292208	8992.3605501305
0	6978	718354.315847913922	9691.5432546043
0	7012	722912.418498575812	1846.4720351896
0	7020	723222.916916443933	8238.8242562673
0	7029	723482.19089336868	3216.1901736376
0	7072	732800.886438663207	10773.639283905
0	7077	732932.886572387049	4997.9766420952
0	7085	733109.054928284638	5129.3993339932
0	7138	740789.197399428764	9383.585424806
0	7146	741498.767648855366	8512.7273670055
0	7151	741764.420541235885	6779.7270199093
0	7159	742144.12177021561	8710.4768819516
0	7185	744544.436411604141	7444.3986586543
0	7193	745014.602485902964	2631.4481653704
0	7210	745809.550759409541	1630.8655396427
0	7220	750581.635847388703	14082.144741697
0	7238	752806.071587830316	7753.219129611
0	7260	759099.060507551617	6836.8182721334
0	7274	760134.706642961241	4439.5355936274
0	7362	770125.325161491573	11399.010237678
0	7367	770140.988324314898	6168.6784513176
0	7372	770353.535621860154	5657.6326049369
0	7377	770373.947101065764	8034.9838692148
0	7382	770380.062861246191	4342.9837529914
0	7387	770645.021650653274	5930.4915028156
0	7392	770700.313319479135	2863.7561905027
0	7419	775808.268141148124	7205.3472821323
0	7436	777543.11057728493	5002.3736354311
0	7445	779577.270635114508	4632.0090764908
0	7490	781925.526441078063	5104.6135231217
0	7495	782741.590096342492	2741.4094602731
0	7515	784980.356429039064	4959.8915808587
0	7529	785333.749386985273	4204.0567686826
0	7537	786472.948573869564	3360.8760495789
0	7591	791763.95254574081	6992.2152623287
0	7603	792447.118499598667	12090.293928432
0	7639	794266.873179149343	3487.7207655862
0	7644	794413.821202481425	4244.1955335579
0	7649	794799.546809476532	7261.8222577136
0	7654	794850.933941138161	6534.8702939442
0	7662	795094.686038908895	3320.9927534874
0	7682	796711.097548585734	5689.8931207745
0	7687	797057.658766658748	3336.4849321352
0	7696	797334.519653196736	4374.4357838735
0	7714	801289.000327835098	5545.2151143389
0	7759	805441.236406947077	3587.2286373912
0	7764	805592.669182030511	5162.914570561
0	7781	806691.552472685242	4927.3243232775
0	7790	807446.394617794207	3923.0627745864
0	7807	809806.238021210767	6737.3868261739
0	7822	812132.741998112486	6514.0591145283
0	7842	815220.975870709496	3427.6919297962
0	7851	816876.430614593245	8362.7965913677
0	8228	862109.543095394733	50271.218422024
0	8237	862300.307834748111	45149.268956568
0	8250	863122.491384239259	44746.665972186
0	8261	863625.100846418296	42926.737866584
0	8283	865357.035044640917	42894.023386116
0	8289	865706.11045481098	42460.350126559
0	8294	865993.398610684459	42155.367412323
0	8299	866237.076464114063	43119.923888661
0	8307	866913.541856104161	41529.6089032
0	8312	867255.153894746211	41273.759346096
0	8317	867347.159809016717	39011.912281609
0	8329	868234.117793716469	44005.101683603
0	8339	868780.018560861878	41477.349997925
0	8344	868805.612638248492	38291.464943797
0	8349	868898.3710871009	35571.559058294
0	8354	868924.15150221761	37431.913751086
0	8359	868983.75092415179	30960.825028482
0	8364	869073.139077238088	29591.916974639
0	8370	869271.658064303969	30984.272076769
0	8375	869417.900772271882	27225.877430629
0	8380	869583.930301767253	29139.543902955
0	8385	869735.710336611249	20960.983086349
0	8390	869796.260476809984	24087.485463689
0	8395	869859.894644761863	30142.282028785
0	8400	870141.306312049765	18967.650949197
0	8405	870269.850794293775	19512.011313106
0	8410	870569.641860051405	27386.192611027
0	8418	870820.281553825999	18188.7659796
0	8424	871250.25525396563	17682.835002239
0	8429	871521.435841821341	16139.139911475
0	8434	871919.869689561391	15628.541391912
0	8439	872247.238411241246	11543.449942749
0	8444	872490.272586117286	16971.506596805
0	8453	872869.857915147525	10659.786546342
0	8463	873259.02155112944	10000.917677319
0	8468	873289.835811249501	9481.0463285067
0	8524	877589.823487392208	3951.0742183252
0	8529	877592.436898020102	5033.9616018315
0	8538	877941.273611819816	9880.4480093479
0	8549	878116.877003959831	3817.1153057424
0	8554	878601.525305205681	4352.5532627319
0	8559	879189.919953336391	4932.1980925075
0	8577	881486.114258871652	6762.5319272141
0	8650	891297.481324522323	9736.9445123176
0	8659	891579.642530363533	5746.7494472435
0	8672	892708.082365726018	12087.304834109
0	8710	893929.376914699203	7820.1376466119
0	8715	893938.171467280728	6801.9969658306
0	8720	894121.830373082042	7111.8356504588
0	8744	894776.547182311092	7590.1933988609
0	8753	895192.178508376691	3844.8638961987
0	8761	895702.385258562802	1906.66643607
0	8799	898728.500817361222	5745.563029073
0	8807	899537.264568803883	6634.2565498932
0	8817	899893.089851709845	5225.786823382
0	8823	900084.954773284775	7572.4527325304
0	8828	900283.24624373585	5530.4829031214
0	8848	902288.819771697774	6046.9545299699
0	8853	902366.34559312462	4944.2304549153
0	8870	904216.467396262792	4980.9301240766
0	8919	909452.674527702186	8425.3605682944
0	8927	909933.549849169954	5111.6622675155
0	8947	910989.154608293616	7733.336360383
0	8960	911525.331363827672	6763.0655658869
0	9079	923871.223768358592	18314.322135423
0	9085	924266.475370184359	18512.827248809
0	9090	924279.448662516308	13310.523812525
0	9095	924368.587974470531	12521.428474425
0	9106	924958.659889258401	15217.910430396
0	9111	925014.261807763953	13519.294205465
0	9119	925308.953477153681	13043.450475106
0	9130	926446.162529308346	14403.74475833
0	9135	926830.731904462634	10791.925234879
0	9144	928151.579599272996	10864.04770358
0	9152	928535.955436557457	12121.594974114
0	9163	929173.961109085951	11570.745159393
0	9171	929263.074913210275	10093.112054652
0	9179	930486.364883646521	7996.2293144587
0	9190	931753.532738160925	6538.385420405
0	9207	933923.363293996213	4053.1236302279
0	9277	941340.85365284995	13061.210559952
0	9288	942018.117254119991	6160.9544148847
0	9293	942208.16912502521	10179.966692968
0	9298	942658.274519728706	6623.090357144
0	9303	942751.984384480727	4092.1904971977
0	9309	942879.657784002307	4872.3821265124
0	9327	946737.001410568263	8016.6832720746
0	9344	948878.702783949008	9887.4651608797
0	9353	950183.240719694593	5123.8244134896
0	9405	965257.690707071048	17114.503318562
0	9410	965710.531599490436	9054.1404384546
0	9424	966552.714746125765	8526.1809420918
0	9462	970337.912802123362	11800.2691724
0	9643	989396.047168672079	23312.186875787
0	9701	992318.38116415846	26247.648018639
0	9706	992523.741256565882	24014.356657846
0	9712	992736.417336565573	30238.394894675
0	9720	992873.841291896495	22543.257732603
0	9728	993244.854417730842	23174.1609709
0	9738	993540.060373796598	17892.30803595
0	9743	993796.682698981603	17149.341313019
0	9752	994370.658984045023	20698.994080951
0	9760	995313.607638608876	18972.253320305
0	9771	996863.906432755551	18492.498269215
0	9776	997117.007406616819	15907.943299813
0	9781	997156.037644588287	18058.535171128
0	9786	997651.100305842779	19714.593274154
0	9792	998405.769719671203	20838.30673186
0	9797	998626.120833654522	14290.682099922
0	9802	998627.546842681801	15460.72403866
0	9807	999370.841372516397	12918.153375703
0	9816	999775.494818983534	10814.459125924
0	9824	999814.113543472863	12782.363036918
0	9891	1008328.383143473876	18969.320831366
0	9902	1008802.395869221431	20108.835406376
0	9913	1009890.497771832268	19982.258529039
0	9918	1009934.951186511655	19751.410056425
0	9923	1009936.487683055302	16821.776701246
0	9931	1010210.589963247919	10418.281897983
0	9939	1010254.559386346631	8853.4865578049
0	9953	1012943.387470268985	18036.779956876
0	9958	1013033.242330698185	11565.423280556
0	9964	1013437.810512090098	10454.98253506
0	9969	1013649.603278936217	7813.663015661
0	9974	1013873.966608250284	6946.0949583919
0	9990	1014644.55220602349	6166.5209001801
0	9999	1015846.20609992877	5624.2545219348
0	10017	1019643.939196936232	5723.1055888685
0	10066	1029733.446210370675	5133.3385128535
0	10071	1029794.667494344708	11406.909825838
0	10097	1032535.929899056058	4364.8289713908
0	10134	1034503.55947004025	9792.0674481404
1	1454	150657.347261415628	1030.4594455404
1	1477	154101.410610229024	0
1	1495	156552.644082653132	0
1	1511	160235.669421461309	412.44843902632
1	1520	161354.748490269277	1325.397896759
1	1555	164486.704100218465	0
1	1565	167063.090991656254	0
1	1582	168625.962420066576	0
1	1590	168961.636939943484	287.00220007588
1	1609	172609.086233413024	1856.2812050326
1	1614	172885.377434310532	1725.2377015063
1	1659	178165.220788792732	0
1	1676	179134.453620327255	0
1	1685	180549.358034102946	0
1	1701	184765.538874090632	3083.0565000992
1	1710	185492.13109966641	2980.1932015191
1	1715	185891.888294626395	457.35255940267
1	1728	186606.836448740671	436.83160274763
1	1745	187617.791953592648	224.38116870847
1	1753	188069.776034280193	161.96009707755
1	1768	188873.501772921368	59.685288086638
1	1798	190341.403603538404	945.01800736027
1	1846	195458.233975340044	0
1	1856	199016.530520899213	0
1	1865	201542.437202290725	1376.8334134679
1	1880	203129.149486253688	990.74093517782
1	1885	203841.411397940699	1168.5379482588
1	1923	205039.476970014156	0
1	1931	205311.125529212386	0
1	1950	208343.801109753036	2163.8699365941
1	1958	208870.621680948506	1870.9746952373
1	1999	211813.823838330207	0
1	2008	213165.29159154874	0
1	2024	214280.557179529662	51.798131013986
1	2043	216930.840366707	2278.7657128253
1	2055	218812.388262183849	3981.1416496881
1	2060	219320.23175500951	2480.0464409616
1	2066	219496.206053166241	1476.959258173
1	2103	220509.882390834988	161.73136306176
1	2116	221053.321152433489	0
1	2139	224840.157371320009	3657.8711512243
1	2147	225276.723866157351	1793.9937597412
1	2156	226901.429390291844	3023.3531941013
1	2202	229909.382427919423	0
1	2218	230497.248770458294	20.329223458819
1	2239	238581.617013833627	0
1	2256	240670.265492446639	0
1	2265	242361.718911060573	731.29917164255
1	2282	245067.391206622582	0
1	2299	246504.15510810426	0
1	2324	248280.972149583281	0
1	2336	249174.166583640132	660.45995691654
1	2345	251088.481695153732	2549.5571375947
1	2375	252692.154591809657	194.36726476723
1	2386	253400.008314614674	359.73033596842
1	2404	255198.656829900961	1839.7787713449
1	2420	257288.935601831424	3451.5227793034
1	2438	259719.589381758811	5567.5600729849
1	2443	259722.992044775664	5496.0377931925
1	2451	260063.255715091594	4013.2956760982
1	2466	261345.824913844491	5088.606804442
1	2472	262837.661289811167	5658.7547551409
1	2480	262899.829694935385	5041.2272333725
1	2489	264122.014445663239	5854.1432192469
1	2494	264716.049102388465	3910.5440897507
1	2508	265367.825443160362	635.35850113904
1	2543	266668.363170667406	368.97339545948
1	2610	271292.954637897385	274.36953441635
1	2628	274725.535319665073	0
1	2636	275668.579894941809	0
1	2653	277233.052814324112	0
1	2681	283362.253022627552	0
1	2698	284740.374478374112	0
1	2707	286712.424305043324	0
1	2724	287998.234377442776	0
1	2740	288868.12219280722	0
1	2749	290325.358687513811	0
1	2784	296113.192894310525	0
1	2793	296721.974047750519	14.987395354232
1	2811	299321.078502274599	2292.3745803287
1	2819	299579.190534172506	1540.4702532324
1	2824	299963.716520010044	1922.4415100022
1	2833	300454.273815233741	241.99236007372
1	2885	304381.401046941262	116.83030060639
1	2894	305673.465111625174	0
1	2906	306906.586629327792	304.6575948776
1	2938	313655.518211138464	0
1	2948	315550.487499629303	362.28562559571
1	2959	316493.231632031347	589.0967182301
1	2972	317004.081271177069	0
1	3007	321651.565604866475	0
1	3019	323694.441087799935	1316.3673828334
1	3048	328246.631104214207	5776.1362869182
1	3060	329182.617828278458	4103.2477044644
1	3065	329408.84197077482	3921.3935458785
1	3076	330463.826561253719	3812.5443113971
1	3089	332731.179315005908	5570.3295084202
1	3100	333950.93764442572	6329.3860808175
1	3113	336342.088980963689	8454.5021369051
1	3125	338406.232780952866	9370.814706292
1	3130	338872.20724317219	7348.5383548669
1	3139	339608.037529979638	7407.0258164699
1	3154	341681.267395431157	8619.7393110585
1	3163	343599.039977149618	7945.6483735054
1	3168	343992.577595068608	3600.3820550821
1	3180	345710.256089649346	3745.956797217
1	3192	347486.244311334791	1421.7536834817
1	3204	348867.85483738497	1198.3561020852
1	3212	349194.956065940699	864.12623490639
1	3257	351571.773254964805	894.03305986662
1	3265	351926.976464617307	842.50889838873
1	3270	352284.382345480855	735.88224430391
1	3282	353236.047017939683	95.489723870734
1	3290	354556.556688721402	209.68255851211
1	3327	356833.549665992797	351.04507594843
1	3340	357374.187410447511	25.28885675548
1	3362	361447.173181869433	2805.7685562877
1	3367	361569.029517257962	2766.7200520928
1	3383	364124.422192031489	4279.2611440018
1	3400	364694.123674520328	4716.1862151228
1	3412	366761.482377150851	4310.4542718305
1	3418	367397.341251525526	4616.546236668
1	3430	368990.128668780945	4938.3200544963
1	3447	369860.362842708633	5531.8595154449
1	3462	371162.712233495995	6670.1722802557
1	3470	371381.820866646336	5899.0358579035
1	3483	373820.017174368356	7259.061490155
1	3509	378892.70810387521	11265.431298818
1	3521	380791.489505002545	11646.115009964
1	3529	380866.998813436141	11316.498370595
1	3537	380944.281751381073	11321.313449859
1	3542	381794.61484437991	11344.01633174
1	3557	382974.029134301414	8645.0245311266
1	3562	383667.03984769979	7401.2877551952
1	3571	384750.853201658561	7614.8849870507
1	3582	385184.293063952027	7805.3457610444
1	3600	386341.187012518269	7089.3864175761
1	3605	386610.683122354389	5785.3570896882
1	3613	387222.068303921556	2651.6042324515
1	3629	389832.41136308187	4729.3256556258
1	3634	389989.966179313759	4462.7851699313
1	3639	390018.723980063812	291.15110223943
1	3657	391642.319925998233	1168.6629126096
1	3691	392636.190885789852	2.852466959852
1	3731	394548.281736872004	73.864502366314
1	3739	394971.797426153168	226.676389929
1	3752	395749.177881926133	53.483421907405
1	3764	396666.223171754584	420.80163585085
1	3772	396959.068413814529	233.55161669248
1	3829	398364.208138151937	151.68515622282
1	3840	398958.916339685808	127.45620541473
1	3861	400052.105371450922	438.67301452049
1	3866	400457.861141804572	442.26727358217
1	3958	403151.926595364488	193.2751342216
1	3971	404474.118684959161	243.51162996148
1	3996	405279.874356845529	557.3385367698
1	4046	408339.494319886605	428.39496548075
1	4075	409908.879080719466	675.47907042159
1	4125	412621.876168137772	229.08377917028
1	4160	414514.762905452934	152.39921472684
1	4174	415213.205898410283	0
1	4185	416319.780608675096	369.41522973966
1	4194	417044.832864858601	356.72018125495
1	4234	423267.403167801568	0
1	4254	430080.514805458356	0
1	4272	432860.616485011712	72.243233954864
1	4290	436769.040965457717	0
1	4299	438355.395025447407	451.60845731993
1	4308	440197.671524521898	0
1	4328	442079.686673002753	466.53754562664
1	4337	443436.565456791645	1629.2750540536
1	4346	444338.15358650885	39.120682625945
1	4367	445528.67317872877	0
1	4411	451767.775686773302	0
1	4420	453617.812851655975	0
1	4428	454205.107111015975	298.27404059084
1	4445	455328.07658716441	0
1	4480	460172.125012212368	0
1	4489	461794.821941022292	0
1	4500	462670.885122385238	554.95113602534
1	4509	463831.889734695225	1634.3563439782
1	4528	466988.002691961271	1751.7699154988
1	4537	468796.418175472258	3098.8302598449
1	4546	470028.196847808515	1814.1476625671
1	4557	470673.07094661295	621.79268006317
1	4588	472191.511818220976	767.87914237124
1	4596	472826.352419391629	1249.9292640797
1	4608	473318.793431681969	978.73022022487
1	4616	473735.56355475726	781.96258958973
1	4621	473857.439423769801	868.45656905776
1	4626	474409.566516265586	838.38663844002
1	4682	477702.647508364843	0
1	4724	480375.774217581184	0
1	4741	482506.615164452491	0
1	4750	484502.055304196486	1075.730064931
1	4777	488885.664925981774	0
1	4803	492252.254372215375	258.75834085705
1	4811	493408.649517738733	86.48054226937
1	4820	494184.395430807559	72.911844275786
1	4838	495771.155936136809	251.42344729252
1	4843	496038.336042511685	434.11568026583
1	4881	498680.68944918642	220.53470628052
1	4895	499060.259053117153	58.321165865567
1	4906	499438.583531302151	7.383295857645
1	4923	500303.968117742089	871.97410148179
1	4928	500536.880345152793	1040.1059945378
1	4934	501201.475184712585	1565.0303249629
1	4953	502061.641952204286	257.90170300538
1	4994	504366.59941400346	0
1	5002	505240.751404568844	0
1	5037	509902.638680030825	113.68015483703
1	5047	512800.227727338133	2448.1822532454
1	5065	516841.904106125979	0
1	5091	519607.393119411404	0
1	5107	520085.169008850935	0
1	5115	521112.684824067888	864.39704070532
1	5132	522562.472093243815	0
1	5149	523525.290254098119	116.1831210658
1	5157	523691.803601918719	0
1	5169	524979.924262404099	1022.421645806
1	5180	525851.245660205261	796.81517719038
1	5224	529556.827532556587	0
1	5240	532078.188172647095	1109.671341793
1	5245	532358.563114607918	1210.2311737636
1	5257	534441.523369326814	2405.2577546763
1	5262	534681.592542385546	1902.0510082062
1	5267	534809.23364419555	937.11146479957
1	5289	536612.118607706735	1254.5927500791
1	5307	537277.480062509889	1.795543496916
1	5351	540472.750798346576	0
1	5363	542166.405045224907	363.81395480767
1	5394	546162.717128882936	0
1	5403	547435.026564314309	0
1	5420	549326.171042251449	0
1	5450	556014.726349738461	6279.6393183776
1	5455	556128.909730880599	4575.3619318801
1	5460	556436.686690470289	3698.6035878809
1	5465	556496.519166663402	2928.3914898113
1	5476	557101.221251936715	3448.1620798046
1	5496	560693.016617901118	5606.0561967167
1	5507	562221.718467600939	2653.6663191506
1	5513	562324.420209845761	443.48174287838
1	5574	565783.93016818436	0
1	5586	568738.450320922224	77.758124765995
1	5595	570175.570332373485	712.41653702804
1	5625	571151.253672036305	0
1	5644	576248.381115007361	0
1	5661	578251.66813216453	0
1	5678	580299.931296372487	524.31056796606
1	5686	580913.335656307331	0
1	5695	581324.192356415046	115.80695911689
1	5717	582305.144255959268	243.30110710459
1	5739	582884.220409339445	50.840626314679
1	5772	584857.67974308149	373.47089152645
1	5777	584960.865509031512	117.57154564351
1	5802	587548.736551695154	0
1	5819	588952.584051766236	0
1	5837	591823.268295436853	0
1	5846	593268.430141067964	715.47048288804
1	5863	595615.868473917357	0
1	5888	598200.01484492611	0
1	5897	598434.302471903129	49.731172758685
1	5906	601416.632264026806	2133.2400189311
1	5919	603765.039329591538	1997.2288721832
1	5959	609869.64639120537	0
1	5969	612602.109591853755	0
1	5986	613872.759855029022	0
1	6011	616640.514742561769	0
1	6022	621159.129842775273	0
1	6030	621295.401025391363	35.805584362419
1	6038	622173.820877031606	0
1	6064	624888.760876477766	0
1	6073	625756.270773528979	0
1	6092	625983.932666714144	4.693720600488
1	6103	626401.621745454434	343.99617749812
1	6118	627611.407712792017	1210.1398559318
1	6129	628742.235887008802	1872.1941441272
1	6138	629178.394371823693	1979.9279348117
1	6191	631374.050138415133	112.21421385279
1	6203	633831.34289457898	1903.58378068
1	6208	633881.971003921336	409.92479067336
1	6233	635188.722808859631	55.857501797676
1	6265	639753.028549148359	0
1	6282	641303.619667107513	106.96986365057
1	6291	643525.951290928294	0
1	6303	645765.057521500022	1343.8314851092
1	6326	648081.682724858492	0
1	6354	655214.855629655522	0
1	6371	656988.787286388742	0
1	6389	660664.250818683673	0
1	6400	665437.685994557921	0
1	6425	668220.410076940818	0
1	6442	669380.178206880004	0
1	6451	671375.170481234022	0
1	6468	672741.840190712069	55.42881033302
1	6480	673901.991369680427	864.6102752228
1	6494	675620.6173650114	0
1	6518	676760.162067617298	0
1	6533	678523.618645899135	1633.3309604711
1	6538	678839.679506553704	1078.1996761687
1	6569	681427.223196316119	0
1	6586	682317.923958902476	0
1	6594	683579.548128152038	755.09832215528
1	6603	684111.070549588265	0
1	6628	686323.858066590884	0
1	6645	687624.103344961233	0
1	6669	688704.464346350833	0
1	6696	692888.293978749097	0
1	6704	693999.667510792588	0
1	6716	695002.960720747864	253.37430654755
1	6728	696341.773766046341	353.41764163423
1	6755	698586.733757016136	0
1	6764	699593.197199534527	393.43986529867
1	6798	703940.285284332923	0
1	6815	704842.946744618492	0
1	6823	705138.610191983494	0
1	6848	707660.149606759203	685.4350568148
1	6857	708007.019946361868	52.361887158438
1	6865	708202.79474067346	184.70762251174
1	6876	708921.587742014428	258.81514870484
1	6884	709413.152250717861	163.61052337979
1	6896	710512.425396757148	703.15472422856
1	6904	711316.562911060806	507.67387140854
1	6949	714984.092660176611	0
1	6984	720266.000719731081	0
1	6996	722226.465883457264	1160.519420071
1	7001	722279.618664574749	252.37150981697
1	7036	727934.909930291898	0
1	7045	729991.84066933616	2012.1850750447
1	7057	731451.364356967622	45.752382344833
1	7087	733109.054928284638	123.01464643473
1	7107	737361.758603262394	3928.1137149984
1	7115	738708.472012738873	3723.7784914123
1	7121	739266.776383071065	2767.285277379
1	7129	740216.94221130021	3116.9044583504
1	7165	742383.154320532576	0
1	7174	744178.685219766792	0
1	7198	745052.852458219271	0
1	7226	752262.242235418219	0
1	7244	755695.171049333875	0
1	7262	759099.060507551617	372.74558373795
1	7280	762338.963231850947	0
1	7289	764160.393488207629	188.08361521035
1	7301	764846.072458248782	150.16944132548
1	7312	766160.01756280015	1445.4874149625
1	7321	766583.561332119824	546.482223865
1	7336	768272.025564316017	435.46843533956
1	7344	769013.264218724003	410.34335970814
1	7398	772540.73694185381	0
1	7408	775104.267938073553	159.00637944985
1	7425	776820.912917956339	0
1	7451	780000.180636069401	0
1	7459	780331.722724842371	311.25787666203
1	7470	780881.699215785121	524.87464461875
1	7481	781608.208728206787	478.51610990415
1	7500	783112.072524290709	0
1	7517	784980.356429039064	208.61914562692
1	7543	787537.724551762934	0
1	7551	788316.063647193999	0
1	7567	790848.997216604206	679.37154768067
1	7575	791226.269656232559	447.11724266942
1	7580	791236.503988867361	215.2995610561
1	7605	792447.118499598667	673.42521417713
1	7616	793044.185657574567	84.101788251356
1	7628	794032.12765102362	310.95381650012
1	7668	795743.78521349624	0
1	7702	800429.75461146952	0
1	7719	801764.228149407783	0
1	7728	802557.19146725605	703.18369770013
1	7736	803068.85119503686	0
1	7745	804141.599472897994	618.26762969021
1	7769	805618.682883584187	0
1	7795	808513.634023225514	0
1	7824	812132.741998112486	339.4580571992
1	7830	812713.734771820494	875.41009844943
1	7856	817151.038878179694	0
1	7865	818375.825412052797	0
1	7877	820916.302292364166	217.93931253034
1	7890	822876.437187416244	413.42552889135
1	7914	825484.915358928832	2367.7627834761
1	7933	828889.455546791476	5643.6952185398
1	7950	833227.620875563986	9389.5896772029
1	7958	833622.120759999254	9393.1046498857
1	7963	834111.60221955202	8727.669266648
1	7974	834769.357428842808	8787.962880193
1	7983	835984.379143075461	8681.7105801384
1	7988	836177.342170532583	7842.0946431247
1	8001	838283.81058911091	7769.6628946597
1	8016	840114.705437701176	8622.4676865691
1	8030	840779.571385798439	7452.7593569916
1	8052	843495.5070144006	5472.5811187306
1	8057	843608.002047803944	5320.6160602689
1	8073	847332.890810449411	7851.6687078504
1	8081	848248.749570163526	8531.1369541871
1	8090	849707.594290437521	9263.2078916249
1	8109	852777.487434824085	10585.464093181
1	8117	852937.085551625728	9753.636302601
1	8122	852991.043033490641	7282.2680203693
1	8133	853338.930687412364	4564.2034371505
1	8141	853615.329128998868	2857.4896478116
1	8147	854589.032217495667	3415.3768546432
1	8165	855603.878749198684	2972.3631749724
1	8173	855845.754220093893	2278.3339683676
1	8192	859063.933975641447	3681.6380452948
1	8204	860784.660623517897	5265.8946342055
1	8209	861189.450922045129	4898.1226243958
1	8214	861202.990178826557	499.20171033412
1	8239	862300.307834748111	90.236465942248
1	8263	863625.100846418296	366.9969726078
1	8275	864115.422451168697	306.63296842591
1	8331	868234.117793716469	173.29219124455
1	8455	872869.857915147525	311.38261895894
1	8473	873638.74926906696	0
1	8488	874546.72083446011	297.7487919863
1	8496	874783.75777780978	526.03591698094
1	8504	875481.028427109552	1181.2667288921
1	8512	875975.416654986198	1251.8343233287
1	8565	880620.77753161721	0
1	8582	881560.536812204712	0
1	8592	885832.893083120072	0
1	8600	886109.239268087262	0
1	8615	887660.636094900773	650.6413722775
1	8623	887983.854424122745	847.67992267265
1	8635	889549.280839745198	2362.927056295
1	8661	891579.642530363533	232.32791818555
1	8674	892708.082365726018	195.58032497164
1	8689	893293.766521477592	390.75850256689
1	8694	893788.165551238732	805.22776295046
1	8702	893867.112757288837	71.393934796084
1	8725	894667.303028327877	0
1	8733	894752.763340614413	0
1	8766	896241.865241727884	0
1	8781	897468.354438761886	46.239300552524
1	8809	899537.264568803883	301.7272966177
1	8833	901027.313959407802	0
1	8858	903255.818247910589	0
1	8875	904762.265797940808	0
1	8894	907674.682492711817	2852.7949110574
1	8899	908135.717058920957	2578.8154259851
1	8904	908185.039170054181	2431.3910486787
1	8929	909933.549849169954	192.80039030773
1	8949	910989.154608293616	20.22975830216
1	8962	911525.331363827672	30.363761528335
1	8980	913202.25009609031	1355.0905960443
1	8985	913495.378930125807	1452.9611591473
1	8990	913621.963660659554	1356.4606586122
1	9015	916618.391016119892	579.58434653593
1	9027	917850.563937696503	1436.2034752534
1	9042	919629.392082656782	2341.8601869635
1	9048	922072.633499830209	4469.4175501376
1	9054	922383.776200033302	3213.8133414749
1	9071	923272.203686229906	782.06811704211
1	9121	925308.953477153681	93.806159397733
1	9154	928535.955436557457	256.3123436598
1	9181	930486.364883646521	616.12521987826
1	9195	932028.202432057155	0
1	9213	935857.162839235275	0
1	9226	938445.470925803398	2410.2867632187
1	9231	938591.475502985122	584.19984549522
1	9242	938778.928675203414	119.13478792037
1	9254	939613.972422939711	893.65428444609
1	9262	940534.030526645173	1542.7929035759
1	9315	945059.416306204967	0
1	9333	948143.187388508596	0
1	9362	956656.391161035826	0
1	9370	958026.53380403394	0
1	9387	963014.683669779028	4477.0400400557
1	9393	964161.718288345883	1663.6958464554
1	9426	966552.714746125765	481.98160060649
1	9432	966992.633106030956	908.77281314617
1	9440	968509.384598719599	0
1	9464	970337.912802123362	267.21935529282
1	9473	972360.507073247698	2029.9235139543
1	9488	974583.305986058718	911.64108296466
1	9497	975722.727077220174	74.974739373935
1	9524	978489.190640427269	2147.8363221233
1	9533	980061.028680104506	3413.6872941415
1	9538	980302.587070138882	2735.1240823281
1	9544	980662.07816607088	2725.5711343818
1	9562	982492.395916795051	4120.9877532542
1	9570	983261.033907215591	4163.5314337557
1	9575	983576.655517543092	2367.5914107396
1	9590	985546.327852130981	2379.5050481087
1	9595	985605.940303207642	1270.5015694755
1	9620	987982.389721772599	1529.7017249592
1	9625	988029.916264345321	998.16575779076
1	9645	989396.047168672079	702.48670582697
1	9653	989829.708250951077	868.67255789164
1	9661	990151.204532965694	792.14222085786
1	9672	990540.337157031819	632.09791423816
1	9683	990683.560529444828	500.01939935784
1	9730	993244.854417730842	130.14343592108
1	9762	995313.607638608876	407.00012521556
1	9826	999814.113543472863	21.805478207892
1	9839	1002946.254902995457	1545.1820744537
1	9848	1004846.078137076926	3378.2590869343
1	9856	1005426.219580498996	2443.3916034689
1	9868	1006547.136537894741	711.19627461954
1	9883	1008190.809600339177	1262.9379504807
1	9904	1008802.395869221431	324.36456337806
1	9941	1010254.559386346631	32.60780835264
1	9979	1013920.833608067768	0
1	10006	1018387.757668506994	0
1	10025	1024600.107697517142	0
1	10037	1025606.665077313531	895.1730554137
1	10043	1027959.888846402191	3219.0639151723
1	10058	1029623.816250798763	1452.7153231335
1	10076	1030113.5205824836	0
1	10085	1031377.625068385969	0
1	10102	1032602.685810676171	0
1	10110	1032845.977477164896	3.649343653231
1	10136	1034503.55947004025	109.96990215215
1	10148	1035710.117775723123	482.51031601472
2	1454	150657.347261415628	0
2	1475	154101.410610229024	1
2	1477	154101.410610229024	0
2	1493	156552.644082653132	1
2	1495	156552.644082653132	0
2	1503	159823.220982434991	1
2	1506	160029.350593510272	2
2	1511	160235.669421461309	1
2	1520	161354.748490269277	0
2	1553	164486.704100218465	1
2	1555	164486.704100218465	0
2	1563	167063.090991656254	1
2	1565	167063.090991656254	0
2	1580	168625.962420066576	1
2	1582	168625.962420066576	0
2	1585	168674.634739867602	1
2	1590	168961.636939943484	0
2	1600	170752.805028380422	1
2	1603	171160.13973280427	2
2	1609	172609.086233413024	1
2	1614	172885.377434310532	0
2	1657	178165.220788792732	1
2	1659	178165.220788792732	0
2	1674	179134.453620327255	1
2	1676	179134.453620327255	0
2	1683	180549.358034102946	1
2	1685	180549.358034102946	0
2	1688	181682.482373991434	1
2	1695	182511.937898147343	2
2	1701	184765.538874090632	1
2	1705	185434.535735223725	2
2	1710	185492.13109966641	1
2	1715	185891.888294626395	0
2	1723	186170.004845993041	1
2	1728	186606.836448740671	0
2	1740	187393.410784884175	1
2	1745	187617.791953592648	0
2	1748	187907.815937202645	1
2	1753	188069.776034280193	0
2	1763	188813.81648483473	1
2	1768	188873.501772921368	0
2	1789	189396.385596178138	1
2	1798	190341.403603538404	0
2	1844	195458.233975340044	1
2	1846	195458.233975340044	0
2	1854	199016.530520899213	1
2	1856	199016.530520899213	0
2	1859	200165.603788822776	1
2	1865	201542.437202290725	0
2	1871	202138.40855107587	1
2	1875	202672.873449681857	2
2	1880	203129.149486253688	1
2	1885	203841.411397940699	0
2	1921	205039.476970014156	1
2	1923	205039.476970014156	0
2	1929	205311.125529212386	1
2	1931	205311.125529212386	0
2	1935	206179.931173158986	1
2	1944	206999.646985711187	2
2	1950	208343.801109753036	1
2	1958	208870.621680948506	0
2	1997	211813.823838330207	1
2	1999	211813.823838330207	0
2	2006	213165.29159154874	1
2	2008	213165.29159154874	0
2	2019	214228.759048515676	1
2	2024	214280.557179529662	0
2	2031	214652.074653881708	1
2	2034	214831.246612495779	2
2	2038	216840.18531404791	3
2	2043	216930.840366707	2
2	2050	218019.246794993211	3
2	2055	218812.388262183849	2
2	2060	219320.23175500951	1
2	2066	219496.206053166241	0
2	2098	220348.151027773229	1
2	2103	220509.882390834988	0
2	2114	221053.321152433489	1
2	2116	221053.321152433489	0
2	2120	221182.286220095728	1
2	2127	223482.730106416112	2
2	2130	223878.076196190565	3
2	2139	224840.157371320009	2
2	2147	225276.723866157351	1
2	2156	226901.429390291844	0
2	2200	229909.382427919423	1
2	2202	229909.382427919423	0
2	2213	230476.919546999475	1
2	2218	230497.248770458294	0
2	2237	238581.617013833627	1
2	2239	238581.617013833627	0
2	2254	240670.265492446639	1
2	2256	240670.265492446639	0
2	2259	241630.41973941802	1
2	2265	242361.718911060573	0
2	2280	245067.391206622582	1
2	2282	245067.391206622582	0
2	2297	246504.15510810426	1
2	2299	246504.15510810426	0
2	2322	248280.972149583281	1
2	2324	248280.972149583281	0
2	2327	248513.706626723592	1
2	2330	248538.924557559069	2
2	2336	249174.166583640132	1
2	2345	251088.481695153732	0
2	2370	252497.787327042431	1
2	2375	252692.154591809657	0
2	2378	253040.277978646251	1
2	2381	253358.878058556018	2
2	2386	253400.008314614674	1
2	2393	253837.41282252805	2
2	2396	254152.029308773935	3
2	2399	254226.954251583121	4
2	2404	255198.656829900961	3
2	2408	256049.960038993358	4
2	2411	256257.218109402509	5
2	2415	257178.906534670256	6
2	2420	257288.935601831424	5
2	2429	257858.6024615629	6
2	2432	258267.871226416374	7
2	2438	259719.589381758811	6
2	2443	259722.992044775664	5
2	2451	260063.255715091594	4
2	2461	260805.505012637766	5
2	2466	261345.824913844491	4
2	2472	262837.661289811167	3
2	2480	262899.829694935385	2
2	2489	264122.014445663239	1
2	2494	264716.049102388465	0
2	2497	264732.466942021323	1
2	2508	265367.825443160362	0
2	2535	266299.389775207931	1
2	2543	266668.363170667406	0
2	2605	271018.585103481037	1
2	2610	271292.954637897385	0
2	2626	274725.535319665073	1
2	2628	274725.535319665073	0
2	2634	275668.579894941809	1
2	2636	275668.579894941809	0
2	2651	277233.052814324112	1
2	2653	277233.052814324112	0
2	2679	283362.253022627552	1
2	2681	283362.253022627552	0
2	2696	284740.374478374112	1
2	2698	284740.374478374112	0
2	2705	286712.424305043324	1
2	2707	286712.424305043324	0
2	2722	287998.234377442776	1
2	2724	287998.234377442776	0
2	2738	288868.12219280722	1
2	2740	288868.12219280722	0
2	2747	290325.358687513811	1
2	2749	290325.358687513811	0
2	2782	296113.192894310525	1
2	2784	296113.192894310525	0
2	2788	296706.986652396287	1
2	2793	296721.974047750519	0
2	2796	297028.703921945878	1
2	2799	298038.720280940145	2
2	2802	298041.27501000789	3
2	2811	299321.078502274599	2
2	2819	299579.190534172506	1
2	2824	299963.716520010044	0
2	2828	300212.281455160017	1
2	2833	300454.273815233741	0
2	2880	304264.570746334874	1
2	2885	304381.401046941262	0
2	2892	305673.465111625174	1
2	2894	305673.465111625174	0
2	2900	306601.929034450196	1
2	2906	306906.586629327792	0
2	2936	313655.518211138464	1
2	2938	313655.518211138464	0
2	2942	315188.201874033588	1
2	2948	315550.487499629303	0
2	2951	315904.134913801244	1
2	2959	316493.231632031347	0
2	2970	317004.081271177069	1
2	2972	317004.081271177069	0
2	3005	321651.565604866475	1
2	3007	321651.565604866475	0
2	3011	322378.073704966583	1
2	3014	322470.494817295999	2
2	3019	323694.441087799935	1
2	3026	325079.370123814013	2
2	3029	325487.448424896297	3
2	3033	326651.282249856589	4
2	3036	327160.849806585732	5
2	3040	327621.551563608235	6
2	3043	327887.586844058548	7
2	3048	328246.631104214207	6
2	3054	329035.418074660901	7
2	3060	329182.617828278458	6
2	3065	329408.84197077482	5
2	3076	330463.826561253719	4
2	3080	331523.668888305244	5
2	3083	332201.011713509727	6
2	3089	332731.179315005908	5
2	3092	333061.528084372616	6
2	3100	333950.93764442572	5
2	3107	335653.391603644205	6
2	3113	336342.088980963689	5
2	3125	338406.232780952866	4
2	3130	338872.20724317219	3
2	3139	339608.037529979638	2
2	3142	340392.195539986485	3
2	3154	341681.267395431157	2
2	3157	341964.299292432332	3
2	3163	343599.039977149618	2
2	3168	343992.577595068608	1
2	3180	345710.256089649346	0
2	3183	346064.490627853089	1
2	3192	347486.244311334791	0
2	3195	347669.498735299805	1
2	3199	348330.829831034311	2
2	3204	348867.85483738497	1
2	3212	349194.956065940699	0
2	3242	350677.740195098184	1
2	3245	351084.467566228575	2
2	3252	351548.500101176949	3
2	3257	351571.773254964805	2
2	3265	351926.976464617307	1
2	3270	352284.382345480855	0
2	3277	353140.557294068949	1
2	3282	353236.047017939683	0
2	3285	354346.874130209294	1
2	3290	354556.556688721402	0
2	3321	356482.504590044363	1
2	3327	356833.549665992797	0
2	3335	357348.898553692031	1
2	3340	357374.187410447511	0
2	3347	358641.404625581718	1
2	3350	358802.309465165144	2
2	3353	359845.161048029706	3
2	3356	359977.937459397505	4
2	3362	361447.173181869433	3
2	3367	361569.029517257962	2
2	3371	362451.028105320328	3
2	3374	362780.795014857527	4
2	3378	364051.808614284639	5
2	3383	364124.422192031489	4
2	3389	364328.503327263742	5
2	3395	364492.539953240305	6
2	3400	364694.123674520328	5
2	3404	365482.78500874283	6
2	3407	366560.955684213325	7
2	3412	366761.482377150851	6
2	3418	367397.341251525526	5
2	3424	367627.276805057447	6
2	3430	368990.128668780945	5
2	3436	369145.374495038417	6
2	3439	369550.50044284097	7
2	3442	369622.968301521619	8
2	3447	369860.362842708633	7
2	3454	370450.598512639956	8
2	3462	371162.712233495995	7
2	3470	371381.820866646336	6
2	3483	373820.017174368356	5
2	3489	374329.00460317485	6
2	3493	376265.752092504592	7
2	3496	377135.96821460786	8
2	3500	377378.947302907583	9
2	3509	378892.70810387521	8
2	3512	379251.800594942148	9
2	3521	380791.489505002545	8
2	3524	380825.326032666194	9
2	3529	380866.998813436141	8
2	3537	380944.281751381073	7
2	3542	381794.61484437991	6
2	3557	382974.029134301414	5
2	3562	383667.03984769979	4
2	3566	384570.46407147003	5
2	3571	384750.853201658561	4
2	3577	385103.085707456034	5
2	3582	385184.293063952027	4
2	3591	385527.181009382464	5
2	3600	386341.187012518269	4
2	3605	386610.683122354389	3
2	3613	387222.068303921556	2
2	3624	389727.572877824383	3
2	3629	389832.41136308187	2
2	3634	389989.966179313759	1
2	3639	390018.723980063812	0
2	3642	390473.657013388624	1
2	3657	391642.319925998233	0
2	3686	392633.33841883	1
2	3691	392636.190885789852	0
2	3726	394474.41723450569	1
2	3731	394548.281736872004	0
2	3734	394745.121036224172	1
2	3739	394971.797426153168	0
2	3747	395695.694460018728	1
2	3752	395749.177881926133	0
2	3759	396245.421535903733	1
2	3764	396666.223171754584	0
2	3767	396725.516797122053	1
2	3772	396959.068413814529	0
2	3824	398212.522981929122	1
2	3829	398364.208138151937	0
2	3835	398831.460134271073	1
2	3840	398958.916339685808	0
2	3853	399613.432356930428	1
2	3856	400015.593868222401	2
2	3861	400052.105371450922	1
2	3866	400457.861141804572	0
2	3953	402958.651461142884	1
2	3958	403151.926595364488	0
2	3966	404230.607054997683	1
2	3971	404474.118684959161	0
2	3988	404722.535820075731	1
2	3996	405279.874356845529	0
2	4040	407911.099354405858	1
2	4046	408339.494319886605	0
2	4069	409233.400010297879	1
2	4075	409908.879080719466	0
2	4120	412392.792388967488	1
2	4125	412621.876168137772	0
2	4155	414362.363690726094	1
2	4160	414514.762905452934	0
2	4172	415213.205898410283	1
2	4174	415213.205898410283	0
2	4180	415950.365378935437	1
2	4185	416319.780608675096	0
2	4189	416688.112683603654	1
2	4194	417044.832864858601	0
2	4232	423267.403167801568	1
2	4234	423267.403167801568	0
2	4252	430080.514805458356	1
2	4254	430080.514805458356	0
2	4267	432788.373251056848	1
2	4272	432860.616485011712	0
2	4288	436769.040965457717	1
2	4290	436769.040965457717	0
2	4294	437903.786568127479	1
2	4299	438355.395025447407	0
2	4306	440197.671524521898	1
2	4308	440197.671524521898	0
2	4320	441613.149127376116	1
2	4323	441807.290402738018	2
2	4328	442079.686673002753	1
2	4337	443436.565456791645	0
2	4341	444299.032903882905	1
2	4346	444338.15358650885	0
2	4365	445528.67317872877	1
2	4367	445528.67317872877	0
2	4409	451767.775686773302	1
2	4411	451767.775686773302	0
2	4418	453617.812851655975	1
2	4420	453617.812851655975	0
2	4423	453906.833070425135	1
2	4428	454205.107111015975	0
2	4443	455328.07658716441	1
2	4445	455328.07658716441	0
2	4478	460172.125012212368	1
2	4480	460172.125012212368	0
2	4487	461794.821941022292	1
2	4489	461794.821941022292	0
2	4492	462115.933986359894	1
2	4495	462197.533390716977	2
2	4500	462670.885122385238	1
2	4509	463831.889734695225	0
2	4519	465236.232776462502	1
2	4522	465697.587915627326	2
2	4528	466988.002691961271	1
2	4532	468214.049185241451	2
2	4537	468796.418175472258	1
2	4546	470028.196847808515	0
2	4549	470051.278266549777	1
2	4557	470673.07094661295	0
2	4577	471423.632675849739	1
2	4583	471576.423155311897	2
2	4588	472191.511818220976	1
2	4591	472340.063211457096	2
2	4596	472826.352419391629	1
2	4599	472953.600965167525	2
2	4602	472988.982854712046	3
2	4608	473318.793431681969	2
2	4611	473571.179877825569	3
2	4616	473735.56355475726	2
2	4621	473857.439423769801	1
2	4626	474409.566516265586	0
2	4680	477702.647508364843	1
2	4682	477702.647508364843	0
2	4722	480375.774217581184	1
2	4724	480375.774217581184	0
2	4739	482506.615164452491	1
2	4741	482506.615164452491	0
2	4745	483426.325239265492	1
2	4750	484502.055304196486	0
2	4775	488885.664925981774	1
2	4777	488885.664925981774	0
2	4798	491993.496031358323	1
2	4803	492252.254372215375	0
2	4806	493322.168975469363	1
2	4811	493408.649517738733	0
2	4815	494111.483586531773	1
2	4820	494184.395430807559	0
2	4830	495519.732488844288	1
2	4833	495604.22036224586	2
2	4838	495771.155936136809	1
2	4843	496038.336042511685	0
2	4876	498460.154742905896	1
2	4881	498680.68944918642	0
2	4890	499001.937887251586	1
2	4895	499060.259053117153	0
2	4898	499431.200235444506	1
2	4901	499431.994016260303	2
2	4906	499438.583531302151	1
2	4912	499496.774350614948	2
2	4918	499636.444859749713	3
2	4923	500303.968117742089	2
2	4928	500536.880345152793	1
2	4934	501201.475184712585	0
2	4948	501803.740249198903	1
2	4953	502061.641952204286	0
2	4992	504366.59941400346	1
2	4994	504366.59941400346	0
2	5000	505240.751404568844	1
2	5002	505240.751404568844	0
2	5032	509788.958525193796	1
2	5037	509902.638680030825	0
2	5040	510352.045474092767	1
2	5047	512800.227727338133	0
2	5063	516841.904106125979	1
2	5065	516841.904106125979	0
2	5089	519607.393119411404	1
2	5091	519607.393119411404	0
2	5105	520085.169008850935	1
2	5107	520085.169008850935	0
2	5110	520248.287783362571	1
2	5115	521112.684824067888	0
2	5130	522562.472093243815	1
2	5132	522562.472093243815	0
2	5144	523409.107133032314	1
2	5149	523525.290254098119	0
2	5155	523691.803601918719	1
2	5157	523691.803601918719	0
2	5160	523957.502616598102	1
2	5169	524979.924262404099	0
2	5172	525054.430483014883	1
2	5180	525851.245660205261	0
2	5222	529556.827532556587	1
2	5224	529556.827532556587	0
2	5228	530968.516830854103	1
2	5231	531148.331940844293	2
2	5235	532036.265614650556	3
2	5240	532078.188172647095	2
2	5245	532358.563114607918	1
2	5248	532779.541534179303	2
2	5252	533872.122179395977	3
2	5257	534441.523369326814	2
2	5262	534681.592542385546	1
2	5267	534809.23364419555	0
2	5277	535357.525857627622	1
2	5289	536612.118607706735	0
2	5302	537275.684519012973	1
2	5307	537277.480062509889	0
2	5349	540472.750798346576	1
2	5351	540472.750798346576	0
2	5358	541802.591090417235	1
2	5363	542166.405045224907	0
2	5392	546162.717128882936	1
2	5394	546162.717128882936	0
2	5401	547435.026564314309	1
2	5403	547435.026564314309	0
2	5418	549326.171042251449	1
2	5420	549326.171042251449	0
2	5423	549735.08703136088	1
2	5427	551553.54779900047	2
2	5434	552738.08310258937	3
2	5437	553568.127676852143	4
2	5440	553653.059172132161	5
2	5444	555086.960421184378	6
2	5450	556014.726349738461	5
2	5455	556128.909730880599	4
2	5460	556436.686690470289	3
2	5465	556496.519166663402	2
2	5476	557101.221251936715	1
2	5490	559568.052148450388	2
2	5496	560693.016617901118	1
2	5502	561880.938466967376	2
2	5507	562221.718467600939	1
2	5513	562324.420209845761	0
2	5572	565783.93016818436	1
2	5574	565783.93016818436	0
2	5581	568660.692196156229	1
2	5586	568738.450320922224	0
2	5590	569463.153795345444	1
2	5595	570175.570332373485	0
2	5623	571151.253672036305	1
2	5625	571151.253672036305	0
2	5642	576248.381115007361	1
2	5644	576248.381115007361	0
2	5659	578251.66813216453	1
2	5661	578251.66813216453	0
2	5673	579775.620728406429	1
2	5678	580299.931296372487	0
2	5684	580913.335656307331	1
2	5686	580913.335656307331	0
2	5690	581208.38539729816	1
2	5695	581324.192356415046	0
2	5712	582061.843148854674	1
2	5717	582305.144255959268	0
2	5733	582833.379783024766	1
2	5739	582884.220409339445	0
2	5763	584484.208851555037	1
2	5767	584843.293963388	2
2	5772	584857.67974308149	1
2	5777	584960.865509031512	0
2	5800	587548.736551695154	1
2	5802	587548.736551695154	0
2	5817	588952.584051766236	1
2	5819	588952.584051766236	0
2	5835	591823.268295436853	1
2	5837	591823.268295436853	0
2	5840	592552.959658179925	1
2	5846	593268.430141067964	0
2	5861	595615.868473917357	1
2	5863	595615.868473917357	0
2	5886	598200.01484492611	1
2	5888	598200.01484492611	0
2	5892	598384.571299144444	1
2	5897	598434.302471903129	0
2	5900	599283.392245095732	1
2	5906	601416.632264026806	0
2	5910	601767.810457408294	1
2	5919	603765.039329591538	0
2	5957	609869.64639120537	1
2	5959	609869.64639120537	0
2	5967	612602.109591853755	1
2	5969	612602.109591853755	0
2	5984	613872.759855029022	1
2	5986	613872.759855029022	0
2	6009	616640.514742561769	1
2	6011	616640.514742561769	0
2	6020	621159.129842775273	1
2	6022	621159.129842775273	0
2	6025	621259.595441028944	1
2	6030	621295.401025391363	0
2	6036	622173.820877031606	1
2	6038	622173.820877031606	0
2	6062	624888.760876477766	1
2	6064	624888.760876477766	0
2	6071	625756.270773528979	1
2	6073	625756.270773528979	0
2	6087	625979.238946113656	1
2	6092	625983.932666714144	0
2	6095	626057.625567956317	1
2	6098	626401.267856860178	2
2	6103	626401.621745454434	1
2	6106	626870.04174288156	2
2	6109	627198.466437012033	3
2	6118	627611.407712792017	2
2	6129	628742.235887008802	1
2	6138	629178.394371823693	0
2	6186	631261.835924562346	1
2	6191	631374.050138415133	0
2	6194	631927.759113898966	1
2	6198	633472.046213247979	2
2	6203	633831.34289457898	1
2	6208	633881.971003921336	0
2	6228	635132.865307061955	1
2	6233	635188.722808859631	0
2	6263	639753.028549148359	1
2	6265	639753.028549148359	0
2	6277	641196.649803456942	1
2	6282	641303.619667107513	0
2	6289	643525.951290928294	1
2	6291	643525.951290928294	0
2	6297	644421.226036390806	1
2	6303	645765.057521500022	0
2	6324	648081.682724858492	1
2	6326	648081.682724858492	0
2	6352	655214.855629655522	1
2	6354	655214.855629655522	0
2	6369	656988.787286388742	1
2	6371	656988.787286388742	0
2	6387	660664.250818683673	1
2	6389	660664.250818683673	0
2	6398	665437.685994557921	1
2	6400	665437.685994557921	0
2	6423	668220.410076940818	1
2	6425	668220.410076940818	0
2	6440	669380.178206880004	1
2	6442	669380.178206880004	0
2	6449	671375.170481234022	1
2	6451	671375.170481234022	0
2	6463	672686.411380379049	1
2	6468	672741.840190712069	0
2	6471	673037.381094457626	1
2	6480	673901.991369680427	0
2	6492	675620.6173650114	1
2	6494	675620.6173650114	0
2	6516	676760.162067617298	1
2	6518	676760.162067617298	0
2	6521	676890.287685428045	1
2	6528	677761.479830384956	2
2	6533	678523.618645899135	1
2	6538	678839.679506553704	0
2	6567	681427.223196316119	1
2	6569	681427.223196316119	0
2	6584	682317.923958902476	1
2	6586	682317.923958902476	0
2	6589	682824.449805996754	1
2	6594	683579.548128152038	0
2	6601	684111.070549588265	1
2	6603	684111.070549588265	0
2	6626	686323.858066590884	1
2	6628	686323.858066590884	0
2	6643	687624.103344961233	1
2	6645	687624.103344961233	0
2	6667	688704.464346350833	1
2	6669	688704.464346350833	0
2	6694	692888.293978749097	1
2	6696	692888.293978749097	0
2	6702	693999.667510792588	1
2	6704	693999.667510792588	0
2	6711	694749.586414200316	1
2	6716	695002.960720747864	0
2	6722	695988.356124412114	1
2	6728	696341.773766046341	0
2	6753	698586.733757016136	1
2	6755	698586.733757016136	0
2	6758	699199.757334235855	1
2	6764	699593.197199534527	0
2	6796	703940.285284332923	1
2	6798	703940.285284332923	0
2	6813	704842.946744618492	1
2	6815	704842.946744618492	0
2	6821	705138.610191983494	1
2	6823	705138.610191983494	0
2	6843	706974.714549944407	1
2	6848	707660.149606759203	0
2	6851	707954.65805920343	1
2	6857	708007.019946361868	0
2	6860	708018.087118161723	1
2	6865	708202.79474067346	0
2	6871	708662.772593309587	1
2	6876	708921.587742014428	0
2	6879	709249.541727338071	1
2	6884	709413.152250717861	0
2	6891	709809.270672528585	1
2	6896	710512.425396757148	0
2	6899	710808.889039652265	1
2	6904	711316.562911060806	0
2	6947	714984.092660176611	1
2	6949	714984.092660176611	0
2	6982	720266.000719731081	1
2	6984	720266.000719731081	0
2	6987	721065.946463386249	1
2	6991	722027.247154757774	2
2	6996	722226.465883457264	1
2	7001	722279.618664574749	0
2	7034	727934.909930291898	1
2	7036	727934.909930291898	0
2	7039	727979.655594291447	1
2	7045	729991.84066933616	0
2	7052	731405.611974622789	1
2	7057	731451.364356967622	0
2	7082	732986.040281849909	1
2	7087	733109.054928284638	0
2	7090	733433.644888263989	1
2	7094	734984.693521326567	2
2	7098	736499.491105692097	3
2	7101	737100.0377529498	4
2	7107	737361.758603262394	3
2	7115	738708.472012738873	2
2	7121	739266.776383071065	1
2	7129	740216.94221130021	0
2	7163	742383.154320532576	1
2	7165	742383.154320532576	0
2	7172	744178.685219766792	1
2	7174	744178.685219766792	0
2	7196	745052.852458219271	1
2	7198	745052.852458219271	0
2	7224	752262.242235418219	1
2	7226	752262.242235418219	0
2	7242	755695.171049333875	1
2	7244	755695.171049333875	0
2	7257	758726.314923813663	1
2	7262	759099.060507551617	0
2	7278	762338.963231850947	1
2	7280	762338.963231850947	0
2	7284	763972.309872997281	1
2	7289	764160.393488207629	0
2	7293	764695.903016923299	1
2	7296	764714.530147837667	2
2	7301	764846.072458248782	1
2	7307	766037.079108254827	2
2	7312	766160.01756280015	1
2	7321	766583.561332119824	0
2	7324	767836.557128976455	1
2	7336	768272.025564316017	0
2	7339	768602.920859015861	1
2	7344	769013.264218724003	0
2	7396	772540.73694185381	1
2	7398	772540.73694185381	0
2	7403	774945.261558623706	1
2	7408	775104.267938073553	0
2	7423	776820.912917956339	1
2	7425	776820.912917956339	0
2	7449	780000.180636069401	1
2	7451	780000.180636069401	0
2	7454	780020.464848180344	1
2	7459	780331.722724842371	0
2	7462	780356.824571166376	1
2	7470	780881.699215785121	0
2	7476	781129.692618302637	1
2	7481	781608.208728206787	0
2	7498	783112.072524290709	1
2	7500	783112.072524290709	0
2	7512	784771.737283412147	1
2	7517	784980.356429039064	0
2	7541	787537.724551762934	1
2	7543	787537.724551762934	0
2	7549	788316.063647193999	1
2	7551	788316.063647193999	0
2	7558	790169.625668923536	1
2	7562	790779.152413563142	2
2	7567	790848.997216604206	1
2	7570	791021.204427811259	2
2	7575	791226.269656232559	1
2	7580	791236.503988867361	0
2	7596	791773.693285421533	1
2	7605	792447.118499598667	0
2	7611	792960.083869323211	1
2	7616	793044.185657574567	0
2	7620	793721.173834523504	1
2	7628	794032.12765102362	0
2	7666	795743.78521349624	1
2	7668	795743.78521349624	0
2	7700	800429.75461146952	1
2	7702	800429.75461146952	0
2	7717	801764.228149407783	1
2	7719	801764.228149407783	0
2	7722	801854.007769555915	1
2	7728	802557.19146725605	0
2	7734	803068.85119503686	1
2	7736	803068.85119503686	0
2	7739	803523.331843207783	1
2	7745	804141.599472897994	0
2	7767	805618.682883584187	1
2	7769	805618.682883584187	0
2	7793	808513.634023225514	1
2	7795	808513.634023225514	0
2	7816	811793.283940913287	1
2	7819	811838.32467337106	2
2	7824	812132.741998112486	1
2	7830	812713.734771820494	0
2	7854	817151.038878179694	1
2	7856	817151.038878179694	0
2	7863	818375.825412052797	1
2	7865	818375.825412052797	0
2	7872	820698.362979833826	1
2	7877	820916.302292364166	0
2	7884	822463.011658524893	1
2	7890	822876.437187416244	0
2	7893	823117.152575452705	1
2	7896	823245.760328251627	2
2	7899	823838.031198361083	3
2	7905	824229.016110113595	4
2	7909	825383.932952904038	5
2	7914	825484.915358928832	4
2	7917	825981.394548649848	5
2	7924	827302.668562937025	6
2	7928	828335.247527407875	7
2	7933	828889.455546791476	6
2	7940	830514.147694451224	7
2	7944	831492.237751132077	8
2	7950	833227.620875563986	7
2	7953	833326.812028806831	8
2	7958	833622.120759999254	7
2	7963	834111.60221955202	6
2	7974	834769.357428842808	5
2	7983	835984.379143075461	4
2	7988	836177.342170532583	3
2	7995	838022.925895670039	4
2	8001	838283.81058911091	3
2	8004	838287.385987535038	4
2	8007	839481.222102599048	5
2	8010	839717.612615976435	6
2	8016	840114.705437701176	5
2	8022	840444.386398812621	6
2	8030	840779.571385798439	5
2	8040	842192.023341643087	6
2	8046	843183.449249024769	7
2	8052	843495.5070144006	6
2	8057	843608.002047803944	5
2	8067	845708.775013121348	6
2	8073	847332.890810449411	5
2	8081	848248.749570163526	4
2	8085	848774.727250261837	5
2	8090	849707.594290437521	4
2	8097	850757.839481187314	5
2	8100	851173.655362852418	6
2	8104	852631.515574226301	7
2	8109	852777.487434824085	6
2	8117	852937.085551625728	5
2	8122	852991.043033490641	4
2	8133	853338.930687412364	3
2	8136	853567.420251726258	4
2	8141	853615.329128998868	3
2	8147	854589.032217495667	2
2	8156	855382.295930346631	3
2	8160	855518.765989312361	4
2	8165	855603.878749198684	3
2	8173	855845.754220093893	2
2	8182	856291.32829764937	3
2	8192	859063.933975641447	2
2	8199	860703.788468492438	3
2	8204	860784.660623517897	2
2	8209	861189.450922045129	1
2	8214	861202.990178826557	0
2	8233	862210.071368805863	1
2	8239	862300.307834748111	0
2	8255	863258.103873810498	1
2	8263	863625.100846418296	0
2	8269	863808.789482742792	1
2	8275	864115.422451168697	0
2	8326	868060.825602471917	1
2	8331	868234.117793716469	0
2	8450	872558.475296188589	1
2	8455	872869.857915147525	0
2	8471	873638.74926906696	1
2	8473	873638.74926906696	0
2	8476	874248.972042473812	1
2	8479	874257.721860828843	2
2	8483	874299.761698217464	3
2	8488	874546.72083446011	2
2	8491	874723.58233165752	3
2	8496	874783.75777780978	2
2	8504	875481.028427109552	1
2	8512	875975.416654986198	0
2	8563	880620.77753161721	1
2	8565	880620.77753161721	0
2	8580	881560.536812204712	1
2	8582	881560.536812204712	0
2	8590	885832.893083120072	1
2	8592	885832.893083120072	0
2	8598	886109.239268087262	1
2	8600	886109.239268087262	0
2	8604	887009.99472262327	1
2	8607	887136.174501450091	2
2	8610	887186.353783450185	3
2	8615	887660.636094900773	2
2	8623	887983.854424122745	1
2	8635	889549.280839745198	0
2	8655	891347.314612177981	1
2	8661	891579.642530363533	0
2	8669	892512.502040754376	1
2	8674	892708.082365726018	0
2	8677	892903.008018910704	1
2	8680	892982.93778828827	2
2	8689	893293.766521477592	1
2	8694	893788.165551238732	0
2	8697	893795.718822492753	1
2	8702	893867.112757288837	0
2	8723	894667.303028327877	1
2	8725	894667.303028327877	0
2	8731	894752.763340614413	1
2	8733	894752.763340614413	0
2	8764	896241.865241727884	1
2	8766	896241.865241727884	0
2	8776	897422.115138209362	1
2	8781	897468.354438761886	0
2	8804	899235.537272186186	1
2	8809	899537.264568803883	0
2	8831	901027.313959407802	1
2	8833	901027.313959407802	0
2	8856	903255.818247910589	1
2	8858	903255.818247910589	0
2	8873	904762.265797940808	1
2	8875	904762.265797940808	0
2	8878	904821.887581654412	1
2	8882	905556.901632935826	2
2	8885	905753.648121375518	3
2	8894	907674.682492711817	2
2	8899	908135.717058920957	1
2	8904	908185.039170054181	0
2	8924	909740.74945886222	1
2	8929	909933.549849169954	0
2	8944	910968.924849991456	1
2	8949	910989.154608293616	0
2	8957	911494.967602299337	1
2	8962	911525.331363827672	0
2	8965	911847.159500045996	1
2	8969	912042.417770978548	2
2	8975	912265.503002047363	3
2	8980	913202.25009609031	2
2	8985	913495.378930125807	1
2	8990	913621.963660659554	0
2	9007	916038.806669583961	1
2	9010	916414.360462443107	2
2	9015	916618.391016119892	1
2	9019	917287.531895693274	2
2	9022	917603.215949692633	3
2	9027	917850.563937696503	2
2	9037	919169.96285855844	3
2	9042	919629.392082656782	2
2	9048	922072.633499830209	1
2	9054	922383.776200033302	0
2	9057	922490.135569187799	1
2	9071	923272.203686229906	0
2	9116	925215.147317755948	1
2	9121	925308.953477153681	0
2	9149	928279.643092897661	1
2	9154	928535.955436557457	0
2	9176	929870.239663768263	1
2	9181	930486.364883646521	0
2	9193	932028.202432057155	1
2	9195	932028.202432057155	0
2	9211	935857.162839235275	1
2	9213	935857.162839235275	0
2	9217	936035.184162584722	1
2	9221	938007.275657489903	2
2	9226	938445.470925803398	1
2	9231	938591.475502985122	0
2	9234	938659.793887283048	1
2	9237	938720.318138493625	2
2	9242	938778.928675203414	1
2	9245	938991.237623069265	2
2	9254	939613.972422939711	1
2	9262	940534.030526645173	0
2	9313	945059.416306204967	1
2	9315	945059.416306204967	0
2	9331	948143.187388508596	1
2	9333	948143.187388508596	0
2	9360	956656.391161035826	1
2	9362	956656.391161035826	0
2	9368	958026.53380403394	1
2	9370	958026.53380403394	0
2	9374	958537.643629723321	1
2	9382	962498.022441890494	2
2	9387	963014.683669779028	1
2	9393	964161.718288345883	0
2	9418	966070.733145519271	1
2	9421	966083.860292884784	2
2	9426	966552.714746125765	1
2	9432	966992.633106030956	0
2	9438	968509.384598719599	1
2	9440	968509.384598719599	0
2	9455	970070.693446830542	1
2	9459	970330.583559293387	2
2	9464	970337.912802123362	1
2	9473	972360.507073247698	0
2	9482	973671.664903094053	1
2	9488	974583.305986058718	0
2	9492	975647.752337846239	1
2	9497	975722.727077220174	0
2	9500	976341.354318303921	1
2	9506	976647.341385963038	2
2	9513	977567.462987810823	3
2	9516	977936.507031689069	4
2	9519	978371.408163540876	5
2	9524	978489.190640427269	4
2	9528	979097.50247345991	5
2	9533	980061.028680104506	4
2	9538	980302.587070138882	3
2	9544	980662.07816607088	2
2	9550	981209.064106803504	3
2	9562	982492.395916795051	2
2	9565	983166.822804022267	3
2	9570	983261.033907215591	2
2	9575	983576.655517543092	1
2	9585	984335.438733732098	2
2	9590	985546.327852130981	1
2	9595	985605.940303207642	0
2	9605	986452.687996813432	1
2	9611	987031.750506554564	2
2	9620	987982.389721772599	1
2	9625	988029.916264345321	0
2	9633	988693.560462845111	1
2	9636	988961.03569305944	2
2	9640	989359.062312107834	3
2	9645	989396.047168672079	2
2	9653	989829.708250951077	1
2	9656	989908.239242793658	2
2	9661	990151.204532965694	1
2	9664	990183.541130086986	2
2	9672	990540.337157031819	1
2	9683	990683.560529444828	0
2	9725	993114.710981809758	1
2	9730	993244.854417730842	0
2	9757	994906.607513393317	1
2	9762	995313.607638608876	0
2	9821	999792.308065264971	1
2	9826	999814.113543472863	0
2	9830	1001401.072828541707	1
2	9833	1001467.819050142581	2
2	9839	1002946.254902995457	1
2	9842	1002982.82797703014	2
2	9848	1004846.078137076926	1
2	9856	1005426.219580498996	0
2	9862	1005835.940263275205	1
2	9868	1006547.136537894741	0
2	9874	1006927.871649858429	1
2	9883	1008190.809600339177	0
2	9896	1008478.031305843367	1
2	9904	1008802.395869221431	0
2	9936	1010221.951577993991	1
2	9941	1010254.559386346631	0
2	9977	1013920.833608067768	1
2	9979	1013920.833608067768	0
2	10004	1018387.757668506994	1
2	10006	1018387.757668506994	0
2	10023	1024600.107697517142	1
2	10025	1024600.107697517142	0
2	10028	1024711.492021899834	1
2	10031	1024740.824931229867	2
2	10037	1025606.665077313531	1
2	10043	1027959.888846402191	0
2	10046	1028171.100927665307	1
2	10058	1029623.816250798763	0
2	10074	1030113.5205824836	1
2	10076	1030113.5205824836	0
2	10083	1031377.625068385969	1
2	10085	1031377.625068385969	0
2	10100	1032602.685810676171	1
2	10102	1032602.685810676171	0
2	10105	1032842.328133511665	1
2	10110	1032845.977477164896	0
2	10125	1034393.589567888104	1
2	10136	1034503.55947004025	0
2	10142	1035227.607459708402	1
2	10148	1035710.117775723123	0
3	1463	151920.26904801793	4536.5937205726
3	1468	152101.266575259004	255.03385641996
3	1486	155452.589354828221	439.18077124645
3	1525	161854.460780497368	4446.0003440107
3	1530	162232.72571464457	928.5498694471
3	1539	163315.901782117411	0
3	1547	163431.116979630826	0
3	1574	168060.634085416013	0
3	1623	174054.717206719958	4935.4945067317
3	1628	174493.29232365575	4596.313790667
3	1633	174565.180242866659	1026.0288382728
3	1641	174766.542735707421	0
3	1651	177221.707810734546	0
3	1668	178639.973962957156	0
3	1720	185980.850216833556	3469.1894422873
3	1737	187024.022760550273	0
3	1776	189201.955721861745	829.01783189643
3	1781	189211.028028665249	707.85367820532
3	1786	189376.053350757847	449.57906538454
3	1813	192321.517151727611	2129.730108476
3	1818	192515.586170888803	2094.7848574685
3	1823	193343.555709823633	2564.9797288549
3	1828	193379.666105999961	2475.2596787896
3	1837	194523.516635664767	0
3	1890	203909.576759597104	2051.6745667513
3	1899	204106.495487982002	0
3	1907	204162.909817096209	0
3	1915	204546.256292021853	0
3	1963	209007.452477200601	2630.7762444115
3	1975	209714.355576521092	3085.0092521498
3	1980	209894.945547063271	1493.5397989494
3	1985	210037.304313231186	947.40492788619
3	1990	210076.383423934378	851.26246957318
3	2016	214200.146600316721	0
3	2071	219581.71227468445	5271.1854236171
3	2079	219967.635203979412	2933.3808049326
3	2090	220223.92601887452	526.51404915419
3	2095	220233.625565376179	179.12424176617
3	2108	220611.352945677229	442.1406943727
3	2161	227456.90962550229	5480.8839113742
3	2173	228545.269975890567	4045.3151509479
3	2178	228578.700156412152	3379.8023335735
3	2183	228889.097146079643	3045.4090950205
3	2188	228908.72749751932	898.19439203479
3	2193	229253.553626677145	964.18099544506
3	2210	230399.755450869573	0
3	2227	231906.390516264767	0
3	2247	239345.184218654078	0
3	2273	242768.016535767668	161.83764371052
3	2291	246049.223537802879	0
3	2308	247075.538357858486	0
3	2316	247278.3640457999	0
3	2350	251382.269574856078	2083.2823701765
3	2362	252249.850309735867	273.98746106259
3	2367	252321.719232319023	164.61452453039
3	2513	265399.595057668865	11814.391231337
3	2522	265817.803476159613	8223.3488345791
3	2527	266091.3321291082	8354.172491798
3	2532	266093.153392390365	6360.9934592138
3	2548	267293.581654729886	6617.9448104837
3	2554	267627.485812307669	6851.1239472963
3	2559	267865.22270916902	5000.6259040088
3	2567	267872.092709557941	3951.3350362129
3	2572	267962.727530396517	2798.9125302036
3	2577	267988.459398895438	2746.8058286735
3	2585	268583.090971746421	2774.7803724713
3	2591	269494.770214426612	2841.8010836758
3	2596	269696.764993318146	1826.4420810172
3	2601	269947.159558046475	1418.7388242178
3	2618	272548.512950729309	0
3	2644	275909.570165598742	0
3	2662	278694.824171880805	0
3	2670	278859.7180239502	0
3	2689	283882.889084588058	0
3	2715	287547.102695029833	253.63803030483
3	2732	288696.097724155048	0
3	2758	293091.969163546566	1923.6547983761
3	2768	294897.538847216677	0
3	2776	295695.77203663753	0
3	2842	302487.087096936718	4085.8297305649
3	2847	302504.178669764667	3165.2402655399
3	2862	303506.385733495558	1618.766503007
3	2867	303566.651143927695	840.82285090398
3	2872	303885.635251286287	973.02677307352
3	2877	304096.5934282092	1087.8018993943
3	2911	307232.757826241862	754.91186546964
3	2920	308800.88039274731	0
3	2928	309697.705131802177	0
3	2964	316626.490169009517	558.44393102006
3	2981	317424.161669768205	105.41473928245
3	2990	319452.03472257867	0
3	2999	320574.878478478242	0
3	3221	349935.475730431559	25067.989811363
3	3226	350238.327009858256	21823.311175566
3	3231	350385.953374580649	20531.951228829
3	3239	350393.881358022782	20273.444029898
3	3298	354805.140836873404	21624.617245648
3	3307	355335.138665943066	20300.418631934
3	3318	356396.568700749129	19831.324261073
3	3332	357346.420173049271	19925.395682142
3	3662	391807.254749489623	52542.344642784
3	3667	391817.657839057537	51303.811631454
3	3672	391943.974815570856	51328.986955727
3	3677	392350.210823694922	47572.052092765
3	3683	392577.40237220461	47439.893515333
3	3696	392769.145255684053	46538.846944751
3	3704	392879.424560461374	43958.123498725
3	3712	393657.601932917908	43792.881733229
3	3717	393948.385066368652	43561.182722787
3	3722	394085.489680216723	42992.02782713
3	3744	395629.494482462806	44043.848504445
3	3777	397205.227881865469	44280.847929099
3	3782	397528.093615931933	42870.261188948
3	3787	397570.632870465645	42654.688687963
3	3792	397696.483082035308	42212.848890829
3	3797	397704.01794926352	41573.040186258
3	3806	397920.221337826527	39789.891842044
3	3811	398114.288216175568	33891.549826228
3	3816	398156.224211711346	33791.544979321
3	3821	398187.79536463708	30623.384586469
3	3871	400463.964129243593	31330.385468176
3	3876	400608.295507637851	30337.056816261
3	3881	400614.739051284259	29983.422454027
3	3893	401211.605532641806	29896.805274712
3	3901	401706.552116187743	29504.899611121
3	3906	401785.341779318059	29471.438255675
3	3911	402004.293556999542	28133.466065924
3	3916	402152.97894753427	23889.598902435
3	3921	402586.034053332058	22084.597429631
3	3926	402721.21440209693	21843.699459642
3	3931	402799.392234965685	20551.25993469
3	3939	402837.615030190644	20297.671292116
3	3945	402867.450969565068	20082.53986782
3	3950	402880.629733981545	17788.340370531
3	3963	403174.174933150266	17886.404786256
3	3977	404578.054202445754	19134.830916568
3	3982	404681.812687753326	18894.534727194
3	4001	406107.061469215392	19229.327001473
3	4007	406298.250714073896	18425.376212912
3	4012	406497.79106321712	16992.29943695
3	4017	406644.450255364303	16024.659314065
3	4022	406971.528021283001	16284.062855688
3	4027	407055.432150248535	15536.478390484
3	4032	407113.134981280521	14325.430169232
3	4037	407534.427991211436	14194.344570492
3	4051	408362.417112211208	12443.72946306
3	4056	408391.277195034567	10662.714529249
3	4061	408403.153777303481	9772.4107973214
3	4066	408646.579252443789	9297.5043453118
3	4086	411168.024910233309	11742.459389773
3	4091	411229.209056540795	11623.437486883
3	4097	411447.348969921053	10492.227928301
3	4102	411829.978861142522	10763.38775913
3	4107	412025.456764296999	10512.185289983
3	4112	412027.158940600596	9208.6380487313
3	4117	412170.058760789459	7452.9933645799
3	4134	413803.204717455367	8813.9827890744
3	4142	413934.682204866319	3913.4559203951
3	4147	413944.964279221212	2820.221697371
3	4152	413976.694039650572	799.25623206329
3	4166	415055.645945690045	1231.0075859219
3	4199	417848.214689165485	2360.1016265416
3	4211	418470.439175529612	495.57192698535
3	4216	418638.530348642357	550.15476329051
3	4224	418784.26660018972	84.951265022238
3	4243	424304.209890548953	0
3	4264	432236.717443251356	0
3	4281	435334.22170594185	0
3	4317	441540.765622937709	786.69723380344
3	4351	444490.291487407971	2340.0812604112
3	4359	444867.53793346137	0
3	4376	447250.95338451257	0
3	4385	448024.391999250331	0
3	4393	449014.785550897642	193.15872398172
3	4402	449709.528670490003	0
3	4437	454492.15113567711	103.00894763475
3	4454	456883.054507070432	1136.213523657
3	4465	457024.578740601205	118.95322820277
3	4470	457048.791659770042	140.58195948232
3	4565	471217.548815613428	7749.0862865167
3	4570	471244.378677444835	6406.1435300048
[...]
7	4311	440754.068389134266	1
7	4315	441540.765622937709	2
7	4330	442150.2102269968	1
7	4335	443436.565456791645	2
7	4344	444338.15358650885	3
7	4349	444490.291487407971	4
7	4356	444867.53793346137	3
7	4371	446240.172781011207	4
7	4373	447250.95338451257	3
7	4382	448024.391999250331	2
7	4387	448821.626826915921	1
7	4399	449709.528670490003	0
7	4415	453293.9774068907	1
7	4426	454205.107111015975	2
7	4431	454389.142188042363	1
7	4435	454492.15113567711	2
7	4447	455746.840983413452	1
7	4452	456883.054507070432	2
7	4456	456905.625512398432	1
7	4459	456908.209700287723	0
7	4484	461146.566817830834	1
7	4498	462670.885122385238	2
7	4503	463468.462529096688	1
7	4507	463831.889734695225	2
7	4512	464838.235147440044	1
7	4515	465113.511171381218	0
7	4526	466988.002691961271	1
7	4535	468796.418175472258	2
7	4539	468868.845142461383	1
7	4544	470028.196847808515	2
7	4551	470175.460013129007	1
7	4555	470673.07094661295	2
7	4559	470986.629950422426	1
7	4563	471217.548815613428	2
7	4572	471420.047227411088	1
7	4579	471486.343165375408	0
7	4594	472826.352419391629	1
7	4606	473318.793431681969	2
7	4614	473735.56355475726	3
7	4619	473857.439423769801	4
7	4624	474409.566516265586	5
7	4629	475110.677411154393	4
7	4633	475975.554417044319	5
7	4642	476470.24482725076	4
7	4685	477938.127795704211	5
7	4687	478152.468321620286	4
7	4695	478228.96730125719	3
7	4704	479187.178065466211	2
7	4712	479796.605511124779	1
7	4727	480518.751247161684	2
7	4729	480583.725323175351	1
7	4748	484502.055304196486	2
7	4753	484869.093922538429	3
7	4756	485700.57072229275	2
7	4764	485904.870124817964	1
7	4780	489355.69035190592	2
7	4783	490481.566468897836	1
7	4791	491554.300423561399	0
7	4809	493408.649517738733	1
7	4818	494184.395430807559	2
7	4822	494392.152965269055	1
7	4825	495328.701545153546	0
7	4836	495771.155936136809	1
7	4841	496038.336042511685	2
7	4846	496433.512536604727	3
7	4855	496899.075306910821	2
7	4858	496903.427482528777	1
7	4862	497615.517973855898	0
7	4884	498767.281748056419	1
7	4904	499438.583531302151	2
7	4908	499441.227556154231	1
7	4914	499522.10719494246	0
7	4921	500303.968117742089	1
7	4926	500536.880345152793	2
7	4932	501201.475184712585	3
7	4936	501268.207500549947	2
7	4940	501559.412947232856	3
7	4944	501627.158693384798	2
7	4956	502099.288224523345	3
7	4974	503065.067049410247	2
7	4983	504050.245803410359	1
7	4997	504395.140182704603	2
7	5004	505314.48780097995	1
7	5008	505443.749915590477	2
7	5016	506396.393800811393	1
7	5026	509545.347614842363	0
7	5045	512800.227727338133	1
7	5049	512982.6548665452	0
7	5053	514179.344663030029	1
7	5068	517163.826591143975	2
7	5070	517701.426063934754	1
7	5079	518948.145987614784	0
7	5094	519616.656285463656	1
7	5096	519729.599251547785	0
7	5113	521112.684824067888	1
7	5119	521453.250466614457	2
7	5121	522288.524634764738	1
7	5136	523261.721577169947	2
7	5138	523351.062214588049	1
7	5152	523625.746861917907	2
7	5163	524663.982102725076	1
7	5167	524979.924262404099	2
7	5174	525607.61485728277	1
7	5178	525851.245660205261	2
7	5183	525864.729475861585	3
7	5195	526266.120153272276	2
7	5204	527373.151771239448	1
7	5209	527385.471202602523	0
7	5238	532078.188172647095	1
7	5243	532358.563114607918	2
7	5255	534441.523369326814	3
7	5260	534681.592542385546	4
7	5265	534809.23364419555	5
7	5270	534882.151879372461	4
7	5273	535357.323253000886	3
7	5279	535586.063865647075	2
7	5282	535985.606466818255	1
7	5287	536612.118607706735	2
7	5292	537248.003460824172	3
7	5309	537306.934715597631	2
7	5313	537429.864219676739	3
7	5327	538081.90761070032	2
7	5339	538315.33826977586	1
7	5353	541224.175841086445	0
7	5361	542166.405045224907	1
7	5366	542232.82967211169	2
7	5374	543520.096006260571	1
7	5382	544645.569479646914	0
7	5397	546363.18312269737	1
7	5405	547621.48326244125	0
7	5410	549153.094556547341	1
7	5429	551789.823663002209	0
7	5448	556014.726349738461	1
7	5453	556128.909730880599	2
7	5458	556436.686690470289	3
7	5463	556496.519166663402	4
7	5467	556532.093557094397	3
7	5470	557035.877967490779	2
7	5474	557101.221251936715	3
7	5479	557688.226157216798	2
7	5482	558058.236233387103	1
7	5485	558069.02560975697	0
7	5494	560693.016617901118	1
7	5498	561532.247789550278	0
7	5505	562221.718467600939	1
7	5511	562324.420209845761	2
7	5516	562374.428285185161	3
7	5525	562758.590913287188	2
7	5528	563121.837334784183	1
7	5576	567282.850553929017	0
7	5584	568738.450320922224	1
7	5593	570175.570332373485	2
7	5597	570277.929368127835	1
7	5601	570543.873596064021	2
7	5611	570944.152032175632	1
7	5627	571236.02799750967	0
7	5631	572506.868718758972	1
7	5647	576254.334316012412	2
7	5649	576316.806759577549	1
7	5664	578375.883570339691	2
7	5667	579701.789796939425	1
7	5681	580510.435948325007	2
7	5693	581324.192356415046	3
7	5697	581373.610387731458	2
7	5700	581503.066793018056	1
7	5704	581691.828547006142	2
7	5708	581790.526236676713	1
7	5719	582647.508966514255	0
7	5723	582732.501217050825	1
7	5741	583609.449366604494	0
7	5745	583878.921152546223	1
7	5749	584066.330299378692	0
7	5775	584960.865509031512	1
7	5780	585242.506280487072	2
7	5782	585919.582161352714	1
7	5791	586767.166093897066	0
7	5805	587844.347226964887	1
7	5807	587920.086586954185	0
7	5823	590188.761611652252	1
7	5825	590294.682440775499	0
7	5844	593268.430141067964	1
7	5849	593390.134685856729	2
7	5851	594437.911794526676	1
7	5865	596476.063878793569	0
7	5870	596728.011808215619	1
7	5877	597889.949138887512	0
7	5895	598434.302471903129	1
7	5904	601416.632264026806	2
7	5912	603132.473342573733	1
7	5917	603765.039329591538	2
7	5922	603896.212016604833	3
7	5930	605193.151260984377	2
7	5939	607481.371897259371	1
7	5947	608460.16417602823	0
7	5963	610677.974619735901	1
7	5971	612634.480952188749	0
7	5975	612988.212242031182	1
7	5988	614270.865498726995	0
7	5993	615906.638391143707	1
7	5997	615972.6714681968	0
7	6016	618875.571354847073	1
7	6028	621295.401025391363	2
7	6033	621398.318950606432	3
7	6042	622293.327434824825	4
7	6044	623226.526258421735	3
7	6052	623924.680814941326	2
7	6067	625556.691116689313	3
7	6076	625833.42254007164	4
7	6078	625932.21396663004	3
7	6083	625944.116339938451	2
7	6101	626401.621745454434	3
7	6112	627441.433252588707	2
7	6116	627611.407712792017	3
7	6120	627648.088256175238	2
7	6123	628517.770722567757	1
7	6127	628742.235887008802	2
7	6131	629069.812299015161	1
7	6136	629178.394371823693	2
7	6141	629463.49538955116	3
7	6145	629498.977184191367	2
7	6148	629635.083736842594	1
7	6166	630144.357871198848	0
7	6201	633831.34289457898	1
7	6206	633881.971003921336	2
7	6212	634280.295432080278	3
7	6219	634959.768019624172	2
7	6224	635034.839779165433	1
7	6236	635198.720940506862	2
7	6244	637516.208350470349	1
7	6252	637676.237944308652	0
7	6268	640047.65740930622	1
7	6270	641094.472775450619	0
7	6285	641863.957278250281	1
7	6293	643948.597080652728	0
7	6301	645765.057521500022	1
7	6307	646572.350380460969	2
7	6314	647247.613995607626	1
7	6328	648346.263021831589	0
7	6332	648706.097752595297	1
7	6340	649936.321845696259	0
7	6357	655744.002228143617	1
7	6359	656478.018068985763	0
7	6374	657378.291227559254	1
7	6376	657440.431771114238	0
7	6393	662007.586149823602	1
7	6403	665708.935254907365	2
7	6405	665847.176677636499	1
7	6413	666597.08843509738	0
7	6428	668356.628609745173	1
7	6431	668649.648526827822	0
7	6446	671198.819825568364	1
7	6454	671552.231162911086	2
7	6457	672624.622123079766	1
7	6473	673565.862929309855	0
7	6478	673901.991369680427	1
7	6483	674085.727561711548	2
7	6497	675854.201975826993	3
7	6499	676101.501573541645	2
7	6507	676474.151146487676	1
7	6523	676921.232933220876	0
7	6531	678523.618645899135	1
7	6536	678839.679506553704	2
7	6542	679003.018230961438	3
7	6546	679254.042222462199	2
7	6557	680547.932509546364	1
7	6571	681652.749058615864	0
7	6575	681828.584251624535	1
7	6592	683579.548128152038	2
7	6598	684090.346386995691	3
7	6606	684220.458225728363	4
7	6608	685122.314217515994	3
7	6616	685335.552179805765	2
7	6631	686829.131814011304	3
7	6633	687200.829425038887	2
7	6648	687685.619456347829	3
7	6650	688041.038892886148	2
7	6658	688104.447417273035	1
7	6672	689163.379193523023	0
7	6676	689722.16467229304	1
7	6680	689851.208672009251	0
7	6699	693929.505836478924	1
7	6707	694652.165637663051	0
7	6714	695002.960720747864	1
7	6718	695851.985481239012	0
7	6726	696341.773766046341	1
7	6731	696457.792115783376	2
7	6743	697474.753772798088	1
7	6762	699593.197199534527	2
7	6766	700424.374872552068	1
7	6771	701302.191703893999	2
7	6775	701393.91442654545	1
7	6778	701465.226013449064	0
7	6801	704464.029793450477	1
7	6804	704594.590816300397	0
7	6818	705086.00944301787	1
7	6826	705272.303157056695	2
7	6829	706514.236529885964	1
7	6834	706795.70105897954	0
7	6855	708007.019946361868	1
7	6863	708202.79474067346	2
7	6867	708613.673987378165	1
7	6874	708921.587742014428	2
7	6882	709413.152250717861	3
7	6886	709647.881089329919	2
7	6894	710512.425396757148	3
7	6902	711316.562911060806	4
7	6907	711386.316543426131	5
7	6920	712167.172188512898	4
7	6925	712335.820526066691	3
7	6937	713542.857488197486	2
7	6952	715373.761826572157	3
7	6954	715434.011592957174	2
7	6963	716716.387554584019	1
7	6972	718287.719522409908	0
7	6994	722226.465883457264	1
7	6999	722279.618664574749	2
7	7004	722313.323006156103	3
7	7006	722810.742302743175	2
7	7014	722942.510811671077	1
7	7022	723363.147596795415	0
7	7043	729991.84066933616	1
7	7048	730479.913318209872	0
7	7055	731451.364356967622	1
7	7059	731526.331252651395	0
7	7063	731762.764451339096	1
7	7068	732283.644261237781	0
7	7105	737361.758603262394	1
7	7109	738119.789740672744	0
7	7113	738708.472012738873	1
7	7119	739266.776383071065	2
7	7123	739526.438058168502	1
7	7127	740216.94221130021	2
7	7133	740623.404100349915	3
7	7142	741388.063283248024	2
7	7153	742076.12274779993	1
7	7168	743104.098277888166	2
7	7176	744473.584482314123	1
7	7180	744531.014052251841	2
7	7187	744656.08832010133	1
7	7201	745517.534351348537	2
7	7203	745557.955966337083	1
7	7214	750464.967805452331	0
7	7229	752296.917793130088	1
7	7232	752588.350751293121	0
7	7247	755794.315514534675	1
7	7251	758493.689296305979	0
7	7265	759133.290767778827	1
7	7268	759989.908352620878	0
7	7287	764160.393488207629	1
7	7299	764846.072458248782	2
7	7303	764977.657970496527	1
7	7310	766160.01756280015	2
7	7314	766189.949560337015	1
7	7319	766583.561332119824	2
7	7327	768020.085747037713	1
7	7330	768224.68605834623	0
7	7334	768272.025564316017	1
7	7342	769013.264218724003	2
7	7346	769046.61800846143	1
7	7349	769130.235221757183	0
7	7353	769553.563828481145	1
7	7358	769972.394948126582	0
7	7406	775104.267938073553	1
7	7410	775407.928085863659	0
7	7414	775768.521443747538	1
7	7427	776883.565201682931	0
7	7431	777268.576818163616	1
7	7439	778548.255601536269	0
7	7457	780331.722724842371	1
7	7464	780626.061097794602	0
7	7468	780881.699215785121	1
7	7472	781073.670956782019	0
7	7479	781608.208728206787	1
7	7485	781809.260631553776	2
7	7503	783114.244737186692	3
7	7506	784611.774230063383	2
7	7519	784997.917136244733	1
7	7524	785333.651425380963	2
7	7531	786451.513324952624	1
7	7546	787678.374883560753	2
7	7553	788437.390692815982	1
7	7565	790848.997216604206	2
7	7573	791226.269656232559	3
7	7578	791236.503988867361	4
7	7582	791285.375700270926	3
7	7586	791501.818387407265	4
7	7598	791960.281717881237	3
7	7607	792609.502785367903	2
7	7614	793044.185657574567	3
7	7622	794012.282205042396	2
7	7626	794032.12765102362	3
7	7630	794132.797092084343	2
7	7634	794165.570173964132	3
7	7656	794855.41626124858	2
7	7670	795985.871965679801	1
7	7674	796418.228232763804	2
7	7678	796567.638151605464	1
7	7689	797108.584878200737	0
7	7706	800848.197994283257	1
7	7708	801091.174274140693	0
7	7726	802557.19146725605	1
7	7731	802850.491406324444	2
7	7743	804141.599472897994	3
7	7747	804336.00159522965	2
7	7751	804849.463467608162	3
7	7755	804932.114873609674	2
7	7773	806130.844121220328	3
7	7775	806660.979781680491	2
7	7783	807197.900414323926	1
7	7797	808722.551806236258	0
7	7802	809558.646178482805	1
7	7810	811685.158569356884	0
7	7828	812713.734771820494	1
7	7833	814141.825889105865	2
7	7836	815220.055555897545	1
7	7845	816595.217343020137	0
7	7859	817452.493483613776	1
7	7867	818832.782771638527	0
7	7875	820916.302292364166	1
7	7880	821238.857746267916	0
7	7888	822876.437187416244	1
7	7901	824095.882845961384	0
7	7912	825484.915358928832	1
7	7920	826321.504015239055	0
7	7931	828889.455546791476	1
7	7936	830238.610855138046	0
7	7948	833227.620875563986	1
7	7956	833622.120759999254	2
7	7961	834111.60221955202	3
7	7965	834169.223910877871	2
7	7968	834456.650431211733	1
7	7972	834769.357428842808	2
7	7977	835398.477833428529	1
7	7981	835984.379143075461	2
7	7986	836177.342170532583	3
7	7990	836489.590809218957	2
7	7999	838283.81058911091	3
7	8014	840114.705437701176	4
7	8018	840319.207395549945	3
7	8024	840461.174008081537	2
7	8028	840779.571385798439	3
7	8032	840974.569855958236	2
7	8035	841454.902671222059	1
7	8042	842232.775813266088	0
7	8050	843495.5070144006	1
7	8055	843608.002047803944	2
7	8059	844302.502344814413	1
7	8062	844674.341913931286	0
7	8071	847332.890810449411	1
7	8075	847419.619452526828	0
7	8079	848248.749570163526	1
7	8088	849707.594290437521	2
7	8093	850303.992962828323	1
7	8107	852777.487434824085	2
7	8111	852829.836410153716	1
7	8115	852937.085551625728	2
7	8120	852991.043033490641	3
7	8124	853277.395150187038	2
7	8127	853293.926152788894	1
7	8131	853338.930687412364	2
7	8139	853615.329128998868	3
7	8145	854589.032217495667	4
7	8149	854992.97155324683	3
7	8152	855035.689155308338	2
7	8163	855603.878749198684	3
7	8167	855734.570591887107	2
7	8171	855845.754220093893	3
7	8175	855869.947826661293	2
7	8178	855999.308785555598	1
7	8185	857445.620489111366	0
7	8190	859063.933975641447	1
7	8194	860512.161289866768	0
7	8202	860784.660623517897	1
7	8207	861189.450922045129	2
7	8212	861202.990178826557	3
7	8216	861828.557796627238	2
7	8219	861945.243936131616	1
7	8223	861949.243531229854	2
7	8241	862647.489815647366	1
7	8245	862708.128592935958	2
7	8257	863511.446639170176	1
7	8265	863734.437272331961	0
7	8273	864115.422451168697	1
7	8278	865112.497696999538	2
7	8303	866859.141682440204	1
7	8322	867777.133553770988	0
7	8334	868479.497041560508	1
7	8414	870633.395052526745	0
7	8458	873234.695183474738	1
7	8486	874546.72083446011	2
7	8494	874783.75777780978	3
7	8498	874816.012228921031	2
7	8502	875481.028427109552	3
7	8506	875826.37326427081	2
7	8510	875975.416654986198	3
7	8515	876406.75686263239	2
7	8519	877339.588156586342	3
7	8534	877882.69961607837	2
7	8542	877976.305364624725	1
7	8545	878101.138716293702	0
7	8568	880788.388657022778	1
7	8571	881251.240831906434	0
7	8586	883259.727786354726	1
7	8595	885877.354936933147	2
7	8613	887660.636094900773	3
7	8617	887744.34113628014	2
7	8621	887983.854424122745	3
7	8626	888927.380714782474	2
7	8629	889094.238588712576	1
7	8633	889549.280839745198	2
7	8637	889627.791728562069	1
7	8642	890570.814538016199	2
7	8646	890901.356934673851	1
7	8664	892500.31572615485	2
7	8683	893197.887881456486	1
7	8687	893293.766521477592	2
7	8692	893788.165551238732	3
7	8700	893867.112757288837	4
7	8705	893913.887510110277	5
7	8728	894709.07901735973	6
7	8736	894757.768531248449	7
7	8738	894764.777675276091	6
7	8747	894959.343441615725	5
7	8755	895527.443373427517	4
7	8768	896370.415165561492	3
7	8772	897192.1393700582	2
7	8779	897468.354438761886	3
7	8783	897678.904184917372	2
7	8786	897953.554852144552	1
7	8789	898041.011099283115	0
7	8794	898581.205993624498	1
7	8812	899815.768251515204	2
7	8835	901121.084521162362	1
7	8840	902086.095039642877	2
7	8844	902131.744670212004	1
7	8861	903424.802548103821	0
7	8865	903680.428295374673	1
7	8888	906970.519925366384	0
7	8892	907674.682492711817	1
7	8897	908135.717058920957	2
7	8902	908185.039170054181	3
7	8906	908356.577954418258	2
7	8910	909223.230596592593	1
7	8914	909388.137889524701	2
7	8931	910180.628094023029	1
7	8935	910402.091373193495	0
7	8939	910659.899277890409	1
7	8952	911306.327453815316	2
7	8971	912067.689832672817	1
7	8978	913202.25009609031	2
7	8983	913495.378930125807	3
7	8988	913621.963660659554	4
7	8993	913834.611236162477	3
7	8996	913900.357462639859	2
7	8999	914125.559165267111	1
7	9002	915225.512124188879	0
7	9013	916618.391016119892	1
7	9025	917850.563937696503	2
7	9029	918152.962920648303	1
7	9032	918677.723568580839	0
7	9040	919629.392082656782	1
7	9046	922072.633499830209	2
7	9052	922383.776200033302	3
7	9059	922734.805804384829	2
7	9062	922902.686560826515	1
7	9065	922945.599306913244	0
7	9069	923272.203686229906	1
7	9074	923681.92091083119	2
7	9099	924684.688438751355	1
7	9102	924816.702211050312	0
7	9125	926254.647438208692	1
7	9140	927756.671205342159	0
7	9157	928628.775577169104	1
7	9167	929232.588596544519	0
7	9185	931270.640015479335	1
7	9198	932272.345591013676	2
7	9201	933790.497424118026	1
7	9224	938445.470925803398	2
7	9229	938591.475502985122	3
7	9240	938778.928675203414	4
7	9248	939417.753387139329	3
7	9252	939613.972422939711	4
7	9256	939713.992668947496	3
7	9260	940534.030526645173	4
7	9264	940619.104012869425	3
7	9267	940649.929857492254	2
7	9272	941202.525070917151	3
7	9281	941529.274119674655	2
7	9284	941900.46338670848	1
7	9317	945547.366664516769	0
7	9322	946702.658733918493	1
7	9336	948160.966270727183	2
7	9338	948830.838865277016	1
7	9347	950165.439086805653	0
7	9365	956679.483439540052	1
7	9376	958830.788314796615	0
7	9385	963014.683669779028	1
7	9391	964161.718288345883	2
7	9396	964612.981327049624	3
7	9401	965228.774143277526	2
7	9412	965904.092630441964	1
7	9430	966992.633106030956	2
7	9435	967808.713599364623	3
7	9444	968887.37101270184	4
7	9446	969940.903974608006	3
7	9451	969954.343841611846	2
7	9466	971330.076006657518	1
7	9471	972360.507073247698	2
7	9475	972562.139377490496	1
7	9478	973426.528906603454	0
7	9486	974583.305986058718	1
7	9495	975722.727077220174	2
7	9502	976548.093306817885	1
7	9509	977471.737381632514	0
7	9522	978489.190640427269	1
7	9531	980061.028680104506	2
7	9536	980302.587070138882	3
7	9542	980662.07816607088	4
7	9546	980793.238087708681	3
7	9552	982139.666145791819	2
7	9556	982489.523763307858	1
7	9560	982492.395916795051	2
7	9568	983261.033907215591	3
7	9573	983576.655517543092	4
7	9577	983954.15978132022	3
7	9581	984240.923191957042	2
7	9588	985546.327852130981	3
7	9593	985605.940303207642	4
7	9597	985661.115367350344	3
7	9601	985900.970309139354	2
7	9607	986617.261695235918	1
7	9614	987654.885553404295	0
7	9618	987982.389721772599	1
7	9623	988029.916264345321	2
7	9628	988424.274609007615	3
7	9647	989589.21461634721	2
7	9651	989829.708250951077	3
7	9659	990151.204532965694	4
7	9666	990303.385134150103	3
7	9670	990540.337157031819	4
7	9674	990558.607319019831	3
7	9677	990577.124412245929	2
7	9681	990683.560529444828	3
7	9686	991480.426418736219	2
7	9689	991593.606471528939	1
7	9692	991922.434286179227	0
7	9696	992052.219707688456	1
7	9716	992787.666361333812	0
7	9733	993438.494960596201	1
7	9747	994237.807592112899	0
7	9766	996305.88927276451	1
7	9812	999580.066742233832	0
7	9837	1002946.254902995457	1
7	9846	1004846.078137076926	2
7	9850	1005201.641712818764	1
7	9854	1005426.219580498996	2
7	9858	1005731.3941383004	1
7	9866	1006547.136537894741	2
7	9870	1006922.865628318553	1
7	9877	1008084.356492343373	0
7	9881	1008190.809600339177	1
7	9886	1008327.179153113663	2
7	9898	1008593.548507898203	1
7	9907	1009674.135607796372	2
7	9927	1010146.167588113038	1
7	9943	1010658.523340547876	0
7	9948	1012325.371904341619	1
7	9982	1014053.080467931054	2
7	9984	1014467.20611496527	1
7	9993	1015663.977909384169	0
7	10009	1018781.764247112148	1
7	10011	1019413.0650349296	0
7	10035	1025606.665077313531	1
7	10041	1027959.888846402191	2
7	10048	1028256.950175250978	1
7	10052	1029135.728449540192	0
7	10056	1029623.816250798763	1
7	10061	1029732.357630661237	2
7	10079	1030149.293451374969	3
7	10087	1031491.008187183883	2
7	10092	1032518.310839543008	3
7	10108	1032845.977477164896	4
7	10112	1032867.781331466739	3
7	10116	1033526.083052831251	4
7	10120	1033615.196186213108	3
7	10127	1034461.796169562816	2
7	10130	1034474.560200935235	1
7	10138	1034749.796404463279	0
7	10146	1035710.117775723123	1
7	10151	1036389.178417258943	2
