version 2
run ParkingMeasurement-93-20170108-17:29:12-4957
attr configname ParkingMeasurement
attr datetime 20170108-17:29:12
attr experiment ParkingMeasurement
attr inifile parkingStudy.ini
attr iterationvars ""
attr iterationvars2 $repetition=93
attr measurement ""
attr network controltower.SimNetwork
attr processid 4957
attr repetition 93
attr replication #93
attr resultdir results
attr runnumber 93
attr seedset 93
param SimNetwork.a.parkingLot.parkingDelay exponential(30min)
param SimNetwork.a.runway.landingTime exponential(15min)
param SimNetwork.a.runway.takeoffTime exponential(5min)
param SimNetwork.a.runway.throughputCheckInterval 28.571min
param SimNetwork.wg.interArrivalTime exponential(28.571min)

statistic SimNetwork.wg 	responseTime:stats
field count 507
field mean 8446.1163208452
field stddev 5875.5268905386
field sum 4282180.9746685
field sqrsum 53635837637.13
field min 922.50751172397
field max 29641.300813246
attr source  responseTimeSignal
scalar SimNetwork.a.landingQueue 	queueLength:timeavg 	0.50229622310303
attr source  queueLengthSignal
statistic SimNetwork.a.landingQueue 	queueLength:stats
field count 1015
field mean 1.007881773399
field stddev 1.2339449996425
field sum 1023
field sqrsum 2575
field min 0
field max 9
attr source  queueLengthSignal
statistic SimNetwork.a.landingQueue 	queueTime:stats
field count 508
field mean 876.89139057355
field stddev 1464.2004315569
field sum 445460.82641136
field sqrsum 1477569395.73
field min 0
field max 7123.825749264
attr source  queueTimeSignal
scalar SimNetwork.a.takeoffQueue 	queueLength:timeavg 	1.6560438972163
attr source  queueLengthSignal
statistic SimNetwork.a.takeoffQueue 	queueLength:stats
field count 1012
field mean 2.8221343873518
field stddev 4.4023624839266
field sum 2856
field sqrsum 27654
field min 0
field max 24
attr source  queueLengthSignal
statistic SimNetwork.a.takeoffQueue 	queueTime:stats
field count 506
field mean 2896.3156138592
field stddev 4709.9881392554
field sum 1465535.7006128
field sqrsum 15447568009.676
field min 0
field max 22057.833273082
attr source  queueTimeSignal
scalar SimNetwork.a.parkingLot 	parkingOccupancy:timeavg 	1.03519448598
attr source  parkingOccupancy
statistic SimNetwork.a.parkingLot 	parkingOccupancy:stats
field count 1013
field mean 1.4787759131293
field stddev 1.0401018886945
field sum 1498
field sqrsum 3310
field min 0
field max 6
attr source  parkingOccupancy
