version 2
run ParkingMeasurement-9-20170106-02:04:35-12118
attr configname ParkingMeasurement
attr datetime 20170106-02:04:35
attr experiment ParkingMeasurement
attr inifile parkingStudy.ini
attr iterationvars ""
attr iterationvars2 $repetition=9
attr measurement ""
attr network SimNetwork
attr processid 12118
attr repetition 9
attr replication #9
attr resultdir results
attr runnumber 9
attr seedset 9
param SimNetwork.a.parkingLot.parkingDelay exponential(30min)
param SimNetwork.a.runway.landingTime exponential(15min)
param SimNetwork.a.runway.takeoffTime exponential(5min)
param SimNetwork.a.runway.throughputCheckInterval 28.571min
param SimNetwork.wg.interArrivalTime exponential(28.571min)

statistic SimNetwork.wg 	responseTime:stats
field count 547
field mean 12563.7308062
field stddev 11084.709452946
field sum 6872360.7509913
field sqrsum 153429938354.85
field min 1025.325458572
field max 46619.247376435
attr source  responseTimeSignal
scalar SimNetwork.a.landingQueue 	queueLength:timeavg 	1.0250531451405
attr source  queueLengthSignal
statistic SimNetwork.a.landingQueue 	queueLength:stats
field count 1092
field mean 1.5567765567766
field stddev 2.0630483557865
field sum 1700
field sqrsum 7290
field min 0
field max 13
attr source  queueLengthSignal
statistic SimNetwork.a.landingQueue 	queueTime:stats
field count 546
field mean 1664.0245997126
field stddev 2648.5373738162
field sum 908557.4314431
field sqrsum 5334900786.3461
field min 0
field max 13671.108240696
attr source  queueTimeSignal
scalar SimNetwork.a.takeoffQueue 	queueLength:timeavg 	3.8868719688699
attr source  queueLengthSignal
statistic SimNetwork.a.takeoffQueue 	queueLength:stats
field count 1093
field mean 5.1107044830741
field stddev 7.2587956471331
field sum 5586
field sqrsum 86086
field min 0
field max 33
attr source  queueLengthSignal
statistic SimNetwork.a.takeoffQueue 	queueTime:stats
field count 547
field mean 6297.3532208531
field stddev 9387.2484773027
field sum 3444652.2118066
field sqrsum 69805948650.882
field min 0
field max 41377.984170567
attr source  queueTimeSignal
scalar SimNetwork.a.parkingLot 	parkingOccupancy:timeavg 	1.0974810346656
attr source  parkingOccupancy
statistic SimNetwork.a.parkingLot 	parkingOccupancy:stats
field count 1092
field mean 1.6465201465201
field stddev 1.2503186675589
field sum 1798
field sqrsum 4666
field min 0
field max 7
attr source  parkingOccupancy
