version 2
run ParkingMeasurement-133-20170108-17:29:24-5009
attr configname ParkingMeasurement
attr datetime 20170108-17:29:24
attr experiment ParkingMeasurement
attr inifile parkingStudy.ini
attr iterationvars ""
attr iterationvars2 $repetition=133
attr measurement ""
attr network controltower.SimNetwork
attr processid 5009
attr repetition 133
attr replication #133
attr resultdir results
attr runnumber 133
attr seedset 133
param SimNetwork.a.parkingLot.parkingDelay exponential(30min)
param SimNetwork.a.runway.landingTime exponential(15min)
param SimNetwork.a.runway.takeoffTime exponential(5min)
param SimNetwork.a.runway.throughputCheckInterval 28.571min
param SimNetwork.wg.interArrivalTime exponential(28.571min)

statistic SimNetwork.wg 	responseTime:stats
field count 527
field mean 8585.9727801277
field stddev 4822.2463256371
field sum 4524807.6551273
field sqrsum 51081510725.05
field min 772.47306165363
field max 32024.070482588
attr source  responseTimeSignal
scalar SimNetwork.a.landingQueue 	queueLength:timeavg 	0.52874134541167
attr source  queueLengthSignal
statistic SimNetwork.a.landingQueue 	queueLength:stats
field count 1066
field mean 1.0459662288931
field stddev 1.0784912321505
field sum 1115
field sqrsum 2405
field min 0
field max 6
attr source  queueLengthSignal
statistic SimNetwork.a.landingQueue 	queueTime:stats
field count 531
field mean 874.05875690816
field stddev 1104.1100205841
field sum 464125.19991823
field sqrsum 1051773932.194
field min 0
field max 5803.6793491392
attr source  queueTimeSignal
scalar SimNetwork.a.takeoffQueue 	queueLength:timeavg 	1.8270226404591
attr source  queueLengthSignal
statistic SimNetwork.a.takeoffQueue 	queueLength:stats
field count 1058
field mean 2.9083175803403
field stddev 3.8911522767631
field sum 3077
field sqrsum 24953
field min 0
field max 18
attr source  queueLengthSignal
statistic SimNetwork.a.takeoffQueue 	queueTime:stats
field count 527
field mean 3043.4920776056
field stddev 3961.3088407238
field sum 1603920.3248982
field sqrsum 13135493828.758
field min 0
field max 18205.394589692
attr source  queueTimeSignal
scalar SimNetwork.a.parkingLot 	parkingOccupancy:timeavg 	1.0944493309888
attr source  parkingOccupancy
statistic SimNetwork.a.parkingLot 	parkingOccupancy:stats
field count 1062
field mean 1.5357815442561
field stddev 1.1078250938509
field sum 1631
field sqrsum 3807
field min 0
field max 7
attr source  parkingOccupancy
