<<<<<<< HEAD
file 172432 1483715043                                          
version 2
run ParkingMeasurement-2-20170106-02:04:34-12077
attr configname ParkingMeasurement
attr datetime 20170106-02:04:34
attr experiment ParkingMeasurement
attr inifile parkingStudy.ini
attr iterationvars ""
attr iterationvars2 $repetition=2
attr measurement ""
attr network SimNetwork
attr processid 12077
attr repetition 2
attr replication #2
attr resultdir results
attr runnumber 2
attr seedset 2
param SimNetwork.a.parkingLot.parkingDelay exponential(30min)
param SimNetwork.a.runway.landingTime exponential(15min)
param SimNetwork.a.runway.takeoffTime exponential(5min)
param SimNetwork.a.runway.throughputCheckInterval 28.571min
param SimNetwork.wg.interArrivalTime exponential(28.571min)
vector 0  SimNetwork.wg  responseTime:vector  ETV
attr source responseTimeSignal
0	1431 22177 1434 10167 150683.771883548112 1028668.570777216423 518 914.32611535039 48702.930468505 5619743.485742 101946857393.69
vector 4  SimNetwork.a.takeoffQueue  queueLength:vector  ETV
attr source queueLengthSignal
4	93241 30007 1436 10185 150683.771883548112 1033208.066447945649 1031 0 26 4270 51036
vector 3  SimNetwork.a.takeoffQueue  queueTime:vector  ETV
attr source queueTimeSignal
3	73140 20101 1436 10163 150683.771883548112 1028487.025064486514 517 0 39813.042517975 2617063.8961084 45347053130.237
vector 5  SimNetwork.a.runway  landedThroughput:vector  ETV
attr source landedThroughputSignal
5	123248 9734 1438 10194 150854.88 1035413.04 517 0 5 513 1041
vector 6  SimNetwork.a.runway  tookoffThroughput:vector  ETV
attr source tookoffThroughputSignal
6	132982 9734 1438 10194 150854.88 1035413.04 517 0 9 522 1744
vector 7  SimNetwork.a.parkingLot  parkingOccupancy:vector  ETV
attr source parkingOccupancy
7	142716 29716 1458 10184 153723.470731016229 1033208.066447945649 1027 0 8 1577 3937
vector 2  SimNetwork.a.landingQueue  queueLength:vector  ETV
attr source queueLengthSignal
2	43309 29831 1468 10196 155930.817472887903 1035744.06990612071 1031 0 7 1236 3444
vector 1  SimNetwork.a.landingQueue  queueTime:vector  ETV
attr source queueTimeSignal
1	23608 19701 1470 10182 155930.817472887903 1033074.452245311706 514 0 9914.4201865285 578583.20528701 2068382425.018
=======
file 172443 1483892922                                          
version 2
run ParkingMeasurement-2-20170108-17:28:42-4784
attr configname ParkingMeasurement
attr datetime 20170108-17:28:42
attr experiment ParkingMeasurement
attr inifile parkingStudy.ini
attr iterationvars ""
attr iterationvars2 $repetition=2
attr measurement ""
attr network controltower.SimNetwork
attr processid 4784
attr repetition 2
attr replication #2
attr resultdir results
attr runnumber 2
attr seedset 2
param SimNetwork.a.parkingLot.parkingDelay exponential(30min)
param SimNetwork.a.runway.landingTime exponential(15min)
param SimNetwork.a.runway.takeoffTime exponential(5min)
param SimNetwork.a.runway.throughputCheckInterval 28.571min
param SimNetwork.wg.interArrivalTime exponential(28.571min)

vector 0  SimNetwork.wg  responseTime:vector  ETV
attr source  responseTimeSignal
vector 4  SimNetwork.a.takeoffQueue  queueLength:vector  ETV
attr source  queueLengthSignal
vector 3  SimNetwork.a.takeoffQueue  queueTime:vector  ETV
attr source  queueTimeSignal
vector 5  SimNetwork.a.runway  landedThroughput:vector  ETV
attr source  landedThroughputSignal
vector 6  SimNetwork.a.runway  tookoffThroughput:vector  ETV
attr source  tookoffThroughputSignal
vector 7  SimNetwork.a.parkingLot  parkingOccupancy:vector  ETV
attr source  parkingOccupancy
vector 2  SimNetwork.a.landingQueue  queueLength:vector  ETV
attr source  queueLengthSignal
vector 1  SimNetwork.a.landingQueue  queueTime:vector  ETV
attr source  queueTimeSignal
0	1442 22177 1434 10167 150683.771883548112 1028668.570777216423 518 914.32611535039 48702.930468505 5619743.485742 101946857393.69
1	23619 19701 1470 10182 155930.817472887903 1033074.452245311706 514 0 9914.4201865285 578583.20528701 2068382425.018
2	43320 29831 1468 10196 155930.817472887903 1035744.06990612071 1031 0 7 1236 3444
3	73151 20101 1436 10163 150683.771883548112 1028487.025064486514 517 0 39813.042517975 2617063.8961084 45347053130.237
4	93252 30007 1436 10185 150683.771883548112 1033208.066447945649 1031 0 26 4270 51036
5	123259 9734 1438 10194 150854.88 1035413.04 517 0 5 513 1041
6	132993 9734 1438 10194 150854.88 1035413.04 517 0 9 522 1744
7	142727 29716 1458 10184 153723.470731016229 1033208.066447945649 1027 0 8 1577 3937
>>>>>>> branch 'develop' of git@github.com:enricomeloni/PESC_Control_Tower.git
