version 2
run ParkingMeasurement-132-20170108-17:29:24-5008
attr configname ParkingMeasurement
attr datetime 20170108-17:29:24
attr experiment ParkingMeasurement
attr inifile parkingStudy.ini
attr iterationvars ""
attr iterationvars2 $repetition=132
attr measurement ""
attr network controltower.SimNetwork
attr processid 5008
attr repetition 132
attr replication #132
attr resultdir results
attr runnumber 132
attr seedset 132
param SimNetwork.a.parkingLot.parkingDelay exponential(30min)
param SimNetwork.a.runway.landingTime exponential(15min)
param SimNetwork.a.runway.takeoffTime exponential(5min)
param SimNetwork.a.runway.throughputCheckInterval 28.571min
param SimNetwork.wg.interArrivalTime exponential(28.571min)

statistic SimNetwork.wg 	responseTime:stats
field count 498
field mean 9333.8746595784
field stddev 6283.7492351806
field sum 4648269.5804701
field sqrsum 63010661360.003
field min 1265.7855031533
field max 34522.563072291
attr source  responseTimeSignal
scalar SimNetwork.a.landingQueue 	queueLength:timeavg 	0.58537991927217
attr source  queueLengthSignal
statistic SimNetwork.a.landingQueue 	queueLength:stats
field count 991
field mean 1.0706357214934
field stddev 1.1295192056154
field sum 1061
field sqrsum 2399
field min 0
field max 6
attr source  queueLengthSignal
statistic SimNetwork.a.landingQueue 	queueTime:stats
field count 496
field mean 1051.5009492846
field stddev 1556.1435028192
field sum 521544.47084518
field sqrsum 1747087893.8642
field min 0
field max 9626.2187624576
attr source  queueTimeSignal
scalar SimNetwork.a.takeoffQueue 	queueLength:timeavg 	1.9402677465534
attr source  queueLengthSignal
statistic SimNetwork.a.takeoffQueue 	queueLength:stats
field count 995
field mean 3.0060301507538
field stddev 4.0092904959332
field sum 2991
field sqrsum 24969
field min 0
field max 20
attr source  queueLengthSignal
statistic SimNetwork.a.takeoffQueue 	queueTime:stats
field count 498
field mean 3454.7680166699
field stddev 5152.6559312092
field sum 1720474.4723016
field sqrsum 19139122163.681
field min 0
field max 30127.951756137
attr source  queueTimeSignal
scalar SimNetwork.a.parkingLot 	parkingOccupancy:timeavg 	1.0277900281248
attr source  parkingOccupancy
statistic SimNetwork.a.parkingLot 	parkingOccupancy:stats
field count 994
field mean 1.5362173038229
field stddev 1.1153042192933
field sum 1527
field sqrsum 3581
field min 0
field max 6
attr source  parkingOccupancy
