version 2
run ParkingMeasurement-23-20170106-02:04:39-12200
attr configname ParkingMeasurement
attr datetime 20170106-02:04:39
attr experiment ParkingMeasurement
attr inifile parkingStudy.ini
attr iterationvars ""
attr iterationvars2 $repetition=23
attr measurement ""
attr network SimNetwork
attr processid 12200
attr repetition 23
attr replication #23
attr resultdir results
attr runnumber 23
attr seedset 23
param SimNetwork.a.parkingLot.parkingDelay exponential(30min)
param SimNetwork.a.runway.landingTime exponential(15min)
param SimNetwork.a.runway.takeoffTime exponential(5min)
param SimNetwork.a.runway.throughputCheckInterval 28.571min
param SimNetwork.wg.interArrivalTime exponential(28.571min)

vector 2  SimNetwork.a.landingQueue  queueLength:vector  ETV
attr source  queueLengthSignal
vector 1  SimNetwork.a.landingQueue  queueTime:vector  ETV
attr source  queueTimeSignal
vector 5  SimNetwork.a.runway  landedThroughput:vector  ETV
attr source  landedThroughputSignal
vector 6  SimNetwork.a.runway  tookoffThroughput:vector  ETV
attr source  tookoffThroughputSignal
vector 7  SimNetwork.a.parkingLot  parkingOccupancy:vector  ETV
attr source  parkingOccupancy
vector 4  SimNetwork.a.takeoffQueue  queueLength:vector  ETV
attr source  queueLengthSignal
vector 3  SimNetwork.a.takeoffQueue  queueTime:vector  ETV
attr source  queueTimeSignal
vector 0  SimNetwork.wg  responseTime:vector  ETV
attr source  responseTimeSignal
0	1492	154669.02811184413	3897.5234873187
0	1497	155121.786556590981	3760.787296022
0	1513	155726.954116538675	3545.6271384864
0	1525	156222.724029017197	3348.9507589033
0	1530	156529.689365680025	6847.6670043136
0	1644	175249.995605361948	12115.995796093
0	1659	176656.264280786646	13139.738430292
0	1672	177795.871730742344	22491.894318135
0	1678	178312.790718459727	10339.138699831
0	1683	178409.796942423491	11967.670243489
0	1688	178542.727420000557	12159.45260687
0	1693	178563.796002348629	8804.9462900749
0	1698	178566.445212132407	6934.3039291164
0	1703	178949.795713885878	6084.9156860511
0	1711	179827.02667762556	11166.161905398
0	1720	180122.819402121627	8771.2681806407
0	1757	184467.127071357722	8453.5488727716
0	1765	184873.120708213853	2888.4426083934
0	1771	185228.902970532234	2304.2732911631
0	1790	191416.094979104544	8300.2000921603
0	1807	193697.056689618608	5900.9294032921
0	1851	198961.506177071693	5744.758826468
0	2004	213604.369823007255	16516.423361989
0	2016	214788.849049730233	18617.425781796
0	2033	216623.909303033786	22273.151118153
0	2038	216658.838986610404	17299.584440949
0	2043	216851.986795896493	16407.913321821
0	2052	217817.94249388182	19869.124067065
0	2057	217926.012781544815	15739.420728623
0	2062	218129.184291990565	16328.639767651
0	2067	218246.707786306544	12972.646360333
0	2072	218276.857937978688	10787.335966018
0	2080	218929.547410527239	11926.76872429
0	2091	219435.657004577997	9182.441268727
0	2096	219910.78003539683	8642.0066389096
0	2101	220200.264238236391	12361.828322115
0	2109	220464.388126558108	14368.001578382
0	2117	220769.565248240167	9915.3602540749
0	2142	222469.921391373448	10342.484716694
0	2151	222914.876205407453	9022.3280555703
0	2156	222943.819116462734	4313.1457396596
0	2164	223211.521069396988	2528.41005922
0	2180	228010.542081281378	7198.7612761632
0	2217	235484.911451600478	12400.37254606
0	2232	236241.554303425408	4993.5270013337
0	2269	239084.922075643996	7296.3720298166
0	2277	239303.970615967366	4131.8353712219
0	2288	239856.829935848256	4894.3165642038
0	2299	240466.929487577658	2663.9215896115
0	2308	241849.026502200117	4509.2313048608
0	2316	242720.70818205905	4725.6721195822
0	2352	250078.04887237105	10763.836339045
0	2365	252531.572230798357	4992.8348534861
0	2378	253240.861984736262	5302.3518347572
0	2386	253371.239463811525	4363.9192990489
0	2443	261116.012146384882	8974.2336820189
0	2462	263450.438094901299	5977.0167405211
0	2467	263476.213691614445	5171.4246918661
0	2472	263489.271969674311	5141.2657250754
0	2485	267224.444799970988	6260.8134883125
0	2499	267827.171601596227	8996.8919292739
0	2507	269113.54601668997	7604.7473055887
0	2528	277113.169096071037	10021.342722086
0	2579	281810.323416410549	8113.3819298699
0	2587	281958.825909990072	1923.9818890356
0	2595	282175.620016072404	1868.2962160512
0	2603	282400.24627557974	3746.629149568
0	2620	284248.476581941526	3833.3292407644
0	2628	284267.724825774435	5100.1987975805
0	2708	295793.497241358112	12158.866002668
0	2716	296082.884904591206	8632.5218897519
0	2721	296244.695786470202	8250.9146182323
0	2726	296290.224879910893	7578.293330502
0	2734	296465.113224261265	5033.0247401866
0	2758	299002.433005579376	10140.625005738
0	2785	301166.658410106383	7945.8846085332
0	2790	301290.886429599011	4901.0646500775
0	2819	303817.567890864289	5493.8832920071
0	2824	303920.94029781436	18691.429241007
0	2832	304199.308017907509	6819.8082800598
0	2867	307218.868357353144	5773.9458653527
0	2872	307314.353237217058	7180.274671777
0	2877	307368.306654897866	3129.1986285346
0	2882	307383.368357953714	5632.8196787241
0	2907	309652.486572040996	4428.6134511689
0	2916	311692.661419517854	2923.720315032
0	2936	318410.546056446642	9270.5145179919
0	2955	323620.125170242368	5337.0932436314
0	2973	325792.974909145409	6806.6365877357
0	3016	332382.829983200865	1642.8953495553
0	3033	333557.775463709643	2184.4953844606
0	3041	333688.468037052587	8456.8818435526
0	3059	336923.258749755794	4531.7140260058
0	3067	337475.8722360874	9753.9013235936
0	3077	340878.779091400548	11543.395532039
0	3142	346154.57578368078	4923.3074420177
0	3151	346549.286121791647	3014.2236231312
0	3156	346632.249758608692	4247.4732989688
0	3164	347661.723509387522	3534.5344019314
0	3172	347885.639637949654	12696.372851759
0	3177	347913.191034276443	3759.8554513828
0	3211	350236.583017013867	4514.2045556583
0	3255	351693.51448092329	2708.9528577485
0	3263	351888.421198629228	1463.5562703296
0	3274	352457.253906445641	1882.7341600924
0	3330	355948.800416318375	7576.4699175113
0	3335	356136.803755003574	5529.3966096878
0	3343	356407.176364425948	8249.60399649
0	3352	356793.905319420492	5945.0932609909
0	3366	357592.840805049434	5592.0424962464
0	3476	369676.607035496326	15545.693504508
0	3482	370364.211880306499	17770.904954773
0	3487	370569.082916223002	17085.16478633
0	3495	371388.60975309821	17229.393149979
0	3500	371411.331210984112	14139.75844887
0	3505	371602.381789019374	14182.586509156
0	3510	371838.803123828156	11225.854960577
0	3516	372023.551123508112	11165.007585215
0	3521	372639.35387108751	14212.57906511
0	3526	372692.60322262102	14988.628849006
0	3531	372701.760143032178	10831.27168319
0	3536	372866.031317045922	7162.3831561988
0	3728	390986.25795530438	24838.492875623
0	3741	391193.374384050392	24455.911695694
0	3746	391258.492069299784	18209.937861269
0	3757	392069.951455879011	18861.935495264
0	3768	392723.163080474827	18867.319941561
0	3776	392969.515469022078	16261.322106074
0	3784	393047.084817522482	18625.203846773
0	3798	394315.853029168765	17959.375918872
0	3803	394550.793652538583	17604.224035509
0	3808	394966.46947834025	14859.925729602
0	3813	395178.697130679885	16851.973271411
0	3818	395243.027805908483	12636.83768715
0	3823	395274.857175253595	17972.799428174
0	3828	395439.600606352367	21005.283992654
0	3833	395584.841871953132	12720.464448678
0	3839	396075.420895726254	7894.304450651
0	3844	396091.496051270813	6178.948508346
0	3852	396676.429219331388	9542.2632518881
0	3857	396751.18145454271	5305.6451099159
0	3862	397562.573466774818	6688.9891339348
0	3889	402660.811618773833	9623.6437190932
0	3898	403306.605808636904	2089.7876823027
0	3926	405681.137876646759	3690.9951180339
0	3931	405808.670020658652	1662.6578242706
0	4092	423895.248589466979	19183.663718242
0	4097	423938.430981988089	16140.338637766
0	4102	424062.823558800883	13862.780266629
0	4107	424066.974355637468	15312.316022818
0	4112	424083.338591319638	12981.354260831
0	4117	424143.187344077772	13386.182792389
0	4125	425047.695704623184	13340.027061507
0	4130	425101.187779604429	13690.943786958
0	4136	425685.104659076298	9373.1784062946
0	4141	426244.153580137958	10151.241230536
0	4146	426321.514843938315	7316.8099021203
0	4151	426397.3457866484	12515.15449206
0	4159	426773.39387736323	8612.2915281552
0	4168	427638.423411499063	15736.580996746
0	4194	431185.074159576066	9861.9115537614
0	4210	431840.474225068547	1669.1151498614
0	4237	438887.634899379479	10547.52149953
0	4253	439793.118409222207	8571.4322304349
0	4263	440341.175134803585	6402.7304610664
0	4276	442675.664252083607	4075.512756338
0	4317	445523.763608280945	6514.9045446619
0	4323	446185.181895008163	2514.7665742432
0	4331	447319.802668903053	2890.603593895
0	4368	450273.951933073963	7640.7234311999
0	4376	450598.329137046879	5987.757053109
0	4381	450759.92661399148	2225.4260232649
0	4424	454135.700030083669	4638.8115287465
0	4429	454148.89251611042	4569.2614177112
0	4435	454279.754259734904	3046.3001616307
0	4440	454893.06207256636	3148.3654820228
0	4478	459693.781707691946	7869.4522817766
0	4486	460027.713641714769	1264.9649993209
0	4494	460160.5701924247	1354.3817150884
0	4510	465420.409503710661	6559.8906471117
0	4530	471827.580534810766	11786.853539857
0	4548	476072.332009528383	6287.8470216112
0	4568	477207.049842159492	3069.5313686348
0	4585	478990.555466110077	2329.5775977172
0	4607	480529.296526841915	3486.9543000725
0	4624	482123.870605840279	3106.3083037368
0	4642	486770.301262988384	5800.5622088824
0	4668	489474.736614822603	3724.4726946721
0	4676	489943.449855616703	2962.3520758794
0	4684	490016.858913850716	11228.513452132
0	4702	493083.521524421937	5446.6686842775
0	4729	498348.518248443293	6195.0056791899
0	4738	499536.544264093505	5666.5817277746
0	4780	502796.881716292743	5619.915531022
0	4788	503389.226595504986	3268.0587293692
0	4805	505701.837199837159	5779.5116543392
0	4814	506442.657019874233	4601.4224682917
0	4823	507893.308892082928	7384.2702952812
0	4865	512314.983375553142	8894.2768084675
0	4873	512406.208160927836	3360.1038631113
0	4893	513102.744169950254	1438.0625484635
0	4898	513506.649277855934	3533.2191891259
0	4916	516105.67129112817	3635.2976246487
0	4924	517120.621463695773	6414.8347559024
0	4941	518276.00233282824	3854.0495364628
0	4980	525655.711611283713	7863.5256381252
0	4985	525712.037606158378	1974.3064262908
0	4994	526577.082818672566	6420.3462204637
0	5023	535876.405411806112	11679.789818121
0	5040	536856.645230986992	2345.7350403248
0	5058	540725.947026212246	4830.6415335379
0	5075	543301.991037884508	9307.5844383628
0	5092	544743.996510081454	7734.345312406
0	5100	544913.754302596264	1928.9607932746
0	5154	557668.721754350236	13282.852783576
0	5159	558086.240511065985	12829.138486113
0	5164	558394.032667021768	3591.9749326101
0	5172	558726.841116307751	3412.3838735834
0	5218	563614.923457971191	7411.2291833304
0	5223	563707.838099499071	2460.4313275046
0	5232	565444.59904915793	4179.8621126602
0	5251	569392.604045854714	7413.3039406046
0	5259	570120.820373826323	10931.676091105
0	5275	570848.573557294106	3927.2324768478
0	5302	574744.771863382352	4307.2225995332
0	5310	575362.042885477108	1835.4528996211
0	5338	577486.575842486735	1927.6553709642
0	5355	578285.66760399736	1761.9095847401
0	5402	581825.675282776902	7650.4997311269
0	5425	582711.901816031846	3676.4491261056
0	5457	583661.371419469279	6380.6078699093
0	5470	583745.434767074061	4779.0705126883
0	5491	585740.133428981524	6271.5287709478
0	5512	589501.941591647159	7266.8834417849
0	5660	599561.236798336299	16970.156417178
0	5665	599612.576579719439	21610.984429604
0	5670	599685.237984665432	17825.020341559
0	5678	599826.579022061333	19430.840211653
0	5684	600697.554389958225	17342.017807506
0	5692	601356.86649807465	16595.472303867
0	5697	601467.507573625716	12252.163282654
0	5702	601547.538013513699	18701.999503362
0	5711	602567.426755297198	12346.823232441
0	5754	607047.887969529011	16509.702795317
0	5765	607260.825774491605	17875.008651379
0	5787	608774.027193965248	17149.187502852
0	5795	609266.833873817542	17498.847839867
0	5800	609353.708383137182	16066.648856936
0	5808	609466.065545959646	17104.846925115
0	5813	609723.325606581548	15449.740905014
0	5818	609957.60398491191	14512.098101831
0	5827	610440.809358266058	14107.505936815
0	5889	617060.069090840913	20865.489703831
0	5894	617075.610541286563	13249.915391292
0	5903	617153.458647220447	15015.216880252
0	5920	617896.398883760146	13028.511500857
0	5938	618350.747787064251	13111.613059596
0	5943	618573.695306657916	21474.361334389
0	5948	618755.723932940932	11678.707636556
0	5953	618841.729501781537	11691.84181823
0	5959	619231.241110186116	8788.1688574759
0	5964	619508.579775224765	9147.9220950849
0	5969	619731.842730665389	5303.1015434841
0	5974	619951.541409716679	7752.9390855112
0	5979	619994.754408304832	3839.0941071976
0	5984	620360.846008061355	2951.5654299092
0	5994	622506.195000809596	5904.6675973017
0	6011	624221.033273555394	6435.0199525765
0	6040	633420.488725295934	2626.6209324059
0	6066	637443.924973714777	2331.2553391941
0	6078	639382.657548834063	8165.0337314519
0	6084	639714.285048265039	16391.216370806
0	6167	652348.095803410834	15506.594958367
0	6175	652600.739411618474	11632.709764604
0	6187	656197.654398760024	14821.60567149
0	6193	656749.625421274924	16251.720770102
0	6198	656788.359332367673	15116.910069015
0	6257	660857.765958029208	8435.2669586046
0	6262	661027.22921310415	13619.144893345
0	6267	661128.629764026121	3879.4188225377
0	6278	661700.238258689294	4276.8316178228
0	6289	663110.852728929316	13150.928666508
0	6298	663474.098763579677	6337.4003216726
0	6306	663942.624546178857	4791.6082905076
0	6314	664091.203925174406	15272.503420179
0	6323	665631.259662712869	7158.3593442465
0	6350	671476.195393333619	9913.1342995523
0	6358	671904.448694678651	2427.0311385182
0	6376	675398.711746972995	5081.479009049
0	6401	677053.363984857655	2543.8684828465
0	6490	689591.313632534546	13507.188796317
0	6495	689827.107385101168	13401.08645229
0	6500	690018.815439151531	12228.111803973
0	6505	690065.938721487099	12147.051376527
0	6513	690350.490425620891	13274.923087551
0	6522	690940.085154816237	7374.1343490797
0	6541	692118.0065589732	9153.9010380807
0	6549	692393.346307173531	6957.8020882169
0	6558	693747.785276873394	9972.7474743781
0	6563	694034.897634151738	15902.490930915
0	6601	698702.490420225279	2009.8433023922
0	6615	699538.875409648365	2622.620533699
0	6623	700252.680886576484	3235.0284176671
0	6640	701911.984982634609	3300.028784678
0	6675	707796.839526016443	7414.2359827351
0	6684	708214.579629504313	5067.6180691471
0	6692	709007.365780217666	17934.525679975
0	6703	709297.945106264995	4447.41417947
0	6827	720282.393018902062	13748.314770157
0	6832	720497.462096449788	11255.679803874
0	6837	720595.13610128967	10723.155193894
0	6842	720714.656610957719	8879.9495922271
0	6847	720901.771989839833	8796.3620696212
0	6852	721169.790875468431	3508.0845413209
0	6857	721432.494000443537	10707.125531796
0	6862	721671.822445352094	11617.860764397
0	6868	721713.902846457459	3947.9369592172
0	6876	722812.040457793435	4753.1195811234
0	6885	724010.935243788449	9770.9592036353
0	6931	729489.926657988693	2957.0223708249
0	6936	729507.156375700055	2684.9338267139
0	7035	739753.367403938485	12875.811232386
0	7040	739779.604213867968	11940.85559492
0	7045	740004.053843537539	9102.5452160164
0	7050	740099.054481145307	10256.694009501
0	7055	740195.187200887487	7757.97451869
0	7060	740460.358214034595	21291.621431905
0	7072	741040.145360249705	8545.5043616799
0	7106	744697.445091345115	10917.926745252
0	7111	744851.63067105754	6984.1785098708
0	7116	745359.176679435055	9069.43210834
0	7121	745679.230602308659	5003.9077647554
0	7151	749908.817696226821	11186.992576694
0	7156	750052.696627163947	7790.9577515545
0	7164	750376.054386460885	4212.2269855806
0	7174	753251.258462679282	10713.225507807
0	7191	755697.508851334138	7797.9424050918
0	7218	759560.045074175928	3487.7944731323
0	7226	760303.620394143374	6159.0819770142
0	7252	764496.410718246917	6678.7102618642
0	7273	771601.188208529969	10299.256833889
0	7281	772814.222503383067	11206.049204403
0	7310	780515.371722745697	11793.009442074
0	7321	781702.463848811348	3333.4493208194
0	7352	783860.236303290558	2391.8709149892
0	7360	784203.659780951091	1911.2843771011
0	7369	786184.205157205579	7324.3465469862
0	7397	792625.58756168857	9256.3883639897
0	7423	795734.431317437149	3204.1170450623
0	7440	797309.998232542368	3283.4060640132
0	7448	797612.630716827004	2868.5701738725
0	7457	800304.768774175739	9836.4818884408
0	7475	802333.781748785776	5161.0341039837
0	7565	807545.624533332514	4735.2146845129
0	7584	808681.170644872897	5316.7436757728
0	7607	811038.114714527905	9697.0011205075
0	7612	811124.222951935066	5987.5091182768
0	7617	811207.537550683542	5967.4383125983
0	7622	811348.104156307481	5738.4968291235
0	7630	811485.495620722745	7487.5817137458
0	7761	825025.738650337438	19559.963683113
0	7766	825131.628301888902	17602.511825125
0	7774	825469.57807610692	16906.359126138
0	7861	833240.421030291081	24433.337028544
0	7866	833273.733374996725	26321.345019868
0	7871	833811.588872515141	20204.112097644
0	7876	833843.496990693353	20844.281061059
0	7887	834507.439929900792	23032.184804969
0	7901	836176.142855474768	20328.953835388
0	7911	836462.049278157987	19888.821126205
0	7916	836511.06152322524	19033.742621969
0	7928	836960.15076942846	19260.935683708
0	7956	838319.030795757008	15060.868146104
0	7964	839065.583922670975	19218.118294858
0	7977	839613.525900886594	21080.569375661
0	7982	839760.196052419817	15781.805615603
0	7988	840166.319783102382	14911.483229371
0	7993	840217.343234279785	13664.674850682
0	7998	840330.598506212414	13886.162120728
0	8003	840375.332447474387	13529.152828717
0	8008	840509.894907095402	11827.65020978
0	8013	840526.173096746756	13607.670483405
0	8018	841012.404117125921	10056.579999326
0	8023	841128.759703201804	6867.8852543766
0	8028	841201.006790545354	5335.7328249952
0	8033	841696.038129125886	4805.5861443438
0	8042	842242.585087065872	5077.1192936264
0	8061	847655.107486144781	8890.8865719218
0	8095	851164.065139261293	2823.9592625643
0	8103	851392.478890680975	5104.61095186
0	8111	851631.9663580025	2409.3495490371
0	8130	855577.871906982312	5241.7482882629
0	8190	865811.533659110395	10618.973170522
0	8195	866050.13957758604	5348.6018136052
0	8200	866321.895372307608	7966.4668855141
0	8217	868489.177507050515	4431.6651867578
0	8234	870608.144103886974	4199.4132002711
0	8267	875144.729400567272	12705.197657564
0	8283	875596.332622468535	12485.170197599
0	8294	875989.479957873846	3168.5616749352
0	8311	878544.665222631924	7766.1790754937
0	8322	878891.540450194533	3966.1387650122
0	8327	878912.306189005855	3464.3547890955
0	8336	880043.492965262743	11508.534056474
0	8384	883973.388639716261	6244.7041094513
0	8389	884161.492024560898	3708.6628028164
0	8394	884256.100937700311	3456.0993762275
0	8402	884427.271861151884	3071.4569182451
0	8420	886640.381169329895	4101.8304330591
0	8447	891711.071509676938	5871.7222441933
0	8456	893390.428280009546	3142.0968814126
0	8476	895324.214422375739	3936.0781083628
0	8490	897903.152333456349	3705.1602538328
0	8546	906248.498393559633	11035.181017422
0	8551	906600.643092174472	4736.1962458209
0	8563	907285.311348429792	5981.3649757599
0	8574	907884.818719287418	4310.4807857711
0	8586	910988.124272949008	12651.948801093
0	8607	913721.206910602425	8944.4077459355
0	8645	919566.653529275269	11751.762582292
0	8653	919689.392222861764	6332.6245841923
0	8658	920220.105395077558	5070.9377785896
0	8663	920310.387753869242	8043.048193126
0	8690	925635.068350090207	1557.7382056365
0	8699	926332.243441396916	10796.408372075
0	8724	928175.814974763997	3666.0489829574
0	8734	932389.086082395929	5156.9169954429
0	8796	941917.509156539425	3879.9926498122
0	8804	942420.922238454669	2438.6126719227
0	8816	944221.680761698016	3234.8630177261
0	8821	944476.216361712343	7818.1505482925
0	8830	945711.341397642401	6719.2098728767
0	8847	947663.791773316447	6643.7548581571
0	8858	953027.843228028086	25747.688150504
0	8892	955574.506232342258	1634.1831605209
0	8900	955888.326890386076	9761.850201638
0	8912	957096.636498300828	2870.1591545582
0	8943	960563.656207984366	3612.5980774163
0	8951	960882.268240392992	2141.0702760919
0	8970	961512.92097110111	2165.0665102075
0	8984	962224.505890236485	7410.1487468147
0	8993	963442.019245205347	2445.6914501534
0	9061	973309.211363209189	11821.719660704
0	9080	974415.514649131149	8577.0006179188
0	9085	974687.093895324094	6594.1701483062
0	9090	974742.087974989922	9444.066731092
0	9095	975413.56058362857	5823.4825399575
0	9108	977419.987984138356	8845.7593014361
0	9113	977810.942063882708	5329.7979225041
0	9130	979525.276634386209	6489.1779501186
0	9146	980464.242827818753	2480.6565615936
0	9230	990768.9293420551	11147.096459063
0	9236	990882.919778953187	10394.277691349
0	9247	991014.227560985005	10131.758988754
0	9274	995595.816313776744	7949.4003014161
0	9288	996339.059184804616	9946.777342841
0	9293	996593.726587466166	13582.847813926
0	9298	997200.208929943699	15405.135539738
0	9303	997454.877951800723	8458.8299401608
0	9311	997496.327691224954	10685.99381911
0	9316	997542.616088483232	6535.950656804
0	9341	998740.177399591202	5693.1064785826
0	9349	999166.393322608284	1293.0043696794
0	9378	1006567.068138075505	8604.9532230444
0	9386	1007234.071885243148	3479.1547552893
0	9444	1018301.168178314308	4970.5961704993
0	9452	1018543.421991261376	4756.0349475843
0	9481	1021746.680212022566	3910.8268698988
0	9489	1022233.310798320403	6745.7091043985
0	9505	1023217.50837793416	17159.441809278
0	9510	1023224.099303417587	6878.8088605754
0	9515	1023224.260751993067	4758.0567145939
0	9524	1023652.758992416792	4129.4342915269
0	9551	1029854.985362256921	7772.6492713079
0	9563	1031115.195531496379	3538.5546778928
0	9590	1035779.654912701807	7253.7800731493
1	1451	150771.504624525383	0
1	1460	151360.99926056894	0
1	1468	152181.326978052311	0
1	1477	152873.773270113852	0
1	1502	155303.977412606914	0
1	1539	163133.999809269098	0
1	1547	163593.903918749315	77.378068254208
1	1557	166383.274813130695	0
1	1565	166551.82989713202	109.70319819749
1	1586	169551.218277787528	1577.5662591584
1	1595	171195.113888892662	2534.2491166652
1	1603	171415.842390145392	1656.9926778717
1	1618	172019.910341841759	668.35912036079
1	1630	174545.089270314025	2912.947987298
1	1635	174570.969942944469	1706.0899151097
1	1661	176656.264280786646	642.6860822005
1	1726	181984.678099820492	0
1	1738	183477.284447569269	552.65476820014
1	1743	183854.61625242271	738.72136547851
1	1777	187796.127286326521	0
1	1796	193216.747350603689	0
1	1813	194350.758184880533	0
1	1822	196171.42326793445	0
1	1837	198584.372798262948	1496.426337245
1	1842	198621.836918793336	673.01849197616
1	1856	199359.254545661271	0
1	1881	203168.042834555451	2723.9693604804
1	1886	203553.109354799141	1752.56483046
1	1895	204928.953525721613	2742.3614727997
1	1910	205876.398009037166	602.33658306314
1	1928	208306.140542771474	2209.7539945955
1	1936	208841.729580965814	1838.9508947281
1	1945	209830.647708231415	2341.1257362705
1	1953	210298.356315405265	2459.9203992843
1	1961	210747.896081372516	494.68034552149
1	1979	212285.229067812298	1431.024073647
1	1988	213008.499084539229	1739.725688052
1	1996	213297.537328217877	1170.1006535387
1	2018	214788.849049730233	896.30089989309
1	2082	218929.547410527239	298.8740337241
1	2119	220769.565248240167	86.454238063164
1	2131	221599.040845742465	787.26004062426
1	2166	223211.521069396988	126.98216385687
1	2186	231248.027302091721	0
1	2195	231989.916582810712	201.36653698332
1	2219	235484.911451600478	522.39807995599
1	2224	235578.792346583499	406.65710183801
1	2238	237339.795197339291	0
1	2252	238151.905482239095	348.8975842729
1	2261	238575.742085203862	580.706022727
1	2290	239856.829935848256	542.61740252216
1	2324	247538.73737731225	0
1	2332	248137.85384184736	199.34369186832
1	2344	249609.798923639213	602.47875887663
1	2367	252531.572230798357	389.79376643235
1	2394	257473.421354380245	0
1	2402	258304.788999748318	0
1	2413	258837.763422254968	489.75717765608
1	2422	260174.877156083347	1344.5974837611
1	2445	261116.012146384882	152.38083472641
1	2453	262043.475248097013	534.67653699576
1	2487	267224.444799970988	132.61842598571
1	2515	273696.941486540647	0
1	2534	278653.617126011757	0
1	2546	280253.076667481325	1085.5506392874
1	2557	281056.065666353996	1021.2216453996
1	2563	281433.302265096122	1125.9784650749
1	2568	281574.143161470505	1158.9958202934
1	2609	283634.631238689684	0
1	2634	285229.511056807517	0
1	2643	287450.363014839323	0
1	2661	289631.339233505877	1637.558065268
1	2667	290856.350188826936	2144.418639418
1	2672	290961.207854267678	2099.399854426
1	2684	291546.405677277575	114.31719320294
1	2700	295237.285823219565	2016.5120216464
1	2736	296465.113224261265	75.291444739773
1	2760	299002.433005579376	1622.9332677316
1	2765	299207.593334587613	883.90873573046
1	2774	300191.964995736349	57.886430296312
1	2795	301444.922492000433	0
1	2807	302526.03746113185	775.48878190225
1	2837	304239.108026363222	0
1	2849	305362.542136985197	138.66901611307
1	2888	308768.941104485879	0
1	2896	309140.031538454753	0
1	2925	318283.031926610991	0
1	2942	318986.338321409672	0
1	2961	325231.58619349997	0
1	2979	327721.970912493792	0
1	2988	329566.179741345323	230.79618198417
1	2996	330739.934633645591	0
1	3005	331373.280079249053	0
1	3021	332391.544723749965	0
1	3047	335189.266786190919	0
1	3083	341231.268341663059	0
1	3091	342384.776459639883	0
1	3100	343535.062498660436	0
1	3108	344127.189107456104	0
1	3116	344391.316080534098	237.98049764043
1	3134	345932.56157761634	210.18311626076
1	3183	348157.572367935973	0
1	3194	349192.1583458424	819.82784703529
1	3199	349359.068262489497	374.5066393147
1	3216	350424.864928299587	0
1	3224	350574.519746353258	0
1	3232	350607.407145315766	0
1	3240	351297.5470812411	448.73502281152
1	3276	352457.253906445641	456.45559764262
1	3294	353636.681402747332	1043.3744772139
1	3299	354053.839267478023	569.92113758493
1	3310	354206.804719307864	75.891188319459
1	3319	355013.433884730674	854.21728161186
1	3368	357592.840805049434	321.26804293568
1	3380	359295.025815209776	1875.2305353462
1	3400	363484.095591222565	5780.121217608
1	3408	364159.676054993337	5732.9012490155
1	3416	364742.97499280683	4130.0268295556
1	3421	365087.275326688382	4228.7317883952
1	3427	365208.017297291863	3337.5288374492
1	3435	365837.940470567162	134.29230972001
1	3456	367207.660900566041	1059.8958208845
1	3468	369117.702493295723	2380.2398049391
1	3541	373048.554208030289	0
1	3566	376396.667414136722	3188.651453522
1	3584	378263.588125459749	4407.7449865458
1	3599	380316.151801006622	5894.2708302567
1	3604	380547.857302529488	6113.5406888315
1	3623	382986.882478209054	6630.4053679128
1	3628	383959.221731399931	7251.0283684521
1	3634	384555.345619210247	7608.7760021809
1	3639	384779.212193426718	7477.1544463467
1	3654	386117.120270762109	7790.3964114934
1	3662	386551.538623108988	6444.9948743708
1	3667	386647.211463214249	4041.0213444561
1	3672	386901.076356255685	4036.6989329806
1	3687	387956.458481162189	822.29251371886
1	3705	389885.757694926592	1704.6412498514
1	3713	390537.113761335806	624.56621841103
1	3730	390986.25795530438	112.67362246435
1	3759	392069.951455879011	624.41511125215
1	3786	393047.084817522482	9.916917841829
1	3870	401216.818126334161	0
1	3878	401990.142758612839	0
1	3903	404146.012196388042	0
1	3912	404793.133911489476	81.549040264298
1	3937	407798.092344222142	0
1	3946	408754.65833281936	0
1	3955	410200.043292171884	0
1	3966	411046.168913653584	289.16436196468
1	3987	411979.957231048779	877.97290056008
1	4003	415436.621684904107	4026.377692258
1	4008	415686.995545778493	3979.3269026619
1	4023	417007.700403991616	5105.8579892389
1	4032	418428.63340576039	4546.4421111716
1	4046	419341.362302772336	3248.4499531704
1	4052	420035.944271427517	3724.0180186458
1	4057	420330.255727852602	2169.1533786446
1	4062	421000.154647555434	1995.4497057374
1	4081	423484.329622171694	2161.167016357
1	4173	428340.113399849089	0
1	4182	430171.359075207126	0
1	4199	431221.686178787272	0
1	4217	433938.444673737171	0
1	4239	438887.634899379479	287.48340363384
1	4255	439793.118409222207	784.25934560314
1	4278	442675.664252083607	42.435750209547
1	4286	443670.415320764986	0
1	4295	444429.199075008044	0
1	4306	444783.116729023022	172.54464508519
1	4337	448534.500590726594	0
1	4346	449496.888501337204	0
1	4354	449642.172353653166	62.541255253917
1	4387	451233.454098104225	0
1	4401	451851.073821429214	106.37723088569
1	4406	452154.196725265676	329.86729935031
1	4447	458762.748642393856	0
1	4455	458806.1884773363	0
1	4466	459324.52194659016	464.0030899912
1	4496	460160.5701924247	119.84319747086
1	4518	469784.484987917228	0
1	4536	474137.518473524643	0
1	4554	476660.977868392846	0
1	4570	477207.049842159492	164.70761539008
1	4587	478990.555466110077	202.21000439091
1	4595	479388.696937563777	371.1346354603
1	4612	480969.73905410599	0
1	4631	485750.263920150482	0
1	4648	486981.097779737257	0
1	4656	488431.985365003937	795.13252485945
1	4691	492153.512569253382	0
1	4708	493869.962536318955	0
1	4718	497176.966185270709	0
1	4743	499922.325545498	0
1	4751	500340.627351348124	219.4594852123
1	4766	501967.830721700735	1458.792124899
1	4771	502117.357911962221	276.12336037967
1	4793	503420.706567085619	0
1	4828	509046.104297816557	0
1	4841	511280.060642898218	1306.6305541682
1	4849	511967.016263961079	1261.2295561677
1	4857	512224.84774703788	560.16612555113
1	4878	512470.373666479516	0
1	4904	514421.952796365393	0
1	4930	517792.185973158563	0
1	4947	520156.736598208847	0
1	4957	523737.731179867608	0
1	4965	524196.61559368489	0
1	5003	533994.406599521696	0
1	5011	534510.910190662181	0
1	5028	535895.305492674381	0
1	5045	537009.651197675426	0
1	5064	542984.793509321618	0
1	5081	544385.868970774337	0
1	5106	545257.102024953419	0
1	5119	554802.057734411687	0
1	5131	555766.41324182634	451.95599910198
1	5139	556323.270773982787	119.57649934198
1	5178	559189.144282721063	0
1	5187	561247.406771994432	0
1	5195	561647.546729168365	382.80979267063
1	5206	562011.227535799877	31.927430549758
1	5238	566921.341080446295	0
1	5264	570437.549263849156	0
1	5282	573526.589985856008	0
1	5290	574175.175551650022	0
1	5315	575558.920471522504	0
1	5324	576523.758019257216	0
1	5340	577486.575842486735	205.81229292675
1	5357	578285.66760399736	284.07545388217
1	5365	578966.364254385731	0
1	5373	579318.113016285633	282.66032635938
1	5389	581207.0190611755	1738.4144031418
1	5394	581579.243753501871	1183.504943094
1	5427	582711.901816031846	851.68417292514
1	5432	582831.007405694205	595.94925583191
1	5441	583205.450745518417	614.37036436061
1	5446	583212.752129454588	367.21361930245
1	5459	583661.371419469279	305.83483701703
1	5493	585740.133428981524	978.7392347737
1	5514	589501.941591647159	286.59730067562
1	5519	589635.781338734938	249.9642156219
1	5537	590607.45303614648	386.84951328982
1	5543	591606.790553048892	1068.6053788366
1	5563	592663.357154470736	1038.5174633578
1	5575	593453.623548012068	1685.6375140613
1	5589	594345.001865388548	1983.7832445435
1	5598	595016.895806474845	1729.8362802738
1	5606	595455.346347081767	1181.7616455144
1	5611	595457.605990567919	12.100107487072
1	5632	596627.826612943794	433.2472259335
1	5640	597077.759397953209	744.45597650259
1	5652	598950.677136201906	1851.3431639329
1	5713	602567.426755297198	429.18498832909
1	5729	605594.86069015619	1769.1655401615
1	5734	605646.107955952045	778.22057304852
1	5739	605772.366190370996	533.23146290299
1	5767	607260.825774491605	183.80947810644
1	5772	607371.369489841398	221.48180629034
1	5829	610440.809358266058	80.151678126229
1	5842	613761.110928414084	3318.0386757039
1	5850	615319.184886006776	3120.5825618013
1	5859	615682.768588038418	1254.0274008571
1	5870	616338.300729370436	182.64042826322
1	5881	616748.089586798267	146.56218329035
1	5922	617896.398883760146	487.11830560796
1	5927	618152.747713649564	366.73439267066
1	5999	623323.06867745901	0
1	6019	630793.867792890008	0
1	6028	631217.623817382186	0
1	6046	635112.669634520682	0
1	6055	636841.500845044137	0
1	6089	640497.904651172927	0
1	6097	640968.029647014057	0
1	6114	645301.431839066851	3925.3831117966
1	6123	647984.612971717219	6313.1637083646
1	6129	648017.40034323557	609.31602347688
1	6143	649539.125764927262	720.42525993233
1	6159	651438.766482064108	1478.8424196424
1	6177	652600.739411618474	178.24041219386
1	6203	657136.69844190705	0
1	6218	659057.500015885417	1808.289074397
1	6232	659520.259928283098	2096.8532874166
1	6238	659995.029341201471	1522.1290227351
1	6243	660137.897768928429	986.8815132572
1	6280	661700.238258689294	137.17716490798
1	6330	669477.417556160496	0
1	6339	670317.232737924013	0
1	6365	674509.495502011121	0
1	6382	676084.12483621787	0
1	6390	676591.79697112278	165.77603831112
1	6406	677075.567338070198	0
1	6426	682152.867225248128	4362.1635900696
1	6450	687523.646901290226	9604.7595563298
1	6455	688204.659451679941	10072.252748443
1	6460	688305.055627248091	5340.9501063556
1	6465	688332.437555869327	4766.4867501327
1	6470	688339.34100935132	4564.303206856
1	6475	688584.49719448826	3148.9529755316
1	6527	691072.840100242502	0
1	6570	696692.647117833112	0
1	6578	696916.254875949337	0
1	6586	697017.652468909402	0
1	6603	698702.490420225279	90.534222268622
1	6628	700382.603543281385	0
1	6646	703146.961560357223	0
1	6655	706097.221303264685	1246.6903764697
1	6664	706822.249725159342	288.17147641463
1	6705	709297.945106264995	56.162813689444
1	6717	710250.841973702382	378.86106630692
1	6735	712592.969279413887	2539.0075984586
1	6741	713718.564903922212	2993.1964352747
1	6753	716250.809118230737	4416.1020995002
1	6762	717308.987201500322	5203.5772812817
1	6767	717457.930410165306	3217.9543700121
1	6775	717684.226104966995	22.519770819434
1	6793	718369.665956365339	603.70006912506
1	6798	718623.80292867019	564.88205200013
1	6812	719349.194800819228	180.45801868992
1	6891	726532.904287163768	0
1	6899	726835.001406655307	12.77885766911
1	6908	727293.736438220589	416.18026666778
1	6920	729074.006672048577	1235.2580531003
1	6941	729842.360471644361	0
1	6954	732180.476675960257	1278.9680484391
1	6965	732941.259502714853	504.04682051733
1	6977	734616.649812910236	2122.0088143405
1	6985	735207.269824944071	1427.7514788506
1	7004	737464.442237244721	1174.6976661497
1	7012	737932.787162080907	65.335000894198
1	7023	738837.228473416627	115.40335388395
1	7074	741040.145360249705	364.82252269648
1	7089	743306.478232282872	1044.7393566734
1	7094	743536.499289559716	998.46633468699
1	7127	746163.827400880282	0
1	7142	748338.978938808091	439.41249256577
1	7179	754144.53841712913	0
1	7197	756072.250601043657	0
1	7206	757817.700456382711	0
1	7232	761301.931374640503	0
1	7241	762952.702004991653	1344.5287060121
1	7260	768722.362280671366	0
1	7290	778369.014527991944	0
1	7298	778859.858610219351	0
1	7323	781702.463848811348	234.09846050994
1	7332	782588.045613840432	295.67020999041
1	7340	783369.199197698846	0
1	7377	790468.286885734922	0
1	7386	792530.314272374894	0
1	7403	794026.592168529157	0
1	7411	794744.060542954468	0
1	7429	797172.74764480203	0
1	7463	801341.113594020381	0
1	7480	802810.409848819633	0
1	7492	804964.717958268882	1600.2909891688
1	7497	805012.222203727371	1014.3082967505
1	7505	805136.713833658261	0
1	7519	805336.185767365127	96.086529279878
1	7534	806633.841138393839	1168.0661711691
1	7542	806959.836441824566	1350.2291146406
1	7550	807177.701118478026	225.31276334923
1	7567	807545.624533332514	16.508056568116
1	7586	808681.170644872897	117.95169490414
1	7594	809069.475149399283	262.39114765251
1	7632	811485.495620722745	10.240495790564
1	7650	813901.73336386029	902.51743422614
1	7676	818174.765597080515	4567.2888222096
1	7684	819342.513788528237	3495.3247684416
1	7693	819926.520039482678	3353.2918875294
1	7698	820201.766292941238	2724.4473916845
1	7717	822965.670166578153	5266.4550808576
1	7725	823334.257597136029	4801.3010719107
1	7730	823421.367077607047	3573.9014497938
1	7741	823611.071876469643	352.90922681706
1	7749	824441.824873987107	463.4344371704
1	7776	825469.57807610692	214.74152237544
1	7804	828331.185888877069	1886.7495033927
1	7815	829054.870848476546	2502.2024648792
1	7820	829456.788493589446	2610.6088748325
1	7825	829595.821249397559	2677.3186360562
1	7844	832428.314992770765	3746.0702954555
1	7852	832733.94389009791	1778.1197722983
1	7889	834507.439929900792	246.56548107561
1	7903	836176.142855474768	310.86888992463
1	7930	836960.15076942846	69.698784646356
1	7941	837517.536729813976	352.07093637454
1	7966	839065.583922670975	301.36300844803
1	8049	846287.867938820929	0
1	8066	848340.105876697008	0
1	8075	849491.066163223847	268.44935425849
1	8084	850336.123618719388	0
1	8118	855192.560488588496	0
1	8136	858355.428486793545	0
1	8146	860701.537763980837	0
1	8155	862439.531743003254	0
1	8163	863111.162424869291	0
1	8181	865303.02610569117	1245.5137853984
1	8205	866408.730903615843	0
1	8222	868534.958908788315	0
1	8239	870778.486147138181	0
1	8253	874643.32540317254	1822.4071202339
1	8269	875144.729400567272	219.32771538493
1	8285	875596.332622468535	148.38122255813
1	8300	877728.684530264997	0
1	8341	880452.829221744511	0
1	8349	880800.00156147283	0
1	8358	881355.81494290683	0
1	8370	882880.706431217302	342.15569494651
1	8408	885839.34926548361	0
1	8427	890248.3313985969	0
1	8435	891388.136314012922	0
1	8461	894197.992079623549	0
1	8478	895324.214422375739	110.89704623767
1	8496	898336.175471856369	0
1	8505	901303.946372669893	0
1	8514	901946.058898874024	81.61205252042
1	8529	904912.894983826773	1338.5570503105
1	8534	904981.014919007717	204.21575434083
1	8576	907884.818719287418	69.927772304266
1	8592	912267.339560743222	0
1	8609	913721.206910602425	364.43927193292
1	8624	916520.536035914262	1371.3684194263
1	8630	917367.088869632105	1831.25380031
1	8671	924077.330144453693	0
1	8679	924509.765991806628	0
1	8704	927232.169086953	0
1	8713	927497.464290339948	217.30921281635
1	8742	936658.065813419862	0
1	8751	938037.516506727237	0
1	8759	938992.131524765734	0
1	8768	939982.309566531993	0
1	8776	940986.817743971952	0
1	8788	941742.927503189688	722.89058803037
1	8835	946126.476688748116	0
1	8864	953940.3230718214	0
1	8872	954226.477343742592	0
1	8880	954814.357143421792	0
1	8914	957096.636498300828	145.57836773279
1	8923	958741.197964301042	0
1	8931	959347.854460893575	0
1	8956	960996.327795051963	0
1	8972	961512.92097110111	25.429268596051
1	8999	965298.021243897924	0
1	9008	966843.648198328135	1005.1341671158
1	9023	969093.571886730535	1000.6481397126
1	9028	969353.335527278199	779.10684457597
1	9039	969793.380962257687	203.30291858665
1	9063	973309.211363209189	828.06722183061
1	9069	973988.070567288734	951.97188302113
1	9118	977983.586266225148	0
1	9135	979621.832882991908	0
1	9151	980488.642087604496	0
1	9160	981548.178529440021	665.70995720917
1	9175	983328.534437531838	1533.4610473262
1	9184	984008.346269921583	997.46749638106
1	9203	988387.817382352166	1995.5355403886
1	9208	988607.45493299066	1797.1210608755
1	9217	990065.651353875828	2419.2353415152
1	9222	990178.76817326458	1182.7201616247
1	9249	991014.227560985005	7.562129305794
1	9276	995595.816313776744	2548.7453927681
1	9322	997873.388952928875	0
1	9330	998548.662722271596	586.54780724054
1	9357	1003754.917129953877	0
1	9366	1006058.06656865591	0
1	9395	1013330.572007814976	0
1	9403	1013787.387043677039	0
1	9412	1015487.601693921885	0
1	9420	1016345.290442842234	0
1	9435	1018077.074129934468	241.22078781068
1	9454	1018543.421991261376	77.217953862235
1	9462	1019523.324700889877	0
1	9491	1022233.310798320403	150.97470737139
1	9531	1027576.640853603597	0
1	9540	1029041.537611694186	515.66277214168
1	9565	1031115.195531496379	325.53549938746
1	9574	1033275.593326524185	1056.6854436995
1	9592	1035779.654912701807	194.13228545438
2	1449	150771.504624525383	1
2	1451	150771.504624525383	0
2	1458	151360.99926056894	1
2	1460	151360.99926056894	0
2	1466	152181.326978052311	1
2	1468	152181.326978052311	0
2	1475	152873.773270113852	1
2	1477	152873.773270113852	0
2	1500	155303.977412606914	1
2	1502	155303.977412606914	0
2	1537	163133.999809269098	1
2	1539	163133.999809269098	0
2	1542	163516.525850495107	1
2	1547	163593.903918749315	0
2	1555	166383.274813130695	1
2	1557	166383.274813130695	0
2	1560	166442.126698934534	1
2	1565	166551.82989713202	0
2	1574	167973.652018629091	1
2	1578	168660.864772227449	2
2	1586	169551.218277787528	1
2	1590	169758.84971227369	2
2	1595	171195.113888892662	1
2	1598	171351.551221480969	2
2	1603	171415.842390145392	1
2	1613	171632.141283016032	2
2	1618	172019.910341841759	1
2	1624	172864.880027834805	2
2	1630	174545.089270314025	1
2	1635	174570.969942944469	0
2	1649	176013.57819858615	1
2	1661	176656.264280786646	0
2	1724	181984.678099820492	1
2	1726	181984.678099820492	0
2	1729	182924.629679369131	1
2	1732	183115.894886944201	2
2	1738	183477.284447569269	1
2	1743	183854.61625242271	0
2	1775	187796.127286326521	1
2	1777	187796.127286326521	0
2	1794	193216.747350603689	1
2	1796	193216.747350603689	0
2	1811	194350.758184880533	1
2	1813	194350.758184880533	0
2	1820	196171.42326793445	1
2	1822	196171.42326793445	0
2	1828	197087.946461017994	1
2	1832	197948.818426817176	2
2	1837	198584.372798262948	1
2	1842	198621.836918793336	0
2	1854	199359.254545661271	1
2	1856	199359.254545661271	0
2	1865	200444.073474075057	1
2	1872	201800.544524339102	2
2	1875	202186.592052921866	3
2	1881	203168.042834555451	2
2	1886	203553.109354799141	1
2	1895	204928.953525721613	0
2	1904	205274.061425974024	1
2	1910	205876.398009037166	0
2	1913	206096.386548175982	1
2	1916	207002.778686237737	2
2	1920	207489.521971960897	3
2	1923	207838.435916120971	4
2	1928	208306.140542771474	3
2	1936	208841.729580965814	2
2	1945	209830.647708231415	1
2	1948	210253.215735851028	2
2	1953	210298.356315405265	1
2	1961	210747.896081372516	0
2	1965	210854.204994165297	1
2	1971	211268.773396487238	2
2	1974	212127.436674679215	3
2	1979	212285.229067812298	2
2	1988	213008.499084539229	1
2	1996	213297.537328217877	0
2	2009	213892.548149837139	1
2	2018	214788.849049730233	0
2	2077	218630.673376803139	1
2	2082	218929.547410527239	0
2	2114	220683.111010177003	1
2	2119	220769.565248240167	0
2	2122	220811.780805118201	1
2	2131	221599.040845742465	0
2	2161	223084.538905540113	1
2	2166	223211.521069396988	0
2	2184	231248.027302091721	1
2	2186	231248.027302091721	0
2	2190	231788.55004582739	1
2	2195	231989.916582810712	0
2	2211	234962.513371644485	1
2	2214	235172.135244745489	2
2	2219	235484.911451600478	1
2	2224	235578.792346583499	0
2	2236	237339.795197339291	1
2	2238	237339.795197339291	0
2	2241	237803.0078979662	1
2	2244	237995.036062476866	2
2	2252	238151.905482239095	1
2	2261	238575.742085203862	0
2	2282	239314.212533326098	1
2	2290	239856.829935848256	0
2	2322	247538.73737731225	1
2	2324	247538.73737731225	0
2	2327	247938.51014997904	1
2	2332	248137.85384184736	0
2	2339	249007.32016476258	1
2	2344	249609.798923639213	0
2	2362	252141.778464366009	1
2	2367	252531.572230798357	0
2	2392	257473.421354380245	1
2	2394	257473.421354380245	0
2	2400	258304.788999748318	1
2	2402	258304.788999748318	0
2	2405	258348.00624459889	1
2	2408	258830.279672322287	2
2	2413	258837.763422254968	1
2	2422	260174.877156083347	0
2	2437	260963.63131165847	1
2	2445	261116.012146384882	0
2	2448	261508.798711101257	1
2	2453	262043.475248097013	0
2	2482	267091.826373985277	1
2	2487	267224.444799970988	0
2	2513	273696.941486540647	1
2	2515	273696.941486540647	0
2	2532	278653.617126011757	1
2	2534	278653.617126011757	0
2	2537	279167.526028193927	1
2	2541	280034.844020954444	2
2	2546	280253.076667481325	1
2	2549	280307.323800021248	2
2	2552	280415.147341177139	3
2	2557	281056.065666353996	2
2	2563	281433.302265096122	1
2	2568	281574.143161470505	0
2	2607	283634.631238689684	1
2	2609	283634.631238689684	0
2	2632	285229.511056807517	1
2	2634	285229.511056807517	0
2	2641	287450.363014839323	1
2	2643	287450.363014839323	0
2	2649	287993.781168237898	1
2	2653	288711.931549408933	2
2	2656	288861.807999841687	3
2	2661	289631.339233505877	2
2	2667	290856.350188826936	1
2	2672	290961.207854267678	0
2	2679	291432.088484074636	1
2	2684	291546.405677277575	0
2	2691	293220.773801573174	1
2	2700	295237.285823219565	0
2	2731	296389.821779521492	1
2	2736	296465.113224261265	0
2	2748	297379.499737847727	1
2	2752	298323.684598857155	2
2	2760	299002.433005579376	1
2	2765	299207.593334587613	0
2	2769	300134.078565440037	1
2	2774	300191.964995736349	0
2	2793	301444.922492000433	1
2	2795	301444.922492000433	0
2	2799	301750.548679229598	1
2	2807	302526.03746113185	0
2	2835	304239.108026363222	1
2	2837	304239.108026363222	0
2	2844	305223.87312087213	1
2	2849	305362.542136985197	0
2	2886	308768.941104485879	1
2	2888	308768.941104485879	0
2	2894	309140.031538454753	1
2	2896	309140.031538454753	0
2	2923	318283.031926610991	1
2	2925	318283.031926610991	0
2	2940	318986.338321409672	1
2	2942	318986.338321409672	0
2	2959	325231.58619349997	1
2	2961	325231.58619349997	0
2	2977	327721.970912493792	1
2	2979	327721.970912493792	0
2	2983	329335.383559361157	1
2	2988	329566.179741345323	0
2	2994	330739.934633645591	1
2	2996	330739.934633645591	0
2	3003	331373.280079249053	1
2	3005	331373.280079249053	0
2	3019	332391.544723749965	1
2	3021	332391.544723749965	0
2	3045	335189.266786190919	1
2	3047	335189.266786190919	0
2	3081	341231.268341663059	1
2	3083	341231.268341663059	0
2	3089	342384.776459639883	1
2	3091	342384.776459639883	0
2	3098	343535.062498660436	1
2	3100	343535.062498660436	0
2	3106	344127.189107456104	1
2	3108	344127.189107456104	0
2	3111	344153.335582893671	1
2	3116	344391.316080534098	0
2	3126	345722.378461355581	1
2	3134	345932.56157761634	0
2	3181	348157.572367935973	1
2	3183	348157.572367935973	0
2	3186	348372.330498807112	1
2	3189	348984.561623174798	2
2	3194	349192.1583458424	1
2	3199	349359.068262489497	0
2	3214	350424.864928299587	1
2	3216	350424.864928299587	0
2	3222	350574.519746353258	1
2	3224	350574.519746353258	0
2	3230	350607.407145315766	1
2	3232	350607.407145315766	0
2	3235	350848.812058429582	1
2	3240	351297.5470812411	0
2	3268	352000.798308803024	1
2	3276	352457.253906445641	0
2	3279	352593.30692553341	1
2	3289	353483.918129893089	2
2	3294	353636.681402747332	1
2	3299	354053.839267478023	0
2	3302	354130.913530988405	1
2	3305	354159.216603118817	2
2	3310	354206.804719307864	1
2	3319	355013.433884730674	0
2	3357	357271.572762113752	1
2	3360	357419.795279863581	2
2	3368	357592.840805049434	1
2	3371	357703.974373614534	2
2	3375	358426.774805977804	3
2	3380	359295.025815209776	2
2	3387	360612.948163251262	3
2	3390	360858.543538293195	4
2	3394	361870.48845984266	5
2	3400	363484.095591222565	4
2	3408	364159.676054993337	3
2	3416	364742.97499280683	2
2	3421	365087.275326688382	1
2	3427	365208.017297291863	0
2	3430	365703.64816084715	1
2	3435	365837.940470567162	0
2	3441	366147.765079681579	1
2	3447	366737.462688356647	2
2	3456	367207.660900566041	1
2	3468	369117.702493295723	0
2	3539	373048.554208030289	1
2	3541	373048.554208030289	0
2	3544	373208.015960614728	1
2	3551	373855.843138913965	2
2	3554	374421.880970749892	3
2	3557	374434.316613697969	4
2	3561	376356.477110296266	5
2	3566	376396.667414136722	4
2	3569	376708.193362947814	5
2	3572	376946.569617029326	6
2	3579	377302.057747079986	7
2	3584	378263.588125459749	6
2	3587	378326.723859268728	7
2	3594	380106.543748738142	8
2	3599	380316.151801006622	7
2	3604	380547.857302529488	6
2	3615	382606.190118758159	7
2	3618	382864.377423275095	8
2	3623	382986.882478209054	7
2	3628	383959.221731399931	6
2	3634	384555.345619210247	5
2	3639	384779.212193426718	4
2	3654	386117.120270762109	3
2	3662	386551.538623108988	2
2	3667	386647.211463214249	1
2	3672	386901.076356255685	0
2	3678	387134.165967443325	1
2	3687	387956.458481162189	0
2	3693	388181.116445075218	1
2	3705	389885.757694926592	0
2	3708	389912.547542924773	1
2	3713	390537.113761335806	0
2	3725	390873.584332840027	1
2	3730	390986.25795530438	0
2	3751	391445.53634462686	1
2	3759	392069.951455879011	0
2	3781	393037.167899680653	1
2	3786	393047.084817522482	0
2	3868	401216.818126334161	1
2	3870	401216.818126334161	0
2	3876	401990.142758612839	1
2	3878	401990.142758612839	0
2	3901	404146.012196388042	1
2	3903	404146.012196388042	0
2	3907	404711.584871225178	1
2	3912	404793.133911489476	0
2	3935	407798.092344222142	1
2	3937	407798.092344222142	0
2	3944	408754.65833281936	1
2	3946	408754.65833281936	0
2	3953	410200.043292171884	1
2	3955	410200.043292171884	0
2	3958	410757.004551688906	1
2	3966	411046.168913653584	0
2	3969	411101.984330488695	1
2	3972	411410.24399264609	2
2	3979	411707.668643116615	3
2	3982	411901.842414752731	4
2	3987	411979.957231048779	3
2	3997	413882.191294588765	4
2	4003	415436.621684904107	3
2	4008	415686.995545778493	2
2	4014	416092.912349601919	3
2	4017	416311.926252781676	4
2	4023	417007.700403991616	3
2	4026	418161.102349208036	4
2	4032	418428.63340576039	3
2	4038	419004.704941818035	4
2	4046	419341.362302772336	3
2	4052	420035.944271427517	2
2	4057	420330.255727852602	1
2	4062	421000.154647555434	0
2	4068	421323.162605814661	1
2	4081	423484.329622171694	0
2	4171	428340.113399849089	1
2	4173	428340.113399849089	0
2	4180	430171.359075207126	1
2	4182	430171.359075207126	0
2	4197	431221.686178787272	1
2	4199	431221.686178787272	0
2	4215	433938.444673737171	1
2	4217	433938.444673737171	0
2	4230	438600.151495745639	1
2	4239	438887.634899379479	0
2	4247	439008.85906361907	1
2	4255	439793.118409222207	0
2	4273	442633.22850187406	1
2	4278	442675.664252083607	0
2	4284	443670.415320764986	1
2	4286	443670.415320764986	0
2	4293	444429.199075008044	1
2	4295	444429.199075008044	0
2	4301	444610.572083937833	1
2	4306	444783.116729023022	0
2	4335	448534.500590726594	1
2	4337	448534.500590726594	0
2	4344	449496.888501337204	1
2	4346	449496.888501337204	0
2	4349	449579.631098399249	1
2	4354	449642.172353653166	0
2	4385	451233.454098104225	1
2	4387	451233.454098104225	0
2	4390	451744.696590543523	1
2	4396	451824.329425915362	2
2	4401	451851.073821429214	1
2	4406	452154.196725265676	0
2	4445	458762.748642393856	1
2	4447	458762.748642393856	0
2	4453	458806.1884773363	1
2	4455	458806.1884773363	0
2	4458	458860.518856598957	1
2	4466	459324.52194659016	0
2	4491	460040.726994953838	1
2	4496	460160.5701924247	0
2	4516	469784.484987917228	1
2	4518	469784.484987917228	0
2	4534	474137.518473524643	1
2	4536	474137.518473524643	0
2	4552	476660.977868392846	1
2	4554	476660.977868392846	0
2	4565	477042.342226769408	1
2	4570	477207.049842159492	0
2	4582	478788.345461719168	1
2	4587	478990.555466110077	0
2	4590	479017.562302103474	1
2	4595	479388.696937563777	0
2	4610	480969.73905410599	1
2	4612	480969.73905410599	0
2	4629	485750.263920150482	1
2	4631	485750.263920150482	0
2	4646	486981.097779737257	1
2	4648	486981.097779737257	0
2	4651	487636.852840144486	1
2	4656	488431.985365003937	0
2	4689	492153.512569253382	1
2	4691	492153.512569253382	0
2	4706	493869.962536318955	1
2	4708	493869.962536318955	0
2	4716	497176.966185270709	1
2	4718	497176.966185270709	0
2	4741	499922.325545498	1
2	4743	499922.325545498	0
2	4746	500121.167866135824	1
2	4751	500340.627351348124	0
2	4754	500509.038596801711	1
2	4761	501841.234551582554	2
2	4766	501967.830721700735	1
2	4771	502117.357911962221	0
2	4791	503420.706567085619	1
2	4793	503420.706567085619	0
2	4826	509046.104297816557	1
2	4828	509046.104297816557	0
2	4832	509973.430088730027	1
2	4835	510705.786707793413	2
2	4841	511280.060642898218	1
2	4844	511664.681621486746	2
2	4849	511967.016263961079	1
2	4857	512224.84774703788	0
2	4876	512470.373666479516	1
2	4878	512470.373666479516	0
2	4902	514421.952796365393	1
2	4904	514421.952796365393	0
2	4928	517792.185973158563	1
2	4930	517792.185973158563	0
2	4945	520156.736598208847	1
2	4947	520156.736598208847	0
2	4955	523737.731179867608	1
2	4957	523737.731179867608	0
2	4963	524196.61559368489	1
2	4965	524196.61559368489	0
2	5001	533994.406599521696	1
2	5003	533994.406599521696	0
2	5009	534510.910190662181	1
2	5011	534510.910190662181	0
2	5026	535895.305492674381	1
2	5028	535895.305492674381	0
2	5043	537009.651197675426	1
2	5045	537009.651197675426	0
2	5062	542984.793509321618	1
2	5064	542984.793509321618	0
2	5079	544385.868970774337	1
2	5081	544385.868970774337	0
2	5104	545257.102024953419	1
2	5106	545257.102024953419	0
2	5117	554802.057734411687	1
2	5119	554802.057734411687	0
2	5122	555314.457242724357	1
2	5131	555766.41324182634	0
2	5134	556203.694274640802	1
2	5139	556323.270773982787	0
2	5176	559189.144282721063	1
2	5178	559189.144282721063	0
2	5185	561247.406771994432	1
2	5187	561247.406771994432	0
2	5190	561264.73693649773	1
2	5195	561647.546729168365	0
2	5201	561979.300105250119	1
2	5206	562011.227535799877	0
2	5236	566921.341080446295	1
2	5238	566921.341080446295	0
2	5262	570437.549263849156	1
2	5264	570437.549263849156	0
2	5280	573526.589985856008	1
2	5282	573526.589985856008	0
2	5288	574175.175551650022	1
2	5290	574175.175551650022	0
2	5313	575558.920471522504	1
2	5315	575558.920471522504	0
2	5322	576523.758019257216	1
2	5324	576523.758019257216	0
2	5335	577280.763549559987	1
2	5340	577486.575842486735	0
2	5352	578001.592150115193	1
2	5357	578285.66760399736	0
2	5363	578966.364254385731	1
2	5365	578966.364254385731	0
2	5368	579035.452689926249	1
2	5373	579318.113016285633	0
2	5377	579468.604658033741	1
2	5380	580395.738810407867	2
2	5389	581207.0190611755	1
2	5394	581579.243753501871	0
2	5410	581860.217643106703	1
2	5419	582235.058149862299	2
2	5422	582591.080381157807	3
2	5427	582711.901816031846	2
2	5432	582831.007405694205	1
2	5435	582845.538510152139	2
2	5441	583205.450745518417	1
2	5446	583212.752129454588	0
2	5454	583355.536582452246	1
2	5459	583661.371419469279	0
2	5482	584761.394194207828	1
2	5493	585740.133428981524	0
2	5506	589215.344290971541	1
2	5509	589385.817123113037	2
2	5514	589501.941591647159	1
2	5519	589635.781338734938	0
2	5529	590220.603522856663	1
2	5532	590538.185174212287	2
2	5537	590607.45303614648	1
2	5543	591606.790553048892	0
2	5546	591624.839691112911	1
2	5549	591767.98603395076	2
2	5555	592361.218620845093	3
2	5563	592663.357154470736	2
2	5570	593287.059526201017	3
2	5575	593453.623548012068	2
2	5584	594273.584701567344	3
2	5589	594345.001865388548	2
2	5598	595016.895806474845	1
2	5601	595445.505883080847	2
2	5606	595455.346347081767	1
2	5611	595457.605990567919	0
2	5620	596194.579387010298	1
2	5623	596333.303421450624	2
2	5632	596627.826612943794	1
2	5640	597077.759397953209	0
2	5643	597099.333972268997	1
2	5652	598950.677136201906	0
2	5708	602138.241766968109	1
2	5713	602567.426755297198	0
2	5717	603825.695149994706	1
2	5720	604867.887382903528	2
2	5724	605239.134727468005	3
2	5729	605594.86069015619	2
2	5734	605646.107955952045	1
2	5739	605772.366190370996	0
2	5759	607077.016296385167	1
2	5762	607149.887683551054	2
2	5767	607260.825774491605	1
2	5772	607371.369489841398	0
2	5824	610360.657680139829	1
2	5829	610440.809358266058	0
2	5832	610443.072252710203	1
2	5836	612198.602324205467	2
2	5842	613761.110928414084	1
2	5845	614428.741187181294	2
2	5850	615319.184886006776	1
2	5859	615682.768588038418	0
2	5862	616155.660301107212	1
2	5870	616338.300729370436	0
2	5876	616601.527403507913	1
2	5881	616748.089586798267	0
2	5911	617409.280578152184	1
2	5917	617786.013320978908	2
2	5922	617896.398883760146	1
2	5927	618152.747713649564	0
2	5997	623323.06867745901	1
2	5999	623323.06867745901	0
2	6017	630793.867792890008	1
2	6019	630793.867792890008	0
2	6026	631217.623817382186	1
2	6028	631217.623817382186	0
2	6044	635112.669634520682	1
2	6046	635112.669634520682	0
2	6053	636841.500845044137	1
2	6055	636841.500845044137	0
2	6087	640497.904651172927	1
2	6089	640497.904651172927	0
2	6095	640968.029647014057	1
2	6097	640968.029647014057	0
2	6101	641376.04872727027	1
2	6104	641671.449263352656	2
2	6114	645301.431839066851	1
2	6118	647408.084319758694	2
2	6123	647984.612971717219	1
2	6129	648017.40034323557	0
2	6135	648818.700504994927	1
2	6143	649539.125764927262	0
2	6147	649959.924062421703	1
2	6159	651438.766482064108	0
2	6172	652422.498999424618	1
2	6177	652600.739411618474	0
2	6201	657136.69844190705	1
2	6203	657136.69844190705	0
2	6206	657249.210941488401	1
2	6209	657423.406640866494	2
2	6213	658472.90031846637	3
2	6218	659057.500015885417	2
2	6221	659151.016255671234	3
2	6232	659520.259928283098	2
2	6238	659995.029341201471	1
2	6243	660137.897768928429	0
2	6272	661563.061093781312	1
2	6280	661700.238258689294	0
2	6328	669477.417556160496	1
2	6330	669477.417556160496	0
2	6337	670317.232737924013	1
2	6339	670317.232737924013	0
2	6363	674509.495502011121	1
2	6365	674509.495502011121	0
2	6380	676084.12483621787	1
2	6382	676084.12483621787	0
2	6385	676426.020932811662	1
2	6390	676591.79697112278	0
2	6404	677075.567338070198	1
2	6406	677075.567338070198	0
2	6410	677790.70363517852	1
2	6413	677918.887344960379	2
2	6416	678132.406703236657	3
2	6426	682152.867225248128	2
2	6430	682964.105520892455	3
2	6433	683565.950805736578	4
2	6439	683775.037802495321	5
2	6443	685435.54421895662	6
2	6450	687523.646901290226	5
2	6455	688204.659451679941	4
2	6460	688305.055627248091	3
2	6465	688332.437555869327	2
2	6470	688339.34100935132	1
2	6475	688584.49719448826	0
2	6525	691072.840100242502	1
2	6527	691072.840100242502	0
2	6568	696692.647117833112	1
2	6570	696692.647117833112	0
2	6576	696916.254875949337	1
2	6578	696916.254875949337	0
2	6584	697017.652468909402	1
2	6586	697017.652468909402	0
2	6598	698611.956197956657	1
2	6603	698702.490420225279	0
2	6626	700382.603543281385	1
2	6628	700382.603543281385	0
2	6644	703146.961560357223	1
2	6646	703146.961560357223	0
2	6650	704850.530926794977	1
2	6655	706097.221303264685	0
2	6659	706534.078248744708	1
2	6664	706822.249725159342	0
2	6700	709241.782292575551	1
2	6705	709297.945106264995	0
2	6709	709871.980907395459	1
2	6712	710053.961680955274	2
2	6717	710250.841973702382	1
2	6723	710725.368468647503	2
2	6727	711834.707018730582	3
2	6730	712105.409920218593	4
2	6735	712592.969279413887	3
2	6741	713718.564903922212	2
2	6744	714239.976040153176	3
2	6753	716250.809118230737	2
2	6762	717308.987201500322	1
2	6767	717457.930410165306	0
2	6770	717661.706334147561	1
2	6775	717684.226104966995	0
2	6778	717765.965887240276	1
2	6784	718058.920876670062	2
2	6793	718369.665956365339	1
2	6798	718623.80292867019	0
2	6807	719168.736782129304	1
2	6812	719349.194800819228	0
2	6889	726532.904287163768	1
2	6891	726532.904287163768	0
2	6894	726822.222548986197	1
2	6899	726835.001406655307	0
2	6903	726877.556171552808	1
2	6908	727293.736438220589	0
2	6911	727838.748618948253	1
2	6920	729074.006672048577	0
2	6939	729842.360471644361	1
2	6941	729842.360471644361	0
2	6948	730901.508627521112	1
2	6954	732180.476675960257	0
2	6957	732437.21268219752	1
2	6960	732494.640998569772	2
2	6965	732941.259502714853	1
2	6972	733779.518346093509	2
2	6977	734616.649812910236	1
2	6985	735207.269824944071	0
2	6998	736289.744571095038	1
2	7004	737464.442237244721	0
2	7007	737867.452161186709	1
2	7012	737932.787162080907	0
2	7018	738721.825119532677	1
2	7023	738837.228473416627	0
2	7069	740675.322837553225	1
2	7074	741040.145360249705	0
2	7080	742261.738875609438	1
2	7084	742538.032954872725	2
2	7089	743306.478232282872	1
2	7094	743536.499289559716	0
2	7125	746163.827400880282	1
2	7127	746163.827400880282	0
2	7137	747899.566446242318	1
2	7142	748338.978938808091	0
2	7177	754144.53841712913	1
2	7179	754144.53841712913	0
2	7195	756072.250601043657	1
2	7197	756072.250601043657	0
2	7204	757817.700456382711	1
2	7206	757817.700456382711	0
2	7230	761301.931374640503	1
2	7232	761301.931374640503	0
2	7235	761608.173298979568	1
2	7241	762952.702004991653	0
2	7258	768722.362280671366	1
2	7260	768722.362280671366	0
2	7288	778369.014527991944	1
2	7290	778369.014527991944	0
2	7296	778859.858610219351	1
2	7298	778859.858610219351	0
2	7318	781468.365388301403	1
2	7323	781702.463848811348	0
2	7327	782292.375403850024	1
2	7332	782588.045613840432	0
2	7338	783369.199197698846	1
2	7340	783369.199197698846	0
2	7375	790468.286885734922	1
2	7377	790468.286885734922	0
2	7384	792530.314272374894	1
2	7386	792530.314272374894	0
2	7401	794026.592168529157	1
2	7403	794026.592168529157	0
2	7409	794744.060542954468	1
2	7411	794744.060542954468	0
2	7427	797172.74764480203	1
2	7429	797172.74764480203	0
2	7461	801341.113594020381	1
2	7463	801341.113594020381	0
2	7478	802810.409848819633	1
2	7480	802810.409848819633	0
2	7483	803364.426969100121	1
2	7487	803997.913906976907	2
2	7492	804964.717958268882	1
2	7497	805012.222203727371	0
2	7503	805136.713833658261	1
2	7505	805136.713833658261	0
2	7511	805240.099238085249	1
2	7519	805336.185767365127	0
2	7522	805465.774967224697	1
2	7528	805609.607327184006	2
2	7534	806633.841138393839	1
2	7537	806952.388355128797	2
2	7542	806959.836441824566	1
2	7550	807177.701118478026	0
2	7562	807529.116476764398	1
2	7567	807545.624533332514	0
2	7581	808563.218949968759	1
2	7586	808681.170644872897	0
2	7589	808807.084001746774	1
2	7594	809069.475149399283	0
2	7627	811475.255124932181	1
2	7632	811485.495620722745	0
2	7642	812999.215929634152	1
2	7645	813607.476774870883	2
2	7650	813901.73336386029	1
2	7660	815847.189020086643	2
2	7664	816573.228151953324	3
2	7667	817477.318901256709	4
2	7670	817699.215085720591	5
2	7676	818174.765597080515	4
2	7679	818532.956525225287	5
2	7684	819342.513788528237	4
2	7688	819847.465627813231	5
2	7693	819926.520039482678	4
2	7698	820201.766292941238	3
2	7717	822965.670166578153	2
2	7720	823258.162649652588	3
2	7725	823334.257597136029	2
2	7730	823421.367077607047	1
2	7741	823611.071876469643	0
2	7744	823978.390436816703	1
2	7749	824441.824873987107	0
2	7771	825254.836553731477	1
2	7776	825469.57807610692	0
2	7783	826444.436385484417	1
2	7789	826552.668383597365	2
2	7795	826846.179618756923	3
2	7798	826918.50261334136	4
2	7804	828331.185888877069	3
2	7810	828682.244697315274	4
2	7815	829054.870848476546	3
2	7820	829456.788493589446	2
2	7825	829595.821249397559	1
2	7832	830955.82411779962	2
2	7844	832428.314992770765	1
2	7852	832733.94389009791	0
2	7884	834260.874448825182	1
2	7889	834507.439929900792	0
2	7898	835865.273965550136	1
2	7903	836176.142855474768	0
2	7925	836890.451984782104	1
2	7930	836960.15076942846	0
2	7936	837165.465793439431	1
2	7941	837517.536729813976	0
2	7961	838764.220914222947	1
2	7966	839065.583922670975	0
2	8047	846287.867938820929	1
2	8049	846287.867938820929	0
2	8064	848340.105876697008	1
2	8066	848340.105876697008	0
2	8070	849222.616808965361	1
2	8075	849491.066163223847	0
2	8082	850336.123618719388	1
2	8084	850336.123618719388	0
2	8116	855192.560488588496	1
2	8118	855192.560488588496	0
2	8134	858355.428486793545	1
2	8136	858355.428486793545	0
2	8144	860701.537763980837	1
2	8146	860701.537763980837	0
2	8153	862439.531743003254	1
2	8155	862439.531743003254	0
2	8161	863111.162424869291	1
2	8163	863111.162424869291	0
2	8167	864057.512320292749	1
2	8181	865303.02610569117	0
2	8203	866408.730903615843	1
2	8205	866408.730903615843	0
2	8220	868534.958908788315	1
2	8222	868534.958908788315	0
2	8237	870778.486147138181	1
2	8239	870778.486147138181	0
2	8247	872820.918282938605	1
2	8253	874643.32540317254	0
2	8264	874925.401685182341	1
2	8269	875144.729400567272	0
2	8277	875447.951399910401	1
2	8285	875596.332622468535	0
2	8298	877728.684530264997	1
2	8300	877728.684530264997	0
2	8339	880452.829221744511	1
2	8341	880452.829221744511	0
2	8347	880800.00156147283	1
2	8349	880800.00156147283	0
2	8356	881355.81494290683	1
2	8358	881355.81494290683	0
2	8364	882538.550736270791	1
2	8370	882880.706431217302	0
2	8406	885839.34926548361	1
2	8408	885839.34926548361	0
2	8425	890248.3313985969	1
2	8427	890248.3313985969	0
2	8433	891388.136314012922	1
2	8435	891388.136314012922	0
2	8459	894197.992079623549	1
2	8461	894197.992079623549	0
2	8473	895213.317376138073	1
2	8478	895324.214422375739	0
2	8494	898336.175471856369	1
2	8496	898336.175471856369	0
2	8503	901303.946372669893	1
2	8505	901303.946372669893	0
2	8509	901864.446846353604	1
2	8514	901946.058898874024	0
2	8521	903574.337933516272	1
2	8524	904776.799164666889	2
2	8529	904912.894983826773	1
2	8534	904981.014919007717	0
2	8571	907814.890946983152	1
2	8576	907884.818719287418	0
2	8590	912267.339560743222	1
2	8592	912267.339560743222	0
2	8603	913356.767638669506	1
2	8609	913721.206910602425	0
2	8615	915149.167616487953	1
2	8619	915535.835069322055	2
2	8624	916520.536035914262	1
2	8630	917367.088869632105	0
2	8669	924077.330144453693	1
2	8671	924077.330144453693	0
2	8677	924509.765991806628	1
2	8679	924509.765991806628	0
2	8702	927232.169086953	1
2	8704	927232.169086953	0
2	8707	927280.1550775236	1
2	8713	927497.464290339948	0
2	8740	936658.065813419862	1
2	8742	936658.065813419862	0
2	8749	938037.516506727237	1
2	8751	938037.516506727237	0
2	8757	938992.131524765734	1
2	8759	938992.131524765734	0
2	8766	939982.309566531993	1
2	8768	939982.309566531993	0
2	8774	940986.817743971952	1
2	8776	940986.817743971952	0
2	8779	941020.036915159322	1
2	8788	941742.927503189688	0
2	8833	946126.476688748116	1
2	8835	946126.476688748116	0
2	8862	953940.3230718214	1
2	8864	953940.3230718214	0
2	8870	954226.477343742592	1
2	8872	954226.477343742592	0
2	8878	954814.357143421792	1
2	8880	954814.357143421792	0
2	8909	956951.058130568037	1
2	8914	957096.636498300828	0
2	8921	958741.197964301042	1
2	8923	958741.197964301042	0
2	8929	959347.854460893575	1
2	8931	959347.854460893575	0
2	8954	960996.327795051963	1
2	8956	960996.327795051963	0
2	8967	961487.491702505059	1
2	8972	961512.92097110111	0
2	8997	965298.021243897924	1
2	8999	965298.021243897924	0
2	9002	965838.514031212357	1
2	9008	966843.648198328135	0
2	9011	968092.923747017908	1
2	9018	968574.228682702227	2
2	9023	969093.571886730535	1
2	9028	969353.335527278199	0
2	9034	969590.078043671032	1
2	9039	969793.380962257687	0
2	9055	972481.144141378581	1
2	9058	973036.098684267608	2
2	9063	973309.211363209189	1
2	9069	973988.070567288734	0
2	9116	977983.586266225148	1
2	9118	977983.586266225148	0
2	9133	979621.832882991908	1
2	9135	979621.832882991908	0
2	9149	980488.642087604496	1
2	9151	980488.642087604496	0
2	9155	980882.468572230847	1
2	9160	981548.178529440021	0
2	9163	981795.073390205645	1
2	9170	983010.878773540518	2
2	9175	983328.534437531838	1
2	9184	984008.346269921583	0
2	9191	986392.281841963585	1
2	9194	986810.333872115138	2
2	9198	987646.41601236067	3
2	9203	988387.817382352166	2
2	9208	988607.45493299066	1
2	9211	988996.048011639902	2
2	9217	990065.651353875828	1
2	9222	990178.76817326458	0
2	9244	991006.665431679211	1
2	9249	991014.227560985005	0
2	9267	993047.070921008633	1
2	9276	995595.816313776744	0
2	9320	997873.388952928875	1
2	9322	997873.388952928875	0
2	9325	997962.114915031061	1
2	9330	998548.662722271596	0
2	9355	1003754.917129953877	1
2	9357	1003754.917129953877	0
2	9364	1006058.06656865591	1
2	9366	1006058.06656865591	0
2	9393	1013330.572007814976	1
2	9395	1013330.572007814976	0
2	9401	1013787.387043677039	1
2	9403	1013787.387043677039	0
2	9410	1015487.601693921885	1
2	9412	1015487.601693921885	0
2	9418	1016345.290442842234	1
2	9420	1016345.290442842234	0
2	9430	1017835.853342123792	1
2	9435	1018077.074129934468	0
2	9449	1018466.204037399141	1
2	9454	1018543.421991261376	0
2	9460	1019523.324700889877	1
2	9462	1019523.324700889877	0
2	9486	1022082.336090949015	1
2	9491	1022233.310798320403	0
2	9529	1027576.640853603597	1
2	9531	1027576.640853603597	0
2	9534	1028525.874839552507	1
2	9540	1029041.537611694186	0
2	9560	1030789.660032108914	1
2	9565	1031115.195531496379	0
2	9569	1032218.90788282467	1
2	9574	1033275.593326524185	0
2	9587	1035585.522627247427	1
2	9592	1035779.654912701807	0
3	1485	153913.619713778811	987.5941815618
3	1494	154669.02811184413	427.97444220432
3	1510	155642.251526441258	0
3	1518	155934.204556238295	0
3	1527	156222.724029017197	60.618867025553
3	1641	175103.923714486225	8539.367125657
3	1646	175249.995605361948	8469.7496918926
3	1666	177268.025003641727	7753.313296855
3	1674	177795.871730742344	6327.476393351
3	1680	178312.790718459727	6707.266169258
3	1685	178409.796942423491	5973.9504355037
3	1690	178542.727420000557	2450.8679627514
3	1695	178563.796002348629	2280.4259452532
3	1700	178566.445212132407	899.03588091822
3	1708	179295.524837455453	0
3	1717	180083.920491977181	0
3	1751	184192.016941623346	161.61873168188
3	1759	184467.127071357722	245.50070896846
3	1767	184873.120708213853	217.30443101689
3	1787	191120.454438228968	0
3	1804	193671.727024352083	0
3	1847	198761.822939526335	2336.6411553044
3	2001	213382.420227655444	13862.699299759
3	2006	213604.369823007255	13692.524744494
3	2024	216121.806766922607	15226.442589594
3	2035	216623.909303033786	13043.195385966
3	2040	216658.838986610404	11655.569944984
3	2045	216851.986795896493	11740.353028558
3	2054	217817.94249388182	9335.7449525738
3	2059	217926.012781544815	8334.8269914167
3	2064	218129.184291990565	7820.4609117264
3	2069	218246.707786306544	7064.8082781698
3	2074	218276.857937978688	5566.5108382315
3	2088	219434.731988378191	6371.1729465828
3	2093	219435.657004577997	5433.9490626992
3	2098	219910.78003539683	3638.903280609
3	2103	220200.264238236391	3592.6713070078
3	2111	220464.388126558108	3025.5829907269
3	2139	222222.721068462162	1829.2669028385
3	2144	222469.921391373448	872.18366700754
3	2153	222914.876205407453	1156.1404797185
3	2158	222943.819116462734	344.48788567935
3	2176	227987.772078718567	0
3	2204	233700.780710921553	1172.2054961836
3	2229	235830.377681872363	1679.6331170296
3	2266	238816.845911281345	740.738029903
3	2271	239084.922075643996	512.10876705491
3	2279	239303.970615967366	124.66050820542
3	2296	240440.692254630906	669.34836284511
3	2304	241467.120180905018	0
3	2313	241908.703595880291	0
3	2349	250043.528547189947	1664.5759406298
3	2358	251616.271164756006	0
3	2375	252690.029474678302	0
3	2383	253299.01528163928	0
3	2434	260949.974181025438	849.28075334678
3	2459	263165.435034497348	2420.8806562454
3	2464	263450.438094901299	2534.7731546753
3	2469	263476.213691614445	2487.0077297529
3	2479	266904.432094578676	0
3	2496	267499.721705354759	0
3	2504	268898.323266337466	0
3	2525	276735.378779597632	0
3	2576	281756.762255549253	143.9362076
3	2584	281916.836682182419	0
3	2592	282009.37877855042	0
3	2600	282245.89541971865	0
3	2617	284237.883323590097	0
3	2625	284259.578658453044	0
3	2705	295679.896279766119	7859.4097007835
3	2710	295793.497241358112	4516.1408908615
3	2718	296082.884904591206	4028.7581265945
3	2723	296244.695786470202	2819.4554600416
3	2728	296290.224879910893	438.81834682417
3	2745	297328.302677228858	456.04556274467
3	2779	300587.426851880271	1836.3652150001
3	2787	301166.658410106383	142.39673675523
3	2816	303802.348155209054	1617.2324031095
3	2821	303817.567890864289	323.92086714312
3	2829	304016.782825275875	0
3	2854	305951.47639620536	1614.1188148446
3	2869	307218.868357353144	913.48500880048
3	2874	307314.353237217058	556.86314671645
3	2879	307368.306654897866	484.62308465516
3	2904	309425.206783067891	134.86172805288
3	2913	311218.217768766708	0
3	2933	318372.284813955448	0
3	2952	323062.634797986602	0
3	2970	325728.255723786487	0
3	3013	332356.597479566959	0
3	3030	333277.600006497692	0
3	3038	333614.116036993495	0
3	3056	336728.796857646273	0
3	3064	336949.298978290638	0
3	3074	340862.862689613018	0
3	3139	345951.749368789521	959.15541619344
3	3144	346154.57578368078	731.46498559836
3	3153	346549.286121791647	766.74650918555
3	3158	346632.249758608692	274.50478789479
3	3166	347661.723509387522	289.6159811908
3	3174	347885.639637949654	125.77328707854
3	3208	350232.83327075841	0
3	3249	351508.953393035588	206.98470423763
3	3257	351693.51448092329	173.74712809313
3	3265	351888.421198629228	42.665300858209
3	3327	355808.977842031936	3799.3315075192
3	3332	355948.800416318375	3122.6752700375
3	3337	356136.803755003574	2662.7146891048
3	3345	356407.176364425948	1613.0723798013
3	3354	356793.905319420492	1704.662768898
3	3473	369380.652554615904	12999.169841264
3	3478	369676.607035496326	13268.96775076
3	3484	370364.211880306499	12787.342867323
3	3489	370569.082916223002	10817.464457067
3	3497	371388.60975309821	7378.9847543505
3	3502	371411.331210984112	6935.8455788449
3	3507	371602.381789019374	5533.3107202924
3	3512	371838.803123828156	5507.0858741221
3	3518	372023.551123508112	4841.2229168181
3	3523	372639.35387108751	4213.8834369219
3	3528	372692.60322262102	3795.7980510403
3	3533	372701.760143032178	1932.8079594847
3	3721	390834.606411841382	17207.088437345
3	3738	391164.503928587923	13896.573261242
3	3743	391193.374384050392	11101.404065775
3	3748	391258.492069299784	10578.55593368
3	3765	392615.611859785324	10205.018539097
3	3770	392723.163080474827	7797.3022305957
3	3778	392969.515469022078	7949.1162189488
3	3791	394221.450627450437	8982.6868834964
3	3800	394315.853029168765	8043.260386423
3	3805	394550.793652538583	7610.0307700886
3	3810	394966.46947834025	7103.9710446641
3	3815	395178.697130679885	7040.628162932
3	3820	395243.027805908483	6627.9454560633
3	3825	395274.857175253595	6242.0049832686
3	3830	395439.600606352367	4733.8518604664
3	3835	395584.841871953132	4545.5008081475
3	3841	396075.420895726254	4448.0589106252
3	3846	396091.496051270813	3242.3769430306
3	3854	396676.429219331388	2396.8766847297
3	3859	396751.18145454271	587.95948837836
3	3886	402437.288552025969	0
3	3895	403275.809181423382	0
3	3920	405456.443574210503	0
3	3928	405681.137876646759	125.35303410012
3	4086	423766.3187229885	13005.61656236
3	4094	423895.248589466979	12317.23502145
3	4099	423938.430981988089	11576.702655587
3	4104	424062.823558800883	11608.476425509
3	4109	424066.974355637468	8214.7201753148
3	4114	424083.338591319638	5125.919811198
3	4119	424143.187344077772	5035.2564350586
3	4127	425047.695704623184	3885.0487964747
3	4132	425101.187779604429	3685.5596492582
3	4138	425685.104659076298	3669.9795058979
3	4143	426244.153580137958	2388.9426879949
3	4148	426321.514843938315	1861.0324010545
3	4156	426439.670731235864	0
3	4165	427466.428102162216	0
3	4191	430844.997473640036	0
3	4207	431821.582226613737	0
3	4227	438319.954647914808	1797.0475865334
3	4244	438968.519639928534	342.95692021616
3	4260	440257.235208575018	960.56588474582
3	4270	442420.433270061445	0
3	4311	444879.921400262583	284.00115522314
3	4319	445523.763608280945	216.65317449703
3	4328	446986.465720858489	0
3	4365	450194.095321242907	282.70209311728
3	4370	450273.951933073963	304.17145538966
3	4378	450598.329137046879	19.19639660962
3	4418	453711.506329738534	1888.2683052184
3	4426	454135.700030083669	1686.7056335561
3	4431	454148.89251611042	994.63853034628
3	4437	454279.754259734904	566.30846184617
3	4475	459552.695800620966	593.77087035377
3	4480	459693.781707691946	295.03183620564
3	4488	460027.713641714769	258.4335319785
3	4507	465063.916215974135	0
3	4527	471618.933070411225	0
3	4545	475869.864271765746	0
3	4562	476894.359487334829	0
3	4579	478774.577661716706	0
3	4604	480485.972527519161	306.27889988857
3	4621	481841.816882178697	0
3	4639	486769.569987156147	0
3	4665	489216.84518549712	0
3	4673	489932.347614517915	0
3	4681	489956.501703253217	0
3	4699	492863.068122495692	0
3	4726	497986.563766022249	788.6691682671
3	4735	499169.007596960162	0
3	4777	502595.313114526793	1314.6608989891
3	4785	503224.359980330462	0
3	4802	505276.846263710115	0
3	4811	506067.072298918543	0
3	4820	507802.650690648999	0
3	4862	512233.443890344703	92.800619386788
3	4870	512334.406489483126	0
3	4887	512785.368960422331	0
3	4895	513102.744169950254	6.226630597687
3	4912	515581.905494488641	0
3	4921	516141.286407344636	0
3	4938	518224.157935792907	0
3	4974	524870.864328922057	0
3	4982	525655.711611283713	784.40860639218
3	4991	526345.499482891529	0
3	5020	535364.900624972954	0
3	5036	536511.237102052041	0
3	5055	540154.19955814728	0
3	5072	543098.010894523082	53.408971623129
3	5089	544660.691208125308	71.506704247
3	5097	544897.65706432564	0
3	5144	556356.523434232713	915.19403502068
3	5156	557668.721754350236	1192.738520465
3	5161	558086.240511065985	1291.2912757098
3	5169	558424.187579318706	0
3	5215	563482.183479755152	1788.7583251058
3	5220	563614.923457971191	1391.2971954184
3	5229	564517.76547935594	0
3	5247	569040.021068875037	0
3	5256	569994.225074856459	0
3	5272	570800.034994233491	0
3	5299	574720.00075958749	262.25955542807
3	5307	575299.025311069225	0
3	5332	577141.976846628173	0
3	5349	577750.681590795663	0
3	5399	581729.369204878647	1024.7581721089
3	5407	581846.116572152289	0
3	5451	583256.273621418573	1341.7805956537
3	5467	583724.34502834774	1489.9105875431
3	5472	583745.434767074061	47.984670362751
3	5503	589008.154591980836	5049.3996253059
3	5657	599038.70634395911	14428.400249236
3	5662	599561.236798336299	14602.308467661
3	5667	599612.576579719439	14579.505409182
3	5672	599685.237984665432	12661.543696337
3	5680	599826.579022061333	9941.2825736927
3	5686	600697.554389958225	10595.867045748
3	5694	601356.86649807465	9283.9515368823
3	5699	601467.507573625716	8905.5862086321
3	5704	601547.538013513699	8697.613324467
3	5751	606979.322549705632	13209.32662405
3	5756	607047.887969529011	13017.694409115
3	5784	608659.763907975047	14260.005833332
3	5789	608774.027193965248	13099.172399573
3	5797	609266.833873817542	13089.413939582
3	5802	609353.708383137182	12783.776094906
3	5810	609466.065545959646	12676.508690757
3	5815	609723.325606581548	11237.923989685
3	5820	609957.60398491191	10225.016586004
3	5886	617035.806957066734	15842.04149291
3	5891	617060.069090840913	10935.488214979
3	5896	617075.610541286563	10649.223531773
3	5905	617153.458647220447	9618.7626173465
3	5932	618192.857207795179	10257.657043065
3	5940	618350.747787064251	9312.4287282467
3	5945	618573.695306657916	9159.5467195387
3	5950	618755.723932940932	3143.1537747421
3	5955	618841.729501781537	2572.2720225098
3	5961	619231.241110186116	2762.4187505098
3	5966	619508.579775224765	2418.212869761
3	5971	619731.842730665389	2432.0441897701
3	5976	619951.541409716679	2352.1128875566
3	5981	619994.754408304832	1702.948683705
3	5991	622326.930306855392	0
3	6008	624034.914732051435	0
3	6037	633100.265188293105	0
3	6063	637301.561522665568	0
3	6072	637991.504221521965	0
3	6080	639382.657548834063	288.08947588252
3	6164	652279.330395526527	7984.7505614553
3	6169	652348.095803410834	4004.5897599474
3	6184	656141.48818326153	6894.2406644901
3	6189	656197.654398760024	6012.2141818681
3	6195	656749.625421274924	5630.4516677009
3	6254	660583.094734385409	1371.838610918
3	6259	660857.765958029208	1493.5221610763
3	6264	661027.22921310415	869.7757571743
3	6269	661128.629764026121	553.65994443206
3	6286	663089.047912550459	1447.4096239743
3	6294	663398.979934889344	0
3	6303	663646.278856969605	0
3	6311	664085.789755787379	0
3	6320	665498.530824503123	0
3	6347	671130.060204856039	0
3	6355	671691.295352805619	0
3	6373	675171.574692245333	0
3	6398	677035.711007987587	0
3	6487	689556.068971727898	10065.495933224
3	6492	689591.313632534546	5853.2547782059
3	6497	689827.107385101168	1128.0337959811
3	6502	690018.815439151531	548.75784788632
3	6510	690342.460322659735	0
3	6518	690728.317226500125	0
3	6535	691918.282330637262	0
3	6543	692118.0065589732	155.19778248944
3	6551	692393.346307173531	199.38367541315
3	6560	693747.785276873394	1064.5135301515
3	6595	698268.386466522421	0
3	6611	699257.087292551875	0
3	6620	699926.49304756757	0
3	6637	701456.805110657751	0
3	6672	707730.966659952773	0
3	6681	708002.771667921452	0
3	6689	708986.787209202908	0
3	6697	709227.137584989025	0
3	6824	720216.822706551032	9895.8084865016
3	6829	720282.393018902062	5073.6290078275
3	6834	720497.462096449788	3652.0006689289
3	6839	720595.13610128967	2584.2039851368
3	6844	720714.656610957719	2593.4922660873
3	6849	720901.771989839833	1981.6372367356
3	6854	721169.790875468431	2100.8093316421
3	6859	721432.494000443537	1866.2811502083
3	6864	721671.822445352094	1776.2261348524
3	6873	722245.078238673281	0
3	6881	722953.869880039135	0
3	6928	729263.056172450551	417.01210006627
3	6933	729489.926657988693	347.16897716416
3	7032	739521.34475993103	8929.5450891815
3	7037	739753.367403938485	6317.0420213369
3	7042	739779.604213867968	4839.6662890803
3	7047	740004.053843537539	4093.6028381913
3	7052	740099.054481145307	4159.1696247941
3	7057	740195.187200887487	4008.4862294731
3	7062	740460.358214034595	2286.1813627361
3	7103	744138.788926346	4622.9178650375
[...]
7	3660	386551.538623108988	2
7	3665	386647.211463214249	3
7	3670	386901.076356255685	4
7	3674	386940.762882450015	3
7	3681	387862.498433676132	2
7	3685	387956.458481162189	3
7	3689	388138.068967747914	2
7	3695	388615.08234984516	1
7	3698	389032.852191984991	0
7	3703	389885.757694926592	1
7	3711	390537.113761335806	2
7	3715	390705.748745886014	1
7	3719	390834.606411841382	2
7	3732	391039.341063805585	1
7	3736	391164.503928587923	2
7	3753	391627.361985101081	1
7	3763	392615.611859785324	2
7	3772	392849.119108240235	1
7	3789	394221.450627450437	2
7	3793	394279.552534601663	1
7	3848	396163.22196616435	0
7	3873	401836.561554917049	1
7	3881	402296.183331999815	2
7	3883	402437.288552025969	1
7	3892	403275.809181423382	0
7	3910	404793.133911489476	1
7	3915	405432.446164483001	2
7	3917	405456.443574210503	1
7	3922	405555.784842546641	0
7	3941	408157.968703826599	1
7	3949	408935.58436458816	2
7	3960	410760.702160628882	1
7	3964	411046.168913653584	2
7	3975	411578.013568017208	1
7	3985	411979.957231048779	2
7	3989	412361.728326400896	1
7	3992	412454.34713329186	0
7	4001	415436.621684904107	1
7	4006	415686.995545778493	2
7	4010	415852.254180322717	1
7	4021	417007.700403991616	2
7	4030	418428.63340576039	3
7	4034	418957.418780121654	2
7	4040	419107.930909019196	1
7	4044	419341.362302772336	2
7	4050	420035.944271427517	3
7	4055	420330.255727852602	4
7	4060	421000.154647555434	5
7	4064	421162.646908148515	4
7	4070	421415.628130346261	3
7	4074	422015.125153178446	2
7	4079	423484.329622171694	3
7	4084	423766.3187229885	4
7	4088	423855.210892143062	3
7	4121	424460.482442883854	2
7	4153	426439.670731235864	1
7	4162	427466.428102162216	0
7	4176	428553.808734908947	1
7	4186	430771.977374927699	2
7	4188	430844.997473640036	1
7	4202	431806.143649740875	2
7	4204	431821.582226613737	1
7	4220	436522.907061381409	0
7	4225	438319.954647914808	1
7	4232	438625.562719712377	0
7	4242	438968.519639928534	1
7	4249	439296.669323829195	0
7	4258	440257.235208575018	1
7	4267	442420.433270061445	0
7	4281	443206.507530953898	1
7	4289	443841.870373751044	2
7	4297	444595.920245039446	1
7	4304	444783.116729023022	2
7	4309	444879.921400262583	3
7	4313	445307.110433783919	2
7	4325	446986.465720858489	1
7	4341	449150.244631921875	2
7	4352	449642.172353653166	3
7	4356	449911.393228125626	2
7	4359	449969.780477684302	1
7	4363	450194.095321242907	2
7	4372	450579.132740437259	1
7	4392	451823.238024520105	0
7	4399	451851.073821429214	1
7	4404	452154.196725265676	2
7	4408	452448.994396527569	1
7	4412	453154.253985764143	0
7	4416	453711.506329738534	1
7	4420	453713.44579788873	0
7	4450	458770.20335373724	1
7	4460	458958.924930267198	0
7	4464	459324.52194659016	1
7	4468	459398.749871486304	0
7	4473	459552.695800620966	1
7	4482	459769.280109736266	0
7	4500	462683.052181158674	1
7	4504	465063.916215974135	0
7	4521	471182.969291436012	1
7	4524	471618.933070411225	0
7	4539	474170.659101687371	1
7	4542	475869.864271765746	0
7	4557	476728.276506063218	1
7	4559	476894.359487334829	0
7	4573	477396.155569347948	1
7	4576	478774.577661716706	0
7	4593	479388.696937563777	1
7	4598	480179.693627630588	0
7	4602	480485.972527519161	1
7	4615	480980.211599073802	2
7	4618	481841.816882178697	1
7	4634	486532.431834472062	2
7	4636	486769.569987156147	1
7	4654	488431.985365003937	2
7	4659	488440.024703031479	3
7	4662	489216.84518549712	2
7	4670	489932.347614517915	1
7	4678	489956.501703253217	0
7	4694	492373.461929087527	1
7	4696	492863.068122495692	0
7	4711	494104.036635315689	1
7	4720	497197.894597755147	0
7	4724	497986.563766022249	1
7	4732	499169.007596960162	0
7	4749	500340.627351348124	1
7	4757	501280.652215537706	0
7	4764	501967.830721700735	1
7	4769	502117.357911962221	2
7	4775	502595.313114526793	3
7	4782	503224.359980330462	2
7	4796	503694.13295836336	3
7	4799	505276.846263710115	2
7	4808	506067.072298918543	1
7	4817	507802.650690648999	0
7	4839	511280.060642898218	1
7	4847	511967.016263961079	2
7	4851	512140.643270957915	1
7	4855	512224.84774703788	2
7	4860	512233.443890344703	3
7	4867	512334.406489483126	2
7	4881	512476.174754829912	3
7	4884	512785.368960422331	2
7	4889	513096.517539352567	1
7	4907	515407.95555530862	2
7	4909	515581.905494488641	1
7	4918	516141.286407344636	0
7	4933	517892.212366269416	1
7	4935	518224.157935792907	0
7	4951	521903.535088800882	1
7	4960	523892.509572965381	2
7	4969	524825.090249513305	3
7	4971	524870.864328922057	2
7	4976	524871.303004891529	1
7	4988	526345.499482891529	0
7	5006	534168.168259801342	1
7	5015	535070.780129725195	2
7	5017	535364.900624972954	1
7	5031	536185.920610827776	2
7	5033	536511.237102052041	1
7	5048	537944.905762705156	2
7	5052	540154.19955814728	1
7	5066	543044.601922899953	0
7	5070	543098.010894523082	1
7	5083	544589.184503878308	0
7	5087	544660.691208125308	1
7	5094	544897.65706432564	0
7	5109	545453.865203291617	1
7	5125	555441.329399212029	0
7	5129	555766.41324182634	1
7	5137	556323.270773982787	2
7	5142	556356.523434232713	3
7	5146	556475.983233885244	2
7	5149	556794.9492353562	1
7	5166	558424.187579318706	0
7	5181	559978.949447840026	1
7	5193	561647.546729168365	2
7	5197	561693.425154649336	1
7	5204	562011.227535799877	2
7	5208	562223.626262552775	1
7	5213	563482.183479755152	2
7	5226	564517.76547935594	1
7	5242	567425.758449962806	2
7	5244	569040.021068875037	1
7	5253	569994.225074856459	0
7	5267	570698.653119693109	1
7	5269	570800.034994233491	0
7	5285	573714.778202433673	1
7	5293	574457.741204159418	0
7	5297	574720.00075958749	1
7	5304	575299.025311069225	0
7	5318	575750.573053487331	1
7	5327	576928.932503192227	2
7	5329	577141.976846628173	1
7	5343	577553.22901886046	2
7	5346	577750.681590795663	1
7	5360	578327.158426222097	2
7	5371	579318.113016285633	3
7	5382	580704.611032769727	2
7	5387	581207.0190611755	3
7	5392	581579.243753501871	4
7	5397	581729.369204878647	5
7	5404	581846.116572152289	4
7	5412	581914.493025764854	3
7	5415	582234.434440804656	2
7	5430	582831.007405694205	3
7	5439	583205.450745518417	4
7	5444	583212.752129454588	5
7	5449	583256.273621418573	6
7	5461	583697.45009671131	5
7	5465	583724.34502834774	6
7	5474	583958.754966674966	5
7	5478	584610.306094723114	4
7	5484	584958.928330675667	3
7	5487	585033.071170537916	2
7	5496	587023.694288328323	1
7	5501	589008.154591980836	2
7	5517	589635.781338734938	3
7	5522	589885.296448368628	2
7	5525	590101.687344209784	1
7	5535	590607.45303614648	2
7	5541	591606.790553048892	3
7	5551	592072.914961192318	2
7	5557	592561.921364993572	1
7	5561	592663.357154470736	2
7	5565	592849.924689046708	1
7	5573	593453.623548012068	2
7	5577	593769.995925655688	1
7	5580	594030.193560413845	0
7	5587	594345.001865388548	1
7	5591	594399.758074643132	0
7	5596	595016.895806474845	1
7	5604	595455.346347081767	2
7	5609	595457.605990567919	3
7	5613	595674.85479439187	2
7	5616	596177.419934235877	1
7	5626	596569.932288231087	0
7	5630	596627.826612943794	1
7	5634	596789.556855202631	0
7	5638	597077.759397953209	1
7	5646	598485.401616896068	0
7	5650	598950.677136201906	1
7	5655	599038.70634395911	2
7	5674	599732.587398908271	1
7	5688	601193.765464156481	0
7	5727	605594.86069015619	1
7	5732	605646.107955952045	2
7	5737	605772.366190370996	3
7	5741	606124.580875861533	2
7	5744	606426.387009513187	1
7	5749	606979.322549705632	2
7	5770	607371.369489841398	3
7	5774	607534.696029873991	2
7	5777	607935.200164730643	1
7	5782	608659.763907975047	2
7	5791	609038.319058817586	1
7	5804	609414.148587119263	0
7	5840	613761.110928414084	1
7	5848	615319.184886006776	2
7	5853	615612.570158198848	1
7	5857	615682.768588038418	2
7	5864	616269.457479271776	1
7	5868	616338.300729370436	2
7	5872	616468.822359676305	1
7	5879	616748.089586798267	2
7	5884	617035.806957066734	3
7	5898	617090.36690546374	2
7	5907	617299.798540895249	1
7	5913	617599.42852216011	0
7	5925	618152.747713649564	1
7	5930	618192.857207795179	2
7	5934	618291.805724599799	1
7	5988	622326.930306855392	0
7	6002	623394.142338962867	1
7	6005	624034.914732051435	0
7	6022	630831.459127138554	1
7	6031	631297.917847835001	2
7	6034	633100.265188293105	1
7	6049	635326.768441693858	2
7	6058	636905.89816911101	3
7	6060	637301.561522665568	2
7	6069	637991.504221521965	1
7	6074	639094.56807295154	0
7	6092	640892.157922284585	1
7	6107	644294.579834071268	0
7	6112	645301.431839066851	1
7	6121	647984.612971717219	2
7	6127	648017.40034323557	3
7	6131	648343.50604346348	2
7	6137	649247.247518771462	1
7	6141	649539.125764927262	2
7	6149	650185.440216891929	1
7	6152	651119.173753574013	0
7	6157	651438.766482064108	1
7	6162	652279.330395526527	2
7	6182	656141.48818326153	3
7	6216	659057.500015885417	4
7	6223	659211.256123467386	3
7	6226	659364.243796952862	2
7	6230	659520.259928283098	3
7	6236	659995.029341201471	4
7	6241	660137.897768928429	5
7	6245	660157.453455929849	4
7	6248	660574.969819594065	3
7	6252	660583.094734385409	4
7	6274	661641.638288576118	3
7	6284	663089.047912550459	4
7	6291	663398.979934889344	3
7	6300	663646.278856969605	2
7	6308	664085.789755787379	1
7	6317	665498.530824503123	0
7	6333	669544.333351365422	1
7	6342	670550.412255358834	2
7	6344	671130.060204856039	1
7	6352	671691.295352805619	0
7	6368	674708.506724529681	1
7	6370	675171.574692245333	0
7	6388	676591.79697112278	1
7	6393	676799.414270556906	2
7	6395	677035.711007987587	1
7	6419	679490.573038504239	0
7	6424	682152.867225248128	1
7	6435	683738.058854328685	0
7	6448	687523.646901290226	1
7	6453	688204.659451679941	2
7	6458	688305.055627248091	3
7	6463	688332.437555869327	4
7	6468	688339.34100935132	5
7	6473	688584.49719448826	6
7	6477	688699.07358912004	5
7	6481	689470.057591265208	4
7	6485	689556.068971727898	5
7	6507	690342.460322659735	4
7	6515	690728.317226500125	3
7	6530	691124.992338718466	4
7	6532	691918.282330637262	3
7	6537	691962.808776483761	2
7	6545	692193.962631760385	1
7	6554	692683.271746721914	0
7	6573	696748.01128130834	1
7	6581	696966.913959114153	2
7	6589	697139.150018925939	3
7	6592	698268.386466522421	2
7	6606	698942.960937359189	3
7	6608	699257.087292551875	2
7	6617	699926.49304756757	1
7	6631	700736.202731574334	2
7	6634	701456.805110657751	1
7	6653	706097.221303264685	2
7	6662	706822.249725159342	3
7	6667	707415.878949520559	4
7	6669	707730.966659952773	3
7	6678	708002.771667921452	2
7	6686	708986.787209202908	1
7	6694	709227.137584989025	0
7	6715	710250.841973702382	1
7	6719	710321.014220049399	0
7	6733	712592.969279413887	1
7	6739	713718.564903922212	2
7	6747	715208.764011074519	1
7	6751	716250.809118230737	2
7	6756	716845.461427520858	1
7	6760	717308.987201500322	2
7	6765	717457.930410165306	3
7	6773	717684.226104966995	4
7	6780	718010.932116152906	3
7	6786	718121.164344870389	2
7	6791	718369.665956365339	3
7	6796	718623.80292867019	4
7	6800	718920.134753104228	3
7	6803	719068.981543826303	2
7	6810	719349.194800819228	3
7	6814	719566.212850235283	2
7	6817	719895.59631049972	1
7	6822	720216.822706551032	2
7	6870	722245.078238673281	1
7	6878	722953.869880039135	0
7	6897	726835.001406655307	1
7	6906	727293.736438220589	2
7	6914	728846.04407238428	1
7	6918	729074.006672048577	2
7	6922	729142.757680824535	1
7	6926	729263.056172450551	2
7	6944	730591.799670749501	1
7	6952	732180.476675960257	2
7	6963	732941.259502714853	3
7	6967	733436.325382601602	2
7	6975	734616.649812910236	3
7	6979	734939.937924787642	2
7	6983	735207.269824944071	3
7	6988	735910.451005346197	2
7	6991	735939.884856351172	1
7	6994	736186.700971414419	0
7	7002	737464.442237244721	1
7	7010	737932.787162080907	2
7	7014	738174.176851298452	1
7	7021	738837.228473416627	2
7	7026	739515.871061308469	1
7	7030	739521.34475993103	2
7	7064	740518.541516832834	1
7	7076	741745.418611370998	0
7	7087	743306.478232282872	1
7	7092	743536.499289559716	2
7	7097	744131.107121542119	1
7	7101	744138.788926346	2
7	7129	746180.133125634019	1
7	7133	747419.225949488577	0
7	7140	748338.978938808091	1
7	7146	749632.799200563253	2
7	7158	750361.935815303675	1
7	7168	752687.998940096978	0
7	7183	754678.735054575638	1
7	7185	754845.052409411971	0
7	7200	756276.00697059039	1
7	7209	758022.95262776817	2
7	7211	759149.127586532785	1
7	7220	759793.467806807278	0
7	7239	762952.702004991653	1
7	7244	763635.954443788068	2
7	7246	764369.247886492528	1
7	7263	769140.46086073754	2
7	7266	770473.119471335202	1
7	7275	772268.308203874777	0
7	7293	778646.466183304694	1
7	7301	778961.181182253581	2
7	7304	780506.249892525513	1
7	7312	780979.612817341621	0
7	7330	782588.045613840432	1
7	7335	782821.164066935274	2
7	7342	783386.57074673831	1
7	7347	783723.826073375743	2
7	7354	783955.454170160415	1
7	7363	786035.49019105075	0
7	7381	792491.381782869253	1
7	7389	792549.800033403313	2
7	7391	792579.639819609724	1
7	7406	794429.027512376081	2
7	7415	795452.899536087697	3
7	7417	795726.836964921501	2
7	7431	797218.452544458602	1
7	7435	797235.619088699922	2
7	7442	797530.431630867482	1
7	7451	800078.747088092219	0
7	7466	801395.409043248341	1
7	7469	802284.968142714361	0
7	7490	804964.717958268882	1
7	7495	805012.222203727371	2
7	7500	805104.682408300159	3
7	7507	805231.733661361521	2
7	7513	805296.827925359175	1
7	7517	805336.185767365127	2
7	7524	805608.917762774007	1
7	7532	806633.841138393839	2
7	7540	806959.836441824566	3
7	7544	807054.722026565042	2
7	7548	807177.701118478026	3
7	7552	807252.420006597532	2
7	7557	807443.78833158592	3
7	7569	807709.639734133426	2
7	7573	808135.977728808303	3
7	7577	808488.323142720438	2
7	7592	809069.475149399283	3
7	7597	810406.14721820598	2
7	7602	811025.72907167949	3
7	7634	812093.162403184489	2
7	7637	812297.069635905142	1
7	7648	813901.73336386029	2
7	7652	814020.023771090151	1
7	7656	814736.453822477997	0
7	7674	818174.765597080515	1
7	7682	819342.513788528237	2
7	7691	819926.520039482678	3
7	7696	820201.766292941238	4
7	7700	820287.363506914112	3
7	7703	820467.742426653126	2
7	7706	820621.651129198225	1
7	7710	821612.93443285684	0
7	7715	822965.670166578153	1
7	7723	823334.257597136029	2
7	7728	823421.367077607047	3
7	7732	823498.556271960803	2
7	7735	823571.33927679763	1
7	7739	823611.071876469643	2
7	7747	824441.824873987107	3
7	7753	824969.25280915631	4
7	7757	824971.63112470298	3
7	7778	826000.126993698574	2
7	7785	826475.069927655815	1
7	7791	826598.778982271773	0
7	7802	828331.185888877069	1
7	7806	828537.700291835583	0
7	7813	829054.870848476546	1
7	7818	829456.788493589446	2
7	7823	829595.821249397559	3
7	7828	830883.111548925878	2
7	7835	831567.27129675165	1
7	7838	831761.2247999315	0
7	7842	832428.314992770765	1
7	7846	832632.703292095933	0
7	7850	832733.94389009791	1
7	7856	833229.842168278411	2
7	7880	834180.632986163299	1
7	7893	835841.191036348607	2
7	7906	836202.757484872116	3
7	7920	836514.817990583204	2
7	7932	836986.200030408529	1
7	7939	837517.536729813976	2
7	7944	838184.536751270386	3
7	7948	838247.01964069522	2
7	7951	838262.608867599684	1
7	7969	839262.16858451557	2
7	7973	839463.426555667365	1
7	8036	842129.239309965549	0
7	8052	846798.837353329436	1
7	8055	847652.052662342233	0
7	8073	849491.066163223847	1
7	8078	849528.760723519032	2
7	8086	851027.876337258883	1
7	8090	851137.296146134874	2
7	8097	851295.725997085853	1
7	8105	851558.634773898124	0
7	8121	855290.521380189461	1
7	8123	855378.205115825808	0
7	8139	858419.002952815572	1
7	8149	861362.330528449799	2
7	8158	862981.349856191885	3
7	8169	864228.747520057038	2
7	8172	864709.695242777982	1
7	8175	865044.000270435224	0
7	8179	865303.02610569117	1
7	8184	865434.686842852418	2
7	8208	866843.651929183801	3
7	8211	868238.540127440051	2
7	8225	868771.371376095359	3
7	8228	870597.183103990739	2
7	8242	872263.239467256742	1
7	8251	874643.32540317254	2
7	8255	874683.862753814184	1
7	8259	874902.124334400656	2
7	8272	875155.326902221781	3
7	8279	875584.670170764421	2
7	8288	875944.615285814196	3
7	8302	877852.269140615589	2
7	8306	878542.242909377375	3
7	8313	878768.447878813971	2
7	8318	878783.402416269169	1
7	8329	879096.756660687334	0
7	8344	880605.831406246299	1
7	8353	881210.7367039221	2
7	8360	882340.57267859321	1
7	8368	882880.706431217302	2
7	8372	883335.393065961543	1
7	8376	883801.602151460216	2
7	8380	883937.935052664773	1
7	8396	884379.503090222614	0
7	8412	886398.829501119554	1
7	8414	886563.475897378206	0
7	8430	890405.571773609429	1
7	8439	891428.335989929301	2
7	8441	891585.819275182331	1
7	8450	893283.51632516418	0
7	8464	894535.616005269744	1
7	8467	894936.898953095931	0
7	8481	895867.109221657469	1
7	8484	897874.365036663331	0
7	8499	898449.81264502899	1
7	8512	901946.058898874024	2
7	8516	902018.189527402227	1
7	8527	904912.894983826773	2
7	8532	904981.014919007717	3
7	8538	905330.572654655699	4
7	8542	905860.881043761637	3
7	8554	906918.2658158422	2
7	8559	907141.999718755684	1
7	8567	907479.24836149849	0
7	8581	910781.521125701792	1
7	8594	912609.888911046239	0
7	8598	913103.686045808957	1
7	8611	914675.409244438972	0
7	8622	916520.536035914262	1
7	8628	917367.088869632105	2
7	8632	917876.581410767682	1
7	8636	918599.209466099159	2
7	8641	919349.041117004702	1
7	8649	919592.898996168762	0
7	8674	924437.718696769533	1
7	8682	924884.987757120814	2
7	8684	925416.623758739971	1
7	8693	926207.714916286572	0
7	8711	927497.464290339948	1
7	8716	927909.138852224664	2
7	8718	928129.085065703916	1
7	8728	931423.866019959728	0
7	8745	937281.84420589069	1
7	8754	938677.966618589319	2
7	8762	939334.126480083374	3
7	8771	940003.642448732827	4
7	8782	941449.375520812741	3
7	8786	941742.927503189688	4
7	8791	941856.965647588558	5
7	8798	942420.342667583978	4
7	8807	943316.958416950114	3
7	8812	943701.043295409973	2
7	8824	945150.393000689689	1
7	8838	946257.267944563426	2
7	8841	947510.486864624767	1
7	8852	951897.115925051146	0
7	8867	954072.264754547733	1
7	8875	954238.920774562392	2
7	8884	955218.941445602855	3
7	8886	955418.599777741921	2
7	8894	955867.196608037925	1
7	8903	956704.526334997318	0
7	8917	957976.478712831495	1
7	8926	958807.857600766236	2
7	8933	959858.688794817192	1
7	8938	960490.155391859949	2
7	8945	960852.620205378648	1
7	8959	961383.414502583415	2
7	8961	961451.135591356709	1
7	8975	961574.582295384909	2
7	8978	962073.258839195441	1
7	8986	962697.128606666619	0
7	9006	966843.648198328135	1
7	9013	968443.621105173416	0
7	9021	969093.571886730535	1
7	9026	969353.335527278199	2
7	9030	969459.687972333286	1
7	9037	969793.380962257687	2
7	9041	970061.359477775606	1
7	9045	970773.781329502743	0
7	9050	972030.950421402465	1
7	9067	973988.070567288734	2
7	9071	973993.140762338667	1
7	9075	974156.209745734783	2
7	9099	977201.504194691949	1
7	9104	977370.573227703217	0
7	9121	978007.148064946496	1
7	9123	978089.375259281047	0
7	9138	979659.218564309056	1
7	9140	980254.479489503608	0
7	9158	981548.178529440021	1
7	9165	982023.548452578392	0
7	9173	983328.534437531838	1
7	9177	983335.49141889637	0
7	9182	984008.346269921583	1
7	9186	984368.169383128297	0
7	9201	988387.817382352166	1
7	9206	988607.45493299066	2
7	9215	990065.651353875828	3
7	9220	990178.76817326458	4
7	9225	990642.683918399713	5
7	9240	990955.674920514264	4
7	9251	991072.719394284802	3
7	9254	991544.448575522657	2
7	9257	992282.352570346929	1
7	9262	992993.940089453699	2
7	9269	994139.534115299412	1
7	9278	995746.329916759606	0
7	9282	995912.862285911904	1
7	9307	997468.324926753908	0
7	9328	998548.662722271596	1
7	9332	998695.724107636558	0
7	9336	998724.478644743631	1
7	9343	998902.139678226294	0
7	9360	1004190.181164603962	1
7	9369	1006416.947523039604	0
7	9373	1006462.587707500304	1
7	9380	1006800.856873812066	0
7	9398	1013644.743354455641	1
7	9406	1014098.363847263974	2
7	9415	1016196.711247578348	3
7	9422	1016469.154552142742	2
7	9426	1017629.352355756726	1
7	9433	1018077.074129934468	2
7	9438	1018180.511542813249	3
7	9457	1018556.299564120797	4
7	9464	1019968.88037805242	3
7	9468	1020076.085563685553	2
7	9471	1021631.616123282945	1
7	9476	1021733.986322442499	2
7	9493	1022286.78028163563	1
7	9496	1022389.484040294741	0
7	9500	1023048.677902681822	1
7	9518	1023570.787932162963	0
7	9538	1029041.537611694186	1
7	9542	1029404.590112143947	0
7	9546	1029459.389026613131	1
7	9553	1030171.863179573884	0
7	9572	1033275.593326524185	1
7	9576	1033543.039089028645	0
7	9582	1035508.557139072577	1
7	9595	1036275.949263200088	2
