version 2
run ParkingMeasurement-14-20170108-17:28:46-4808
attr configname ParkingMeasurement
attr datetime 20170108-17:28:46
attr experiment ParkingMeasurement
attr inifile parkingStudy.ini
attr iterationvars ""
attr iterationvars2 $repetition=14
attr measurement ""
attr network controltower.SimNetwork
attr processid 4808
attr repetition 14
attr replication #14
attr resultdir results
attr runnumber 14
attr seedset 14
param SimNetwork.a.parkingLot.parkingDelay exponential(30min)
param SimNetwork.a.runway.landingTime exponential(15min)
param SimNetwork.a.runway.takeoffTime exponential(5min)
param SimNetwork.a.runway.throughputCheckInterval 28.571min
param SimNetwork.wg.interArrivalTime exponential(28.571min)

statistic SimNetwork.wg 	responseTime:stats
field count 507
field mean 10896.198051686
field stddev 8543.0762778376
field sum 5524372.4122049
field sqrsum 97124636972.866
field min 863.76423464926
field max 45877.380329198
attr source  responseTimeSignal
scalar SimNetwork.a.landingQueue 	queueLength:timeavg 	0.78987965494747
attr source  queueLengthSignal
statistic SimNetwork.a.landingQueue 	queueLength:stats
field count 1016
field mean 1.246062992126
field stddev 1.479743105107
field sum 1266
field sqrsum 3800
field min 0
field max 8
attr source  queueLengthSignal
statistic SimNetwork.a.landingQueue 	queueTime:stats
field count 508
field mean 1378.053285353
field stddev 2075.5947950999
field sum 700051.0689593
field sqrsum 3148911208.4912
field min 0
field max 10702.202514253
attr source  queueTimeSignal
scalar SimNetwork.a.takeoffQueue 	queueLength:timeavg 	2.6599727773097
attr source  queueLengthSignal
statistic SimNetwork.a.takeoffQueue 	queueLength:stats
field count 1014
field mean 3.6222879684418
field stddev 5.1048567057356
field sum 3673
field sqrsum 39703
field min 0
field max 28
attr source  queueLengthSignal
statistic SimNetwork.a.takeoffQueue 	queueTime:stats
field count 507
field mean 4647.0602108473
field stddev 7189.9640945959
field sum 2356059.5268996
field sqrsum 37106715824.722
field min 0
field max 37563.810756909
attr source  queueTimeSignal
scalar SimNetwork.a.parkingLot 	parkingOccupancy:timeavg 	1.0639589948007
attr source  parkingOccupancy
statistic SimNetwork.a.parkingLot 	parkingOccupancy:stats
field count 1015
field mean 1.5339901477833
field stddev 1.1540928539267
field sum 1557
field sqrsum 3739
field min 0
field max 7
attr source  parkingOccupancy
