version 2
run ParkingMeasurement-103-20170108-17:29:14-4967
attr configname ParkingMeasurement
attr datetime 20170108-17:29:14
attr experiment ParkingMeasurement
attr inifile parkingStudy.ini
attr iterationvars ""
attr iterationvars2 $repetition=103
attr measurement ""
attr network controltower.SimNetwork
attr processid 4967
attr repetition 103
attr replication #103
attr resultdir results
attr runnumber 103
attr seedset 103
param SimNetwork.a.parkingLot.parkingDelay exponential(30min)
param SimNetwork.a.runway.landingTime exponential(15min)
param SimNetwork.a.runway.takeoffTime exponential(5min)
param SimNetwork.a.runway.throughputCheckInterval 28.571min
param SimNetwork.wg.interArrivalTime exponential(28.571min)

vector 5  SimNetwork.a.runway  landedThroughput:vector  ETV
attr source  landedThroughputSignal
vector 6  SimNetwork.a.runway  tookoffThroughput:vector  ETV
attr source  tookoffThroughputSignal
vector 7  SimNetwork.a.parkingLot  parkingOccupancy:vector  ETV
attr source  parkingOccupancy
vector 2  SimNetwork.a.landingQueue  queueLength:vector  ETV
attr source  queueLengthSignal
vector 1  SimNetwork.a.landingQueue  queueTime:vector  ETV
attr source  queueTimeSignal
vector 4  SimNetwork.a.takeoffQueue  queueLength:vector  ETV
attr source  queueLengthSignal
vector 3  SimNetwork.a.takeoffQueue  queueTime:vector  ETV
attr source  queueTimeSignal
vector 0  SimNetwork.wg  responseTime:vector  ETV
attr source  responseTimeSignal
0	1347	151923.107001360781	10866.678004718
0	1360	152122.025808913029	7936.326136305
0	1365	152170.886768688255	6474.6377974584
0	1371	152594.163749448494	7958.828138789
0	1376	152627.691084710329	5990.8946296135
0	1384	153028.970525580055	6511.3165009154
0	1395	153284.405749045479	5521.7013608134
0	1412	155684.098141661269	7526.6725054651
0	1437	156978.79090317505	5083.2262690651
0	1442	157124.652852769845	3933.45355605
0	1480	161306.342478120239	5908.8205594487
0	1485	161500.470644292072	4033.6620861759
0	1493	161599.963745149864	3306.5980365496
0	1522	164639.526409009891	8942.9345010293
0	1527	164785.408999507621	4967.0310774301
0	1535	165819.828693149944	3223.7988711445
0	1560	167395.562388482112	4413.1632234977
0	1568	167951.893528826239	1806.4764381643
0	1594	170824.686699264647	4511.9697266834
0	1602	171208.335403234258	3053.1974786555
0	1772	189501.143454949776	19528.091161527
0	1827	195640.189657027706	24105.111276732
0	1832	195774.558754669911	21329.54234002
0	1837	195788.155674025517	18898.683503908
0	1842	195789.383247254071	19453.101224816
0	1847	195804.97025877919	22225.989788337
0	1858	196197.302956551373	18984.693816529
0	1883	197372.034195451459	19487.708312083
0	1888	197608.811646102598	17171.537720773
0	1893	197761.54749329166	19172.991504098
0	1901	197955.24692525672	15353.544696775
0	1909	198444.200223339241	21158.832356571
0	1917	198798.865480426389	15723.800718981
0	1928	200035.88575008291	13981.307118208
0	1933	200168.502946342674	15594.021889349
0	1938	200327.268762164361	10163.881515662
0	1949	200524.078291407724	9767.6702710292
0	1981	204649.301620267749	15361.52399867
0	1986	204650.612281595859	13661.237048322
0	1991	204667.593450796127	8580.7425577031
0	1999	204872.25384793552	13135.071016441
0	2004	205448.713929207187	8723.8034432342
0	2009	205634.9084336015	6841.9884844313
0	2015	205744.907610687351	5290.1419890096
0	2023	205970.364534635071	5493.2747329263
0	2041	209553.401354814902	7856.3266408104
0	2067	213574.500269955244	5241.9981411652
0	2084	215351.3748281119	3306.3661100568
0	2147	221037.729729401372	9939.1559814726
0	2156	221822.746799049457	5902.4236026732
0	2169	222056.502818793187	5265.0871199839
0	2174	222083.041197026473	7525.1541062085
0	2179	222602.927927883624	6649.8894218254
0	2185	222855.961810164169	4838.4079738927
0	2193	223346.940723955794	4819.9342230835
0	2219	227365.875789610954	6246.895315395
0	2298	232596.952083408439	8560.8357711872
0	2303	232620.429701451675	3956.0120155192
0	2311	232745.194526140034	8322.1073836912
0	2320	233185.247715970328	1599.4874378535
0	2355	237161.57470281322	7037.9678424116
0	2365	237590.778125254083	7749.9589386432
0	2373	237665.860003795142	8613.6190839529
0	2378	238001.871048529405	10289.25775777
0	2387	238669.679695590912	5890.2611889603
0	2397	239741.650660881554	7840.1154684282
0	2402	239940.361066976217	6111.0387764053
0	2414	240947.043708332277	5629.9503326619
0	2428	242205.131346610168	3729.431037165
0	2493	250730.080204273408	4144.0273299437
0	2590	262698.434466356427	21775.812043829
0	2605	263471.65969112482	18636.971198909
0	2613	263836.933883048147	17149.766379633
0	2619	264061.311148140997	17271.008344057
0	2630	264577.357811387328	16184.907461282
0	2643	264971.760743714171	14352.793284678
0	2648	265010.739139300463	13942.597232131
0	2653	265203.509831956347	14542.784615924
0	2658	265241.752569664833	13569.928879047
0	2663	265351.135183594266	5879.9263617957
0	2668	265587.065935521552	4322.8967044636
0	2674	265862.696408928971	13437.393026099
0	2699	266981.69425125772	4724.654858175
0	2713	267637.378624688104	3458.6436789826
0	2730	269193.679543290801	6628.1304887348
0	2740	269570.884867691963	13856.824305068
0	2748	270058.878790288557	2673.6244521075
0	2756	270547.368888124444	4601.5311865936
0	2777	274009.945123025951	7509.8888166052
0	2783	274628.097299020311	5535.88346189
0	2818	280275.463837950561	2340.7818934155
0	2829	280796.402912270305	9037.2604343021
0	2844	284014.063333862909	7844.750552246
0	2852	284224.921658068534	5585.4983081305
0	2869	285834.878421581535	5179.4072019837
0	2886	286904.66749979236	2061.6045595984
0	2939	294533.23344536815	8311.4370392163
0	2961	295938.800870639901	7363.5777465602
0	2966	296053.129308979528	7036.9849099225
0	2971	296238.12151821578	5362.0964111092
0	2988	297182.412443389508	2020.0366778149
0	2997	298471.011968019905	4153.8590991344
0	3006	300762.817152874136	11297.691565853
0	3023	302590.110538236533	6112.2310799257
0	3060	310577.69884507656	9660.5703615377
0	3071	311596.628787153334	6777.0683659473
0	3088	312369.233333198385	6468.1920466139
0	3123	318274.703896694746	13648.997432883
0	3138	319250.061726391532	7660.3448337457
0	3478	351802.749010311883	39707.667951977
0	3483	351887.017710452556	34903.314718373
0	3488	352023.204945444801	32635.176126754
0	3493	352175.847672978856	33284.075657722
0	3498	353132.248658007848	34336.132320321
0	3504	353152.590576889779	33774.918965553
0	3509	353246.619913111533	31826.414004091
0	3517	353448.759817525453	33179.033322702
0	3586	360297.727859178035	38334.804876243
0	3591	360338.5391652443	46485.680367431
0	3596	360345.395259154043	37469.52434733
0	3601	360502.536540633592	37226.434863045
0	3606	360638.08819305202	35690.891500494
0	3617	361257.665123723002	40003.701480649
0	3631	362897.490251143557	37574.734145391
0	3636	363286.771728052967	35138.382413429
0	3642	363531.647953934622	35180.363805557
0	3647	363537.791414246263	32433.865285316
0	3652	364022.615414524294	30668.219360303
0	3657	364158.803235489059	32271.980803827
0	3662	364192.59578923774	25721.247104247
0	3667	364310.298953687554	28585.997938937
0	3672	364310.892730860667	30615.494850375
0	3677	364343.312503117293	27319.864073733
0	3682	364857.997805494669	20792.837285934
0	3688	365529.191897459105	22551.685741802
0	3693	365788.166178221747	21101.217629227
0	3698	366073.165403182793	23923.321890388
0	3703	366161.870277560665	25379.353707374
0	3708	366293.404716883378	21604.989672495
0	3713	366831.324146427633	21291.05302881
0	3719	366946.439615898959	13486.942541319
0	3724	367550.815310963612	19161.057019204
0	3729	367717.274240365146	14286.241513368
0	3734	367774.387044739974	13674.233815298
0	3739	367840.93464961855	12722.428801361
0	3744	367854.273573629066	11771.972962741
0	3749	368057.569447727535	11719.710941944
0	3766	369439.157539616715	8642.9836137904
0	3784	372390.24080619178	4234.8432546723
0	3819	377305.27690870614	6877.0264136542
0	3827	378141.472919690932	4781.4989340397
0	3837	380853.199928294599	7418.0676717907
0	4054	402397.857735361732	26909.013926262
0	4062	402481.942378322992	20362.028607463
0	4071	403283.535603344253	21422.765805717
0	4076	403315.168368893091	20650.015130552
0	4081	403558.235021878483	20070.689064852
0	4086	403707.988993065859	19986.425710418
0	4091	403896.429160451562	16828.169281456
0	4096	403924.77653012098	17874.204654468
0	4101	404262.069603731307	16799.71378458
0	4110	405086.606795090722	17454.378770218
0	4115	405582.213826211271	16343.657508028
0	4123	406243.926540891412	15620.675315538
0	4134	407698.919777057801	14864.5319756
0	4139	407957.671862594153	15159.3131013
0	4145	408393.854505323595	16966.879857344
0	4153	408845.795405793818	10356.248886681
0	4158	408960.02940212965	14650.88563897
0	4169	409308.151005963986	12755.699745712
0	4237	418967.402171662269	18947.689945476
0	4242	419076.805280546982	18611.634633641
0	4247	419619.615303391982	13842.550147516
0	4256	420112.786547845039	11004.039780638
0	4261	420701.648364522712	11587.750853843
0	4266	420872.386831205367	11269.388071948
0	4275	422289.399724534016	7806.7301781095
0	4305	424057.225766066104	14359.493953288
0	4310	424097.884479438003	1244.0875660968
0	4319	425375.047761449764	7251.8226785152
0	4328	428226.652840275039	6729.7220812234
0	4404	436324.337097890726	5829.6419651423
0	4409	436636.374905809759	13359.591141457
0	4418	437212.943161860318	5129.1920364785
0	4434	438414.67578116696	6445.680727476
0	4445	439477.607164237937	8832.1828564747
0	4453	440348.560871810787	7871.6324521899
0	4459	440937.643562472787	7336.4921317494
0	4464	441242.576091658845	4091.4935960062
0	4482	444891.625177916412	6768.8793673857
0	4516	448780.9165974701	4841.5826069995
0	4524	449015.984981718936	3737.2654874109
0	4536	449577.281516107974	3774.9997461988
0	4662	460763.40215843885	11263.41401455
0	4672	461052.078656055335	13955.553683303
0	4681	461340.426867498141	10987.13110777
0	4686	461760.351195507836	10447.338916924
0	4697	462105.69414598571	10749.800423191
0	4737	465485.832364651819	11906.112870747
0	4756	467018.117860246433	15603.532178504
0	4761	467195.781615462963	12014.104383976
0	4766	467335.380319195849	11230.937729656
0	4771	467380.658890355159	12772.627121228
0	4782	467810.34633464219	11138.921749571
0	5332	514961.12384736712	54346.4130709
0	5340	515141.62148798912	55472.769357161
0	5345	515527.911749969505	53611.207025116
0	5350	515552.944509501386	50397.345315402
0	5355	515722.981990163631	52825.804223572
0	5360	515762.424506826245	51644.112766352
0	5365	515934.556914549415	47374.985093048
0	5371	516011.621956403965	50201.216141209
0	5376	516821.797238123603	49272.059835873
0	5381	516825.902860435187	48091.331915436
0	5386	516929.28577538672	48338.676123178
0	5391	517081.340968842208	47232.631025838
0	5396	517144.436377329802	46062.459019946
0	5401	517295.081406984492	45101.363348323
0	5409	517535.073381097312	45288.414231622
0	5431	519342.61326454813	46692.188283065
0	5437	519662.763755242232	47083.765855231
0	5445	519852.257373711531	47224.756679065
0	5453	520075.344688178727	45758.650212531
0	5467	521634.653311485356	44268.944528822
0	5480	522269.193105192763	46819.869794732
0	5488	522617.875217936763	45748.41266843
0	5493	522691.343464805362	43402.029816814
0	5498	522741.06544480089	42950.884930374
0	5503	522809.921075528264	43949.339468048
0	5509	523063.576690691197	43173.163160804
0	5514	523077.14726268278	40663.337754859
0	5519	523409.240478711876	41204.554153351
0	5525	524971.358198382241	42510.355192924
0	5530	525096.996052615636	41299.65829427
0	5538	525436.902690085417	38920.96990001
0	5549	526784.495376650815	40003.013710716
0	5554	527202.411396323104	43679.48932252
0	5559	527321.860586740409	42314.702314924
0	5564	527461.274542396255	38125.198044339
0	5569	527765.717300837593	37898.984028281
0	5574	527868.871079613921	38240.632756813
0	5580	528162.569331473442	33656.350474393
0	5588	528542.672120311773	36903.600000677
0	5596	529656.154890395001	33359.691876169
0	5610	529851.229902444151	32112.857427983
0	5620	530270.328651342696	34164.472069713
0	5625	530538.164673359305	32947.338447537
0	5630	530874.098155533795	30546.057186542
0	5635	530904.726982632143	34944.175750708
0	5640	530924.511438681342	29128.962556356
0	5649	531837.915514583436	24099.510276007
0	5674	533294.993656981411	31833.262709873
0	5679	533312.439851320834	24721.046846295
0	5684	533605.652379122091	22959.01235233
0	5689	533662.102058866147	28555.284885649
0	5694	533695.837044561654	21645.77179499
0	5699	534076.945020134142	24217.441049057
0	5704	534087.493529452536	16783.34486604
0	5709	534366.578058630885	20685.836167405
0	5714	534743.233349166418	14815.922797203
0	5719	534782.168741153332	17068.451072133
0	5725	534905.289591058554	13407.346583391
0	5730	534916.005770940385	5984.6416211722
0	5735	534920.707169277641	5097.0515729791
0	5755	537118.980738152093	11969.554214687
0	5763	537371.102716060735	5582.0542506552
0	5777	539021.977485736626	6437.1487267165
0	5849	546573.852745161679	9454.2775491002
0	5854	546792.244985073671	7047.6168465438
0	5860	546928.231814994679	10572.151935415
0	5865	547363.722747352014	6535.9263169758
0	5870	547443.317506061058	6189.7405511696
0	5878	547983.462187850878	5613.2557654649
0	5887	549631.116897105028	5771.3662063577
0	5960	557211.068603075673	12286.235412994
0	5965	557248.729981295664	5766.9563590375
0	5973	557519.091033609744	4730.2890094911
0	5983	558160.307148927808	7998.4050968055
0	5988	558282.260691091243	5366.9375751321
0	5997	559242.516735200365	5471.7881393965
0	6023	563001.447433639868	5485.393700054
0	6031	563549.473416488489	3209.4592944506
0	6041	566043.257275249177	11006.403940498
0	6059	570683.357146588519	8980.3113885813
0	6106	575997.2553052711	9084.8232155918
0	6111	576064.923696845691	3485.6041753894
0	6128	577550.973934866672	4910.0996889659
0	6215	587514.360455625159	13286.400356476
0	6224	588197.685367762521	13090.877162146
0	6229	589347.987766321662	12646.79199995
0	6234	589620.184976426265	12382.540132449
0	6239	589678.303162828688	10274.053653201
0	6245	589817.144442070207	7285.928656693
0	6250	590535.90843839316	8227.3599693664
0	6255	590874.491258048979	6539.9769312063
0	6265	593625.040277630576	13161.187760327
0	6401	607863.376025362923	23465.060553414
0	6406	607935.048538297343	10801.522283676
0	6411	608076.073613460548	11817.560416746
0	6419	608338.82726558154	10965.003651933
0	6431	609068.037682158722	14806.528547607
0	6441	609926.177672232307	12487.091887143
0	6450	610311.728748848695	12175.35931265
0	6455	610352.915388635822	12347.487761337
0	6460	610534.517639393588	11717.747772709
0	6465	610559.08614535178	10431.43298268
0	6470	610988.724854454304	6147.7015684352
0	6475	611037.486157498338	10484.054553295
0	6500	613542.705619104195	6958.7658492183
0	6521	615824.922649877418	4392.2671693873
0	6534	616210.911094966779	7239.6951392017
0	6667	628226.928304160353	12973.303515578
0	6672	628391.595463738884	16469.195005131
0	6677	628585.117869140046	12827.610113382
0	6683	629241.13369624422	10035.848631367
0	6688	629242.142139806988	10689.698268081
0	6693	629583.063130424739	12637.711828712
0	6698	629832.98289307642	10008.117248198
0	6706	630021.096595051203	9794.5718171773
0	6711	630062.964750349035	8622.3073820209
0	6716	630437.920081331824	8953.3632980589
0	6721	630513.477402963572	7352.655709512
0	6730	631657.699639441239	9273.3369475721
0	6753	634673.109503593508	9152.579529492
0	6764	635140.614923740761	11679.442346472
0	6769	635182.435608509825	4219.4071640679
0	6812	640890.972343677794	3986.777897578
0	6827	641354.540646308255	7961.6499279471
0	6832	641402.935002228608	2340.9473473749
0	6837	641670.442041190581	2536.3303562838
0	6867	652005.867668338287	12648.03202269
0	6888	655325.830160787633	4699.0384552691
0	6893	655353.494038828019	11389.29119911
0	6969	671352.254981906885	18956.415774036
0	6974	671372.647460051482	7072.9368441212
0	6988	671974.458034859459	5973.3454921803
0	7002	672519.410635518463	2780.1071280002
0	7010	672621.465904098362	6781.9768229138
0	7015	672718.67531815118	5300.4451931497
0	7061	678210.838706730742	8189.5030161483
0	7067	679087.222316677487	10523.981603103
0	7078	680370.459960128367	7382.6415396187
0	7084	680588.263745069937	7175.2889116197
0	7092	681008.070208474006	9138.1992333616
0	7100	682218.513334628383	8305.9167375206
0	7127	686638.779934417388	3441.3429930072
0	7136	687578.283628829764	10837.684527777
0	7167	695893.587648919313	12309.917451187
0	7210	699559.884191739306	7623.0171135501
0	7218	699666.39207013841	5481.1181311763
0	7235	700305.052894134558	2288.7752308205
0	7251	701266.198797059554	3936.666591738
0	7259	702181.53814192922	6477.4357075019
0	7264	702470.763923902916	4018.7772893505
0	7273	703833.1537283146	3888.5415096929
0	7299	707410.442940406926	7422.1705049621
0	7307	707805.550503221509	2263.1732201601
0	7326	712982.850354079573	6262.3964664909
0	7374	716283.110482585296	4572.6107691048
0	7379	716285.149419847387	2955.1535889514
0	7388	716772.043845299827	2196.8840342102
0	7393	717213.479947072198	3051.1602833748
0	7431	722039.797151349082	7219.6054477633
0	7436	722172.317866543288	2675.6208260962
0	7454	726474.881306787853	5249.8990982373
0	7463	726866.898614034986	6371.2344257306
0	7525	736242.350669787298	13898.312558155
0	7534	737160.532850739957	5865.8244862348
0	7555	738745.650335846448	8557.7334649131
0	7561	738929.968395994805	7192.5063659972
0	7569	739239.48210778433	6739.1311644397
0	7574	739369.145107209571	4701.7093881575
0	7635	745750.588181821088	7883.4941927862
0	7640	745759.859522298084	9121.1166255964
0	7645	746438.492523953367	6878.7235780278
0	7650	746848.230354926385	7102.8891352534
0	7658	747070.113208525202	7403.2246592793
0	7676	750521.956855240382	10513.575920783
0	7684	750684.460052265856	10722.524954221
0	7752	760031.786434020078	10403.853461452
0	7760	760277.357072441557	7145.2778279874
0	7769	761741.350478325636	10697.50607938
0	7774	761827.779786661937	10025.38914981
0	7779	762613.831375671352	5227.791726157
0	7800	764870.1162918664	14137.235995344
0	7848	769098.812597754324	4855.377178287
0	7853	769426.884769135331	4528.472039739
0	7858	769680.299172188061	12251.541661991
0	7867	769827.632470623425	3870.1740571984
0	7880	771406.769629337269	6573.6054076265
0	7889	771490.625160404178	4548.7665866329
0	7937	781419.586687086728	11640.615216832
0	7942	781424.406956728989	7603.2456213289
0	8023	789526.420249163471	16754.605984901
0	8034	790266.022786300304	11937.104625276
0	8040	790456.496155792776	10095.102064509
0	8048	790984.088373126489	9492.0912617767
0	8053	791016.560652721814	8460.173328477
0	8062	792027.17822845821	9711.4872571584
0	8075	793344.616442583758	10943.526533678
0	8080	793407.277603004199	10996.222635579
0	8086	794008.337230122537	10313.127495949
0	8094	795231.068802184807	7520.7276657616
0	8123	803755.792765656436	11776.898986474
0	8175	808503.921859063597	7259.3247346362
0	8184	809138.147425339228	6693.4612846361
0	8189	809802.838585255622	4151.2842247902
0	8194	810231.245120452071	5989.3555189869
0	8203	812352.358627887735	6426.4193692155
0	8219	816408.826611273915	9043.6771015451
0	8260	826673.111424107899	14718.450303696
0	8265	826682.801469263845	3658.9046478783
0	8309	829601.971520339702	5547.5926307643
0	8318	830145.659079818245	3316.8881712345
0	8329	830716.276670799077	7424.6608651207
0	8345	831390.331525316493	4400.7816874925
0	8356	832197.587772092581	4605.1731761174
0	8373	834537.502615611254	4064.7525178805
0	8385	835191.218152360122	3874.4631825267
0	8390	835240.617714970563	7204.7775894238
0	8410	836667.219022390774	3333.7235485301
0	8424	839241.237919537881	3906.3874903645
0	8442	841736.030620827391	5077.1406993053
0	8462	844563.250602670172	4969.3889539975
0	8488	847270.834023805598	5078.5816915613
0	8511	850468.279499032613	3304.0956563426
0	8542	853685.184685410076	9354.2306295696
0	8548	854102.321728822368	8867.4285037136
0	8553	854194.218528947712	6193.3740090395
0	8570	856185.629215616092	5105.2977775398
0	8582	857885.304614869834	7067.2916271073
0	8612	860223.499966744326	2853.890699477
0	8622	862283.323548815898	3889.1126291484
0	8630	862805.915143587474	8519.2253336248
0	8655	864962.852935091527	5453.578336259
0	8683	866847.128071808713	3863.9084690026
0	8688	866854.624014395293	3955.6831036305
0	8697	868568.862752722753	3476.4751064829
0	8804	878999.335278001849	10122.99230629
0	8809	879193.103597908246	14078.140295798
0	8820	879340.694683557318	10410.495298214
0	8831	880251.570871204984	11004.69718545
0	8836	880475.905912470173	8152.9511323394
0	8844	880563.525128941266	6864.1500506403
0	8897	884262.682933653992	11105.463370357
0	8902	884455.559546160816	8847.6466233625
0	8908	884574.57580519463	7985.1829143253
0	8913	884579.943208413923	7493.3667047305
0	8918	884727.398635414891	4223.1346734
0	8926	884999.472631469817	5795.2200188224
0	8931	885554.932884994364	4677.5136509008
0	8966	888298.130362989398	6491.8180497046
0	8971	888318.552954199646	5320.9258977316
0	8976	889364.460231532695	6176.355710125
0	8981	889422.565068691149	3350.0243670212
0	8998	890735.26226539866	3837.8775148991
0	9027	893381.012080702888	3454.2598194456
0	9032	893394.214666654444	1729.5534868234
0	9049	895742.370490529551	3646.4541835902
0	9133	903896.135771275896	9602.4451961207
0	9146	904124.370650505975	7910.5532261152
0	9151	904532.777864476631	7949.307585022
0	9156	904863.432843297298	2810.5583935086
0	9161	905031.528279178032	6640.2486481223
0	9167	905155.936965444367	2178.9879634601
0	9175	905911.032025765495	7032.5912443479
0	9184	907695.234261538132	4959.7645402394
0	9213	910690.957581431938	1932.1093732175
0	9218	910836.928312115298	6960.730489999
0	9244	914505.320712833728	5467.728279417
0	9265	917516.98934549708	5361.5411895325
0	9279	920373.768643671641	7979.4477486445
0	9309	924564.775922746974	9453.5837651588
0	9317	924633.519312066331	7929.4852322606
0	9325	924901.548123714295	2919.6812123911
0	9338	925388.367099885566	1653.7213308868
0	9355	926990.883566848327	2126.9584895394
0	9384	929262.541529126695	3555.4116755781
0	9417	932036.174290572047	2693.5549246336
0	9422	932043.030519620022	3862.5660706379
0	9431	932865.827042154158	3760.5951124396
0	9450	934101.182385557765	7098.0262109121
0	9455	934152.646769101189	4720.1151893814
0	9487	941138.637766411648	1759.2587374709
0	9501	943982.390977947187	10679.438194167
0	9510	945852.845008942569	5859.7932028123
0	9548	951259.626375301812	2146.6240025766
0	9554	951569.638630001509	10452.415133957
0	9564	954953.786581626434	7480.2732836095
0	9601	959528.422863449404	3198.0207253936
0	9607	960409.560506985286	3572.9001304197
0	9769	975614.442825903323	25086.768079437
0	9774	975638.042907535988	18084.345728064
0	9779	976464.989342621699	15734.852868626
0	9787	976899.225939738566	16294.854067638
0	9796	977159.446950480109	13503.830460656
0	9801	977332.814776182221	14066.377246689
0	9812	977720.744335828245	15338.295351104
0	9842	980067.295706894086	14947.466418237
0	9847	980351.708574623525	15163.505843892
0	9859	980883.058595315195	12285.459847027
0	9912	987795.065215350244	24933.505712825
0	9933	989002.803868284381	20236.558293131
0	9939	989280.574094273701	17797.273908016
0	9947	989837.483572413243	19095.418808033
0	9952	990385.905883803822	21055.203050425
0	9957	990652.822697122867	16029.85666251
0	9966	991099.258362661295	12859.687918262
0	9986	992612.602132496925	15198.757162763
0	10005	994875.018897204979	14224.081132673
0	10010	995039.445963995511	16409.43976668
0	10015	995132.166409066108	13908.166873681
0	10020	995164.519398875546	9743.141868034
0	10025	995580.324482267121	7849.3665168868
0	10030	995696.582439163611	12172.795189755
0	10035	995840.465676966925	7996.1667135245
0	10046	995938.818441246191	4878.1480847733
0	10052	995998.779824874898	3397.6861798049
0	10070	999868.078526197599	7250.3264437068
0	10229	1015561.885691734027	14922.893246938
0	10234	1016119.917587104922	14878.813913193
0	10239	1016279.497233305654	17445.832068013
0	10244	1016290.352152298966	16232.776871186
0	10249	1016374.945672762369	14535.491330875
0	10255	1016603.295136874007	13152.336541767
0	10260	1016872.691668924235	13121.833332821
0	10265	1017068.826881665835	13411.729933933
0	10270	1017178.639641966506	10038.191726416
0	10275	1017188.896886407241	7212.8143119536
0	10286	1017424.425773001862	6989.4665978506
0	10299	1018126.535471390325	6622.1996355674
0	10304	1018158.425893651853	6969.2590174893
0	10313	1018533.856589149345	6562.2662046829
0	10341	1020701.05969474168	3372.9448951087
0	10358	1021848.127493064881	2777.6905669835
0	10366	1022043.090656078901	7338.9074774564
0	10371	1022065.073781995867	2182.6872095287
0	10406	1028374.401321557942	4512.694707026
0	10415	1029422.783353784815	8763.7334305603
0	10424	1030379.331864536662	6494.3513950632
0	10449	1032148.28730315808	1603.9958408727
1	1325	151688.818972725039	3926.114584493
1	1330	151692.067750776453	3534.6421145803
1	1349	151923.107001360781	27.542367250838
1	1397	153284.405749045479	93.206452325634
1	1414	155684.098141661269	286.5762229897
1	1425	155924.381695804385	227.78978782378
1	1447	157466.808558116181	0
1	1463	160359.478306459601	2066.1125978594
1	1468	160580.755681394985	762.37775931744
1	1498	162596.029822005465	0
1	1510	163636.925319737691	654.52615475328
1	1540	166145.417090661905	0
1	1549	166346.977090379055	34.260117797826
1	1574	168155.13792457879	0
1	1583	169973.052293422768	0
1	1608	171535.078380295691	0
1	1617	173578.980470441781	0
1	1629	175924.285139145178	1479.2687244958
1	1641	177098.590199911509	762.30817747304
1	1662	179308.503066366043	2419.030896249
1	1667	179432.453032508115	2219.8438924859
1	1672	179889.488104749625	2604.1202379816
1	1684	180876.150907130119	2991.8250237619
1	1702	182785.379714683832	4196.8237254905
1	1707	182881.970160563539	2444.6962352335
1	1719	183764.728125783695	1163.0258973016
1	1724	183819.577597627329	744.51283618215
1	1741	184659.085625835964	84.60456884276
1	1757	188148.374519423461	2093.7958875487
1	1774	189501.143454949776	213.36583335228
1	1793	192199.624510098391	2036.2372635957
1	1805	194123.786036913923	3367.3780165354
1	1810	194399.872909205748	3410.4976759315
1	1815	194585.452420317149	2848.2695888227
1	1860	196197.302956551373	110.45206345831
1	1874	197065.452702477107	340.54221650409
1	1919	198798.865480426389	5.945531256205
1	1951	200524.078291407724	69.31266972994
1	1964	202534.687360546062	2057.5975588373
1	1973	204059.996493376434	2362.9217793719
1	2029	208332.502128790007	0
1	2047	211098.573747928788	0
1	2056	212931.627324417572	886.61860636246
1	2073	214557.887090817978	0
1	2089	215920.323196376281	0
1	2098	216373.604097129822	420.56559107162
1	2113	218287.533897470986	1496.1181986617
1	2121	219059.373529676749	1041.8196934053
1	2129	219291.665131536549	764.65863066429
1	2158	221822.746799049457	703.76632483352
1	2198	224036.116312221219	0
1	2208	226297.502407112921	1874.4152646641
1	2224	227712.613290758969	0
1	2236	228919.223293901714	254.80560796922
1	2251	230279.898569068404	1227.6576492262
1	2256	230329.23473703438	488.41555042349
1	2265	231795.674620576733	1672.0677601751
1	2279	232281.225414145162	695.46513602833
1	2284	232348.532312934518	446.99712048114
1	2322	233185.247715970328	405.8292093397
1	2333	233903.43387653693	74.111585966002
1	2357	237161.57470281322	1844.4813271429
1	2389	238669.679695590912	193.97938614573
1	2416	240947.043708332277	24.421285804585
1	2434	244834.68849221569	0
1	2443	246586.052874329754	0
1	2451	246687.16750341504	0
1	2460	247365.379908958046	575.07710487449
1	2478	250179.721489444063	1787.2711393384
1	2495	250730.080204273408	111.11274523687
1	2503	251330.706558957186	669.9813429252
1	2523	255451.168490139848	4383.02658297
1	2538	257578.715517412381	5906.8918267944
1	2543	257581.064294608952	5155.7609117793
1	2548	257995.32918460677	2281.2686219827
1	2563	260321.903239430349	850.6944176318
1	2572	261989.198452118705	725.02922106071
1	2592	262698.434466356427	441.3950732737
1	2597	263112.549228243371	547.00017368735
1	2632	264577.357811387328	398.62286568181
1	2679	265945.837701530847	0
1	2701	266981.69425125772	481.63794483694
1	2715	267637.378624688104	252.12428650707
1	2732	269193.679543290801	101.46570616047
1	2762	271759.142477968181	0
1	2789	276169.312781616937	0
1	2798	277953.583459437949	18.901514902859
1	2807	279583.652883660328	944.22953372231
1	2831	280796.402912270305	140.93169267249
1	2858	284843.062940193968	0
1	2874	286221.796406151805	0
1	2892	288575.223124079741	0
1	2900	289016.144399057061	0
1	2908	289465.125587020843	0
1	2921	291814.475180185151	938.45007307855
1	2941	294533.23344536815	216.08057648261
1	2950	295304.798867213744	142.42310163911
1	2976	296477.87945831084	0
1	3011	300917.128483538882	0
1	3029	304625.706463811428	0
1	3038	305210.194741994402	390.63432078842
1	3050	308411.499566666313	2510.4582800818
1	3073	311596.628787153334	6.911894507535
1	3090	312369.233333198385	274.15227486354
1	3102	314054.482288735506	201.6234909219
1	3114	317021.451342668853	37.748350589215
1	3140	319250.061726391532	453.94538870456
1	3151	319607.157859092402	715.38584383551
1	3169	321683.572838427607	2305.9012270907
1	3174	321717.191423117959	2329.1626044276
1	3186	323207.413804647959	2937.6873098244
1	3194	323754.79451811544	2500.8308750415
1	3206	324563.425503553132	3143.2195945322
1	3217	325343.275730798453	3380.3527478638
1	3228	325504.43518934527	2628.564277521
1	3237	325998.49481966643	2722.3931420781
1	3259	329326.104043309495	4378.9073507511
1	3264	329393.240368975731	4070.4842632234
1	3272	329849.219253901525	1700.8299392775
1	3287	331105.302220180733	2754.0180718028
1	3298	332525.632998457422	1421.7068695271
1	3321	336108.622232409708	4221.7998007477
1	3336	338504.838796455806	5150.4427422349
1	3345	340527.777510500352	6832.3796300147
1	3354	341372.382945706406	5648.0819309558
1	3359	341722.514218520117	4699.0657891362
1	3377	343502.790322159511	5031.4416371688
1	3382	343583.562717567864	2801.0461473815
1	3387	343644.005621761831	1494.1621089668
1	3405	344873.665810041652	1896.1596543842
1	3422	346188.767084273832	2123.6065647134
1	3428	346843.839599574675	2156.8910505798
1	3433	347512.731457489593	2824.3164131012
1	3445	348490.418892212822	2950.1477745953
1	3459	349333.09850982124	943.34021806176
1	3519	353448.759817525453	17.727090528568
1	3530	354222.978598540395	763.48152396036
1	3535	354242.48940395124	142.33617450881
1	3544	355807.24102754572	688.73517928857
1	3559	357079.141541393733	996.84093050534
1	3564	357122.494877169172	784.63637138561
1	3619	361257.665123723002	461.4911978967
1	3754	368155.397551519507	0
1	3772	370428.250495051933	0
1	3789	373359.973985651253	0
1	3798	374086.622413382398	651.49015687846
1	3807	375488.843809099771	0
1	3842	381860.769797627663	0
1	3854	383360.255037155086	1240.3412662956
1	3866	384084.199043577926	1419.0458052366
1	3874	384926.598933335035	1439.0529763085
1	3879	385087.034271806127	1365.4709891581
1	3897	387024.799516037688	974.22764038472
1	3915	387820.440206033702	752.18032703818
1	3920	388984.430491375585	1522.0746722248
1	3932	390405.256293833234	2773.0282689609
1	3950	392447.85027155589	3209.2939533729
1	3965	393009.586832575375	2386.3356072216
1	3974	394481.26922779449	3054.2945798153
1	3982	395644.263647910137	2845.9048866155
1	3997	397253.573717162654	4419.1859157045
1	4003	397924.747803057818	3615.6040398981
1	4008	397967.784903292897	1415.3336430405
1	4025	398959.287062218781	469.74054310562
1	4037	400633.063117849972	613.35089166339
1	4043	401411.716950179109	946.54630327284
1	4125	406243.926540891412	466.86138501496
1	4171	409308.151005963986	199.40423875736
1	4183	410261.667672871677	1147.7701621924
1	4192	413076.73292031743	3473.7341610599
1	4201	414266.855994800443	4569.1241820219
1	4213	414871.317441475739	388.64789505123
1	4225	418162.44974763396	39.224664699418
1	4277	422289.399724534016	792.46896548238
1	4285	422913.259343556662	59.462430215447
1	4293	423316.26084547514	39.477081122116
1	4335	430494.695132748424	0
1	4343	431102.674783254267	457.25047549104
1	4351	431968.99505369099	0
1	4369	433610.887662016494	1527.1365366347
1	4378	433907.276886286742	1430.3484666658
1	4383	434467.07270792159	865.92127719824
1	4420	437212.943161860318	61.860666207641
1	4436	438414.67578116696	291.92997063626
1	4470	443939.333990470566	0
1	4487	445278.719494308073	0
1	4496	445802.281769909196	0
1	4505	447815.689167066815	719.16419431473
1	4538	449577.281516107974	77.293372218884
1	4546	450647.976187717818	294.68042798975
1	4561	451455.402232054248	142.38995347063
1	4572	452548.943842936238	1193.0501201414
1	4585	454391.385033808424	2976.7993520659
1	4606	456802.382486987964	3222.662993083
1	4611	457605.14454805276	2997.1127789252
1	4617	457779.881479617905	2598.204248131
1	4622	458566.20505541127	2461.7624658717
1	4630	458726.025099710265	2054.6005146387
1	4645	460193.200639851681	524.34850902359
1	4664	460763.40215843885	148.6913819716
1	4699	462105.69414598571	188.98942113244
1	4708	463337.860361981324	440.68259539008
1	4722	464250.65052626283	132.33878578829
1	4739	465485.832364651819	330.23317055232
1	4748	466371.581355943568	561.17554074904
1	4784	467810.34633464219	260.60893239144
1	4805	469617.235113435037	1057.6632919341
1	4811	469746.910422628957	1156.3007704203
1	4816	469836.316689788582	1101.7457447898
1	4852	472903.691040652536	3054.9810976481
1	4857	472916.225121217757	1834.2477638341
1	4866	473745.532018856189	1551.8139601942
1	4871	473981.790900583272	1735.1317511077
1	4883	475955.325039262313	3376.3271392508
1	4901	476992.603216388528	4365.1025217422
1	4909	477391.669426530678	4741.2444450478
1	4921	479361.572900442923	5044.8784247956
1	4939	480198.757156689036	4749.4338462283
1	4950	481200.672279327552	4331.2097298208
1	4968	483123.341658100981	5757.6328754378
1	4973	483159.911523759501	4299.3299162791
1	4988	485047.225994332046	5757.9123463407
1	4996	485128.751740451476	5338.5712260251
1	5012	487220.799821614745	7330.3862917273
1	5024	488625.002802035236	6420.3164766744
1	5048	490307.698388662297	7893.8888808389
1	5059	491902.884814361248	9441.881808903
1	5065	492310.559064021278	8787.6369902185
1	5073	493433.9316004935	9636.593842148
1	5089	495718.609584967332	10711.451313151
1	5097	496100.66334288809	9584.7305528125
1	5112	497420.853926374756	10639.37226044
1	5123	497783.555999902984	8447.4795018457
1	5132	500221.703116006521	10593.464793205
1	5144	501058.876354514087	11192.143081958
1	5161	501975.244761792057	10336.172642157
1	5170	502857.33137550028	8351.1125184203
1	5178	503599.253609024751	7638.7023771007
1	5183	503709.930959975233	7604.0743783456
1	5192	504498.997760627856	8202.5347464015
1	5203	505677.671776052389	8086.8455502301
1	5212	506597.366536684794	8858.9940622238
1	5217	507155.140817077919	6827.0998480859
1	5226	508260.064241178958	6798.3332940702
1	5246	508968.22968027658	7172.6807979511
1	5265	511002.773176192855	5895.956002976
1	5270	511453.382863905066	3714.9776253286
1	5281	512222.27688844698	3630.883883421
1	5286	512483.383034767339	2623.8790636903
1	5295	512621.320885767105	1974.6808589755
1	5300	513277.714849923043	1227.6496003518
1	5314	513813.343993517994	132.60210229206
1	5411	517535.073381097312	230.92471768451
1	5420	519183.801205920702	1470.0835369003
1	5455	520075.344688178727	148.03413621568
1	5469	521634.653311485356	136.71030381761
1	5540	525436.902690085417	287.47616662061
1	5598	529656.154890395001	724.79074062683
1	5612	529851.229902444151	27.574306145631
1	5651	531837.915514583436	48.867049177857
1	5662	532958.213103118992	373.38434409885
1	5740	536356.079879579955	0
1	5765	537371.102716060735	251.52751999921
1	5782	539744.628138529885	0
1	5791	540827.796430376164	0
1	5799	541253.576954891419	0
1	5818	543765.188342396021	1394.98192001
1	5832	545075.54609359884	1215.7954028515
1	5841	545415.484838538868	490.6516484569
1	5892	550161.902052122329	0
1	5902	552755.107237105291	1273.3336148471
1	5920	553989.353076016075	1200.5510518975
1	5925	554167.592317617838	1252.2692016587
1	5933	554695.415480435626	924.68688463175
1	5944	555092.913928916261	56.060594165108
1	5975	557519.091033609744	3.037300023829
1	6002	560340.014122037933	0
1	6011	561743.214058165488	40.168300158274
1	6046	566912.432089679268	0
1	6066	572579.319521456304	0
1	6074	573060.354939250561	419.48069334984
1	6082	574260.324081676479	32.363982527597
1	6091	575124.180637166099	17.372431549777
1	6130	577550.973934866672	849.77816849492
1	6136	579188.789435553453	1951.1445915767
1	6145	579642.009951597278	237.76044196916
1	6157	581868.947517811845	1405.0950005078
1	6175	583923.206770521912	1614.6583014951
1	6180	584179.835930940683	1648.6201455635
1	6195	585330.551323019915	996.03699617721
1	6200	585596.483375589538	1198.1679036406
1	6270	594261.509134552157	0
1	6279	596258.513196714932	0
1	6288	597133.5262546217	0
1	6296	597386.708543733198	12.88493008488
1	6307	597626.333616779342	187.24783169006
1	6336	601956.483254304603	3951.055627006
1	6341	602408.77648715863	4272.4070509604
1	6356	603499.067239239924	4682.2973725551
1	6361	603682.290419175999	3554.6372565038
1	6366	603804.673049229206	3251.2414450254
1	6384	606171.894336014331	1330.8710499953
1	6393	607110.309013998109	526.36924411218
1	6433	609068.037682158722	96.821726393649
1	6480	611432.655480490088	0
1	6488	611922.400458607541	0
1	6506	615253.624788581856	0
1	6523	615824.922649877418	67.414894118945
1	6539	616945.351301712532	0
1	6555	619537.620007109764	985.17613538348
1	6580	622890.733446249586	3685.4483813722
1	6585	622975.886934918851	3151.0212900402
1	6596	623872.566388469662	3646.0416105957
1	6618	626745.65496418113	5304.997595853
1	6623	627134.796265387516	5650.2394821146
1	6628	627213.116999567936	4828.7543076988
1	6643	627604.768841804136	4443.9471483526
1	6651	627952.126879532371	4490.9543022636
1	6656	628109.620738733884	2589.0907646324
1	6732	631657.699639441239	694.6711949993
1	6741	633392.890718361164	0
1	6775	636904.194446099843	0
1	6784	639129.440776573338	67.453121719677
1	6796	639749.293725605044	615.18204069829
1	6801	639857.70897659828	499.87333095041
1	6843	643964.202839718274	0
1	6855	650626.791705518534	0
1	6872	652395.839207871132	0
1	6903	664299.710615930328	0
1	6912	665839.489081184604	0
1	6924	667166.323348141722	1165.2108054626
1	6939	669089.247951410607	1671.0178264091
1	6950	670203.705702060412	1640.4649884856
1	6956	670431.982038539554	692.67853102126
1	6961	670602.79471056071	581.45901997822
1	6990	671974.458034859459	104.58705974707
1	7020	672987.818420509701	0
1	7039	676105.342061630378	2692.3672281802
1	7048	677326.009331592431	3413.4127344846
1	7053	677407.032394068139	666.43329301515
1	7106	683197.436941410175	0
1	7115	685574.519320870827	1990.8491231384
1	7143	691936.867078189207	0
1	7152	694185.273938962103	0
1	7169	695893.587648919313	189.48521449203
1	7181	697567.443868683319	237.91166336173
1	7190	698173.742141067589	157.46447775357
1	7201	699365.481306174174	913.49467162176
1	7237	700305.052894134558	360.44067551288
1	7242	700535.173937614073	546.90150216929
1	7279	705542.377283061401	0
1	7288	706720.453887588713	0
1	7315	711710.499713480495	0
1	7332	713329.995830895998	0
1	7340	714162.319663697367	0
1	7351	714801.591796132727	226.43198504312
1	7363	715943.359228665004	1123.1675250793
1	7399	719496.697040447078	0
1	7408	720495.664188304432	0
1	7419	721467.253758541118	242.27154999058
1	7441	722344.038111632258	0
1	7469	730187.916870933362	0
1	7478	731294.708364505141	0
1	7493	733241.75118833555	1504.2891583379
1	7499	734206.991092687621	1706.640149343
1	7510	734949.704875689385	282.2691566373
1	7536	737160.532850739957	521.78995403828
1	7547	737893.282550897689	26.188561862824
1	7579	739559.768945925582	0
1	7597	741093.277747799538	1426.3891985536
1	7606	742429.223650590465	2683.8824309174
1	7611	743218.925256311788	3256.9901582664
1	7623	744610.529739835776	4602.1488053788
1	7665	749627.93297256772	0
1	7689	750732.880296522788	0
1	7702	752619.800247388046	1575.955848442
1	7722	758142.99430044364	6340.6036635913
1	7727	758361.571150597047	5229.4919061429
1	7732	758599.24807605383	1213.2084265395
1	7737	759056.169239121375	1627.4117289241
1	7785	764243.435419467353	0
1	7802	764870.1162918664	36.952070155598
1	7810	764952.6430290758	54.230299679488
1	7822	766301.383479820851	343.92506639587
1	7830	767242.663016103976	300.80444233269
1	7869	769827.632470623425	48.661000369086
1	7894	772771.814264262955	0
1	7903	773821.161335400121	0
1	7914	778328.918161023903	0
1	7923	781133.261424726389	771.8673334428
1	7947	781491.997111349831	0
1	7971	782987.152912695415	671.46194139556
1	7983	784811.244396951726	2410.1544880462
1	7993	787571.737337769434	5160.6823703439
1	8001	787972.463157173092	5416.0758329283
1	8006	788093.831737882827	4398.6220037089
1	8011	788558.163836534487	847.82270011132
1	8064	792027.17822845821	48.284449276005
1	8103	801244.597124427355	0
1	8112	802444.686140703082	0
1	8129	804241.88960146517	0
1	8144	806013.487288589256	361.93292812383
1	8156	807565.096911867376	1639.1576531951
1	8161	807578.780071611953	213.63056188316
1	8205	812352.358627887735	397.69750747613
1	8228	823023.896821385531	0
1	8239	824523.051188679479	1231.4353830011
1	8245	824844.697810791659	790.31892121628
1	8270	826828.770908583739	0
1	8278	827037.027505276252	47.477667452231
1	8289	827888.779999001394	296.3654030262
1	8301	829031.722679616869	995.88255407011
1	8331	830716.276670799077	243.52657306833
1	8347	831390.331525316493	73.576555483059
1	8362	833333.495473860675	0
1	8395	835334.850429173391	0
1	8412	836667.219022390774	8.329100868711
1	8429	839593.861648672628	0
1	8447	842192.252332244345	0
1	8464	844563.250602670172	232.29654682973
1	8473	845652.580703583245	417.6874784745
1	8490	847270.834023805598	106.65018111559
1	8498	848000.844519908233	0
1	8516	850818.012987762553	0
1	8531	853125.561136786296	2045.22969871
1	8558	854286.689809962699	0
1	8584	857885.304614869834	515.69534760248
1	8592	858394.210919667514	0
1	8601	859509.274598832537	0
1	8635	862898.940910764803	0
1	8643	863446.086236020405	462.86663321431
1	8660	865092.38764623983	0
1	8668	865251.929172869503	136.96587075916
1	8702	868876.342971712007	0
1	8718	872449.313361958349	3519.1139766153
1	8724	872815.899837841615	3569.0261520862
1	8742	874788.513017022882	2465.5582368921
1	8750	875140.020502249936	1982.8009389526
1	8761	875890.591170544856	2191.2160922439
1	8773	877038.668149608094	1430.7552268098
1	8782	878156.996126698076	1567.6032358287
1	8793	878785.118091114349	1698.5415874309
1	8822	879340.694683557318	136.44207090988
1	8846	880563.525128941266	59.261166926365
1	8858	881926.358841154844	1048.9396070613
1	8863	882000.561975433181	194.24966214842
1	8884	883551.677306284102	554.05024981603
1	8889	883844.764257184248	656.65973577655
1	8936	886072.540701669899	0
1	8945	886897.384750499534	0
1	8987	889926.752261257333	0
1	9004	891664.661179831067	0
1	9012	892095.916306939313	0
1	9037	894293.690575155154	0
1	9054	896213.817424390775	0
1	9067	898849.659842577539	2266.1895631229
1	9079	900563.259381274063	2171.9797502184
1	9091	902772.769178275809	3894.3283968582
1	9099	902989.155220496078	936.28077070735
1	9104	903097.22676104412	361.75703974537
1	9109	903133.835802062856	156.88680007859
1	9135	903896.135771275896	19.937949159571
1	9190	908758.848208214435	0
1	9198	909037.592433416684	0
1	9224	912155.448155964581	0
1	9233	914248.75890519217	1854.4380101651
1	9249	915111.192157588178	0
1	9267	917516.98934549708	812.95526569132
1	9285	921981.866911323218	0
1	9298	924130.847787148121	396.20201814936
1	9327	924901.548123714295	37.623046405382
1	9344	925707.129853548598	0
1	9360	927003.156174645712	0
1	9369	928180.464448982097	0
1	9386	929262.541529126695	157.30959941217
1	9397	929890.950653650548	548.3312877121
1	9403	931244.819996015093	1812.2884162953
1	9436	933302.952783779692	0
1	9463	939379.37902894072	0
1	9472	939993.051806130268	0
1	9489	941138.637766411648	21.414270367034
1	9516	947473.51329801696	0
1	9525	949113.002372725253	0
1	9534	950527.674746466505	0
1	9569	956330.402138055833	0
1	9578	956836.660376565581	0
1	9586	957553.697179471777	0
1	9612	960604.371872100133	0
1	9623	961083.419573782003	353.28309978662
1	9645	964103.360106428357	1720.9111217041
1	9650	964595.416295274137	1733.8567927486
1	9666	967251.379963919161	3984.9424344262
1	9678	968687.753341151718	5032.1368513281
1	9686	969066.553052885884	3946.7237642292
1	9691	969124.181267367304	3935.9785366357
1	9705	969691.063502264376	1093.4647539764
1	9717	970867.399140640609	2101.1535654873
1	9733	973769.891095729887	4439.1882623506
1	9741	974007.994239629518	3265.929475249
1	9749	974218.115702202309	2734.8155159443
1	9757	975038.088339727985	415.12230511543
1	9814	977720.744335828245	306.89936609433
1	9822	978569.121613249943	329.55116885083
1	9831	979031.753948671592	401.74775135606
1	9861	980883.058595315195	232.12083078306
1	9876	983768.125570451586	2544.1260350661
1	9882	984057.935138507935	534.14788909973
1	9897	986830.317423400588	1408.939892559
1	9914	987795.065215350244	64.107249969951
1	9922	988002.088915908761	157.78995246629
1	9968	991099.258362661295	38.588006188379
1	9988	992612.602132496925	11.508487426966
1	9996	992678.95879031194	61.206707821159
1	10058	998833.665165292327	0
1	10075	1000057.575281113043	0
1	10084	1001227.789693183364	588.79724838759
1	10095	1002722.144736582448	1481.0410626702
1	10101	1003341.227034071284	1501.7726921837
1	10118	1004254.278575414309	803.31998030767
1	10133	1005606.929113702723	1949.8321659697
1	10153	1010531.711680023699	6780.8533439203
1	10158	1010809.38145973888	3668.9335441884
1	10173	1011697.93500598635	1721.8524315327
1	10178	1011838.376986431209	1403.41781128
1	10195	1012779.951863810228	1590.7849876477
1	10200	1013003.552086620131	1499.2162507972
1	10213	1015145.007744846704	3173.4173603802
1	10221	1015420.336985840228	716.15380721772
1	10288	1017424.425773001862	96.310973368834
1	10318	1019070.436926081371	0
1	10327	1020321.46237636363	439.07580389643
1	10343	1020701.05969474168	42.009771517188
1	10377	1023861.70661453195	0
1	10389	1025947.052881716249	2062.0724122428
1	10394	1025994.957176290807	2036.1205442027
1	10429	1030544.291462285349	0
1	10437	1031774.330485968194	507.76853669555
1	10454	1032763.953820928816	0
1	10465	1033568.950172946101	695.53461482525
1	10480	1034491.654419324312	964.6731921595
1	10488	1035115.242411566166	1240.8989360987
1	10497	1036019.671370579525	1951.3498289036
2	1325	151688.818972725039	1
2	1330	151692.067750776453	0
2	1344	151895.564634109943	1
2	1349	151923.107001360781	0
2	1392	153191.199296719845	1
2	1397	153284.405749045479	0
2	1409	155397.521918671569	1
2	1414	155684.098141661269	0
2	1417	155696.591907980605	1
2	1425	155924.381695804385	0
2	1445	157466.808558116181	1
2	1447	157466.808558116181	0
2	1454	158293.36570860022	1
2	1458	159818.377922077542	2
2	1463	160359.478306459601	1
2	1468	160580.755681394985	0
2	1496	162596.029822005465	1
2	1498	162596.029822005465	0
2	1505	162982.399164984411	1
2	1510	163636.925319737691	0
2	1538	166145.417090661905	1
2	1540	166145.417090661905	0
2	1544	166312.716972581229	1
2	1549	166346.977090379055	0
2	1572	168155.13792457879	1
2	1574	168155.13792457879	0
2	1581	169973.052293422768	1
2	1583	169973.052293422768	0
2	1606	171535.078380295691	1
2	1608	171535.078380295691	0
2	1615	173578.980470441781	1
2	1617	173578.980470441781	0
2	1620	174445.016414649426	1
2	1629	175924.285139145178	0
2	1632	176336.282022438468	1
2	1636	176889.472170117076	2
2	1641	177098.590199911509	1
2	1644	177212.609140022201	2
2	1647	177285.367866768035	3
2	1653	177884.325883368263	4
2	1657	178588.555989193336	5
2	1662	179308.503066366043	4
2	1667	179432.453032508115	3
2	1672	179889.488104749625	2
2	1679	180437.27392533007	3
2	1684	180876.150907130119	2
2	1697	182601.702228482111	3
2	1702	182785.379714683832	2
2	1707	182881.970160563539	1
2	1710	183075.064761445174	2
2	1719	183764.728125783695	1
2	1724	183819.577597627329	0
2	1736	184574.481056993204	1
2	1741	184659.085625835964	0
2	1748	186054.578631874759	1
2	1757	188148.374519423461	0
2	1769	189287.777621597499	1
2	1774	189501.143454949776	0
2	1777	190163.387246502661	1
2	1781	190756.408020378549	2
2	1784	190989.375233274208	3
2	1787	191737.182831494433	4
2	1793	192199.624510098391	3
2	1805	194123.786036913923	2
2	1810	194399.872909205748	1
2	1815	194585.452420317149	0
2	1852	196086.850893093061	1
2	1860	196197.302956551373	0
2	1866	196724.910485973012	1
2	1874	197065.452702477107	0
2	1914	198792.919949170184	1
2	1919	198798.865480426389	0
2	1943	200454.765621677784	1
2	1946	200477.089801708725	2
2	1951	200524.078291407724	1
2	1958	201697.074714004517	2
2	1964	202534.687360546062	1
2	1973	204059.996493376434	0
2	2027	208332.502128790007	1
2	2029	208332.502128790007	0
2	2045	211098.573747928788	1
2	2047	211098.573747928788	0
2	2050	212045.008718055115	1
2	2056	212931.627324417572	0
2	2071	214557.887090817978	1
2	2073	214557.887090817978	0
2	2087	215920.323196376281	1
2	2089	215920.323196376281	0
2	2092	215953.038506058203	1
2	2098	216373.604097129822	0
2	2101	216791.415698809324	1
2	2108	218017.553836271434	2
2	2113	218287.533897470986	1
2	2116	218527.006500872258	2
2	2121	219059.373529676749	1
2	2129	219291.665131536549	0
2	2152	221118.980474215934	1
2	2158	221822.746799049457	0
2	2196	224036.116312221219	1
2	2198	224036.116312221219	0
2	2201	224423.087142448793	1
2	2208	226297.502407112921	0
2	2222	227712.613290758969	1
2	2224	227712.613290758969	0
2	2231	228664.417685932491	1
2	2236	228919.223293901714	0
2	2239	229052.240919842206	1
2	2243	229840.819186610886	2
2	2246	230123.606860401629	3
2	2251	230279.898569068404	2
2	2256	230329.23473703438	1
2	2260	231585.760278116832	2
2	2265	231795.674620576733	1
2	2268	231901.535192453378	2
2	2279	232281.225414145162	1
2	2284	232348.532312934518	0
2	2316	232779.418506630626	1
2	2322	233185.247715970328	0
2	2328	233829.322290570928	1
2	2333	233903.43387653693	0
2	2348	235317.093375670335	1
2	2357	237161.57470281322	0
2	2384	238475.700309445181	1
2	2389	238669.679695590912	0
2	2411	240922.622422527692	1
2	2416	240947.043708332277	0
2	2432	244834.68849221569	1
2	2434	244834.68849221569	0
2	2441	246586.052874329754	1
2	2443	246586.052874329754	0
2	2449	246687.16750341504	1
2	2451	246687.16750341504	0
2	2454	246790.302804083552	1
2	2460	247365.379908958046	0
2	2469	248392.45035010564	1
2	2478	250179.721489444063	0
2	2487	250618.967459036536	1
2	2490	250660.725216031983	2
2	2495	250730.080204273408	1
2	2498	251068.141907169881	2
2	2503	251330.706558957186	1
2	2509	251671.82369061799	2
2	2516	252425.303382829662	3
2	2523	255451.168490139848	2
2	2526	255714.060562624078	3
2	2538	257578.715517412381	2
2	2543	257581.064294608952	1
2	2548	257995.32918460677	0
2	2555	259471.208821798552	1
2	2563	260321.903239430349	0
2	2567	261264.169231057992	1
2	2572	261989.198452118705	0
2	2580	262257.039393082728	1
2	2587	262565.549054556019	2
2	2592	262698.434466356427	1
2	2597	263112.549228243371	0
2	2627	264178.734945705516	1
2	2632	264577.357811387328	0
2	2677	265945.837701530847	1
2	2679	265945.837701530847	0
2	2690	266500.05630642078	1
2	2701	266981.69425125772	0
2	2709	267385.254338181029	1
2	2715	267637.378624688104	0
2	2726	269092.213837130332	1
2	2732	269193.679543290801	0
2	2760	271759.142477968181	1
2	2762	271759.142477968181	0
2	2787	276169.312781616937	1
2	2789	276169.312781616937	0
2	2793	277934.68194453509	1
2	2798	277953.583459437949	0
2	2801	278639.423349938014	1
2	2807	279583.652883660328	0
2	2826	280655.471219597817	1
2	2831	280796.402912270305	0
2	2856	284843.062940193968	1
2	2858	284843.062940193968	0
2	2872	286221.796406151805	1
2	2874	286221.796406151805	0
2	2890	288575.223124079741	1
2	2892	288575.223124079741	0
2	2898	289016.144399057061	1
2	2900	289016.144399057061	0
2	2906	289465.125587020843	1
2	2908	289465.125587020843	0
2	2912	290876.025107106605	1
2	2921	291814.475180185151	0
2	2936	294317.152868885537	1
2	2941	294533.23344536815	0
2	2945	295162.375765574637	1
2	2950	295304.798867213744	0
2	2974	296477.87945831084	1
2	2976	296477.87945831084	0
2	3009	300917.128483538882	1
2	3011	300917.128483538882	0
2	3027	304625.706463811428	1
2	3029	304625.706463811428	0
2	3032	304819.560421205986	1
2	3038	305210.194741994402	0
2	3041	305901.041286584485	1
2	3050	308411.499566666313	0
2	3068	311589.716892645799	1
2	3073	311596.628787153334	0
2	3085	312095.081058334847	1
2	3090	312369.233333198385	0
2	3097	313852.858797813603	1
2	3102	314054.482288735506	0
2	3109	316983.702992079638	1
2	3114	317021.451342668853	0
2	3128	318796.116337686974	1
2	3132	318891.77201525689	2
2	3140	319250.061726391532	1
2	3143	319377.671611336952	2
2	3146	319388.02881869032	3
2	3151	319607.157859092402	2
2	3154	320269.726494823534	3
2	3161	321253.963643073913	4
2	3164	321420.205909020931	5
2	3169	321683.572838427607	4
2	3174	321717.191423117959	3
2	3177	321962.922982934609	4
2	3181	322875.87091182427	5
2	3186	323207.413804647959	4
2	3189	323276.101677588333	5
2	3194	323754.79451811544	4
2	3206	324563.425503553132	3
2	3209	324947.196692558429	4
2	3212	325322.756105752372	5
2	3217	325343.275730798453	4
2	3228	325504.43518934527	3
2	3237	325998.49481966643	2
2	3247	328148.389314624001	3
2	3250	328351.284148377948	4
2	3259	329326.104043309495	3
2	3264	329393.240368975731	2
2	3272	329849.219253901525	1
2	3282	331103.926128930364	2
2	3287	331105.302220180733	1
2	3293	331886.82243166197	2
2	3298	332525.632998457422	1
2	3302	333354.396054220916	2
2	3305	333695.397880485663	3
2	3315	335724.301014750575	4
2	3321	336108.622232409708	3
2	3324	337023.448429383923	4
2	3331	338471.348684990678	5
2	3336	338504.838796455806	4
2	3345	340527.777510500352	3
2	3348	340782.516570186401	4
2	3354	341372.382945706406	3
2	3359	341722.514218520117	2
2	3365	342149.843512794988	3
2	3369	342977.506155657418	4
2	3377	343502.790322159511	3
2	3382	343583.562717567864	2
2	3387	343644.005621761831	1
2	3390	344065.160519560454	2
2	3397	344686.948548994834	3
2	3400	344688.415044388421	4
2	3405	344873.665810041652	3
2	3411	345540.27111761755	4
2	3422	346188.767084273832	3
2	3428	346843.839599574675	2
2	3433	347512.731457489593	1
2	3440	348389.758291759477	2
2	3445	348490.418892212822	1
2	3459	349333.09850982124	0
2	3514	353431.032726996885	1
2	3519	353448.759817525453	0
2	3522	353459.497074580039	1
2	3525	354100.153229442431	2
2	3530	354222.978598540395	1
2	3535	354242.48940395124	0
2	3539	355118.505848257145	1
2	3544	355807.24102754572	0
2	3547	356082.300610888395	1
2	3553	356337.858505783566	2
2	3559	357079.141541393733	1
2	3564	357122.494877169172	0
2	3611	360796.173925826301	1
2	3619	361257.665123723002	0
2	3752	368155.397551519507	1
2	3754	368155.397551519507	0
2	3770	370428.250495051933	1
2	3772	370428.250495051933	0
2	3787	373359.973985651253	1
2	3789	373359.973985651253	0
2	3792	373435.132256503942	1
2	3798	374086.622413382398	0
2	3805	375488.843809099771	1
2	3807	375488.843809099771	0
2	3840	381860.769797627663	1
2	3842	381860.769797627663	0
2	3845	382119.913770859498	1
2	3849	382665.153238341357	2
2	3854	383360.255037155086	1
2	3857	383487.545957026535	2
2	3860	383721.563282648052	3
2	3866	384084.199043577926	2
2	3874	384926.598933335035	1
2	3879	385087.034271806127	0
2	3892	386050.571875652965	1
2	3897	387024.799516037688	0
2	3900	387068.259878995526	1
2	3907	387462.355819150826	2
2	3910	387632.228024872297	3
2	3915	387820.440206033702	2
2	3920	388984.430491375585	1
2	3927	389238.556318183036	2
2	3932	390405.256293833234	1
2	3938	390623.251225353783	2
2	3942	391426.974647979146	3
2	3950	392447.85027155589	2
2	3954	392798.358761294608	3
2	3957	392834.387801458122	4
2	3965	393009.586832575375	3
2	3969	394309.143763159763	4
2	3974	394481.26922779449	3
2	3982	395644.263647910137	2
2	3989	396552.451260252389	3
2	3997	397253.573717162654	2
2	4003	397924.747803057818	1
2	4008	397967.784903292897	0
2	4017	398489.546519113166	1
2	4025	398959.287062218781	0
2	4029	400019.712226186581	1
2	4032	400465.170646906267	2
2	4037	400633.063117849972	1
2	4043	401411.716950179109	0
2	4120	405777.065155876455	1
2	4125	406243.926540891412	0
2	4163	409108.746767206629	1
2	4166	409113.897510679243	2
2	4171	409308.151005963986	1
2	4174	409602.998759257518	2
2	4177	409697.731812778506	3
2	4183	410261.667672871677	2
2	4192	413076.73292031743	1
2	4201	414266.855994800443	0
2	4204	414482.669546424508	1
2	4213	414871.317441475739	0
2	4220	418123.225082934542	1
2	4225	418162.44974763396	0
2	4271	421496.930759051637	1
2	4277	422289.399724534016	0
2	4280	422853.796913341215	1
2	4285	422913.259343556662	0
2	4288	423276.783764353024	1
2	4293	423316.26084547514	0
2	4333	430494.695132748424	1
2	4335	430494.695132748424	0
2	4338	430645.424307763223	1
2	4343	431102.674783254267	0
2	4349	431968.99505369099	1
2	4351	431968.99505369099	0
2	4355	432083.751125381841	1
2	4358	432476.928419620912	2
2	4364	433601.151430723349	3
2	4369	433610.887662016494	2
2	4378	433907.276886286742	1
2	4383	434467.07270792159	0
2	4415	437151.082495652677	1
2	4420	437212.943161860318	0
2	4431	438122.745810530702	1
2	4436	438414.67578116696	0
2	4468	443939.333990470566	1
2	4470	443939.333990470566	0
2	4485	445278.719494308073	1
2	4487	445278.719494308073	0
2	4494	445802.281769909196	1
2	4496	445802.281769909196	0
2	4499	447096.524972752085	1
2	4505	447815.689167066815	0
2	4533	449499.98814388909	1
2	4538	449577.281516107974	0
2	4541	450353.295759728064	1
2	4546	450647.976187717818	0
2	4550	451313.012278583615	1
2	4553	451355.893722794833	2
2	4556	451414.585681742521	3
2	4561	451455.402232054248	2
2	4572	452548.943842936238	1
2	4576	453579.719493904956	2
2	4585	454391.385033808424	1
2	4588	454608.03176912753	2
2	4591	455181.677231486859	3
2	4598	456104.442589539522	4
2	4601	456671.424585071613	5
2	4606	456802.382486987964	4
2	4611	457605.14454805276	3
2	4617	457779.881479617905	2
2	4622	458566.20505541127	1
2	4630	458726.025099710265	0
2	4637	459668.852130828094	1
2	4645	460193.200639851681	0
2	4659	460614.710776467247	1
2	4664	460763.40215843885	0
2	4694	461916.704724853274	1
2	4699	462105.69414598571	0
2	4703	462897.17776659124	1
2	4708	463337.860361981324	0
2	4717	464118.311740474544	1
2	4722	464250.65052626283	0
2	4734	465155.5991940995	1
2	4739	465485.832364651819	0
2	4742	465810.405815194528	1
2	4748	466371.581355943568	0
2	4779	467549.737402250747	1
2	4784	467810.34633464219	0
2	4791	468559.571821500927	1
2	4794	468590.60965220863	2
2	4800	468734.570944998772	3
2	4805	469617.235113435037	2
2	4811	469746.910422628957	1
2	4816	469836.316689788582	0
2	4819	469848.709943004461	1
2	4831	471081.977357383614	2
2	4835	472193.718058661962	3
2	4838	472246.659149475546	4
2	4841	472578.997900011499	5
2	4844	472627.500694646299	6
2	4847	472650.424981482914	7
2	4852	472903.691040652536	6
2	4857	472916.225121217757	5
2	4866	473745.532018856189	4
2	4871	473981.790900583272	3
2	4874	474316.694475647313	4
2	4878	475449.323310460783	5
2	4883	475955.325039262313	4
2	4893	476869.462549506709	5
2	4901	476992.603216388528	4
2	4904	477365.708782663218	5
2	4909	477391.669426530678	4
2	4913	478860.581607480369	5
2	4916	479289.313647991341	6
2	4921	479361.572900442923	5
2	4924	479790.180514426392	6
2	4927	479890.41352988748	7
2	4939	480198.757156689036	6
2	4950	481200.672279327552	5
2	4954	482204.686325360802	6
2	4957	482413.809507823421	7
2	4960	482461.003005458297	8
2	4968	483123.341658100981	7
2	4973	483159.911523759501	6
2	4977	483522.922073802749	7
2	4980	483797.337758345532	8
2	4983	485007.158271816808	9
2	4988	485047.225994332046	8
2	4996	485128.751740451476	7
2	5000	486515.932790075581	8
2	5003	486781.481665934842	9
2	5012	487220.799821614745	8
2	5024	488625.002802035236	7
2	5033	489336.076498057325	8
2	5036	489628.238322801179	9
2	5039	489866.73327255621	10
2	5048	490307.698388662297	9
2	5054	491639.072119634831	10
2	5059	491902.884814361248	9
2	5065	492310.559064021278	8
2	5073	493433.9316004935	7
2	5080	494506.218857079952	8
2	5089	495718.609584967332	7
2	5092	495960.5512319241	8
2	5097	496100.66334288809	7
2	5100	496105.85658162968	8
2	5103	496296.463014226312	9
2	5112	497420.853926374756	8
2	5115	497590.826225822326	9
2	5118	497738.372474461014	10
2	5123	497783.555999902984	9
2	5132	500221.703116006521	8
2	5135	500328.040968992049	9
2	5144	501058.876354514087	8
2	5150	501461.730947108781	9
2	5156	501795.54888232548	10
2	5161	501975.244761792057	9
2	5170	502857.33137550028	8
2	5178	503599.253609024751	7
2	5183	503709.930959975233	6
2	5192	504498.997760627856	5
2	5198	505106.817173216888	6
2	5203	505677.671776052389	5
2	5212	506597.366536684794	4
2	5217	507155.140817077919	3
2	5221	507738.405238576474	4
2	5226	508260.064241178958	3
2	5235	508591.393005025966	4
2	5246	508968.22968027658	3
2	5250	509859.503971077056	4
2	5256	510646.640026791618	5
2	5265	511002.773176192855	4
2	5270	511453.382863905066	3
2	5276	512050.065249571245	4
2	5281	512222.27688844698	3
2	5286	512483.383034767339	2
2	5295	512621.320885767105	1
2	5300	513277.714849923043	0
2	5309	513680.741891225929	1
2	5314	513813.343993517994	0
2	5406	517304.148663412806	1
2	5411	517535.073381097312	0
2	5415	517713.717669020441	1
2	5420	519183.801205920702	0
2	5450	519927.310551963047	1
2	5455	520075.344688178727	0
2	5464	521497.943007667745	1
2	5469	521634.653311485356	0
2	5535	525149.426523464811	1
2	5540	525436.902690085417	0
2	5593	528931.364149768167	1
2	5598	529656.154890395001	0
2	5607	529823.65559629852	1
2	5612	529851.229902444151	0
2	5646	531789.048465405579	1
2	5651	531837.915514583436	0
2	5657	532584.828759020146	1
2	5662	532958.213103118992	0
2	5738	536356.079879579955	1
2	5740	536356.079879579955	0
2	5760	537119.575196061527	1
2	5765	537371.102716060735	0
2	5780	539744.628138529885	1
2	5782	539744.628138529885	0
2	5789	540827.796430376164	1
2	5791	540827.796430376164	0
2	5797	541253.576954891419	1
2	5799	541253.576954891419	0
2	5812	542370.206422385972	1
2	5818	543765.188342396021	0
2	5821	543859.750690747375	1
2	5827	544924.833190081967	2
2	5832	545075.54609359884	1
2	5841	545415.484838538868	0
2	5890	550161.902052122329	1
2	5892	550161.902052122329	0
2	5896	551481.773622258141	1
2	5902	552755.107237105291	0
2	5905	552788.802024118595	1
2	5911	552915.323115959116	2
2	5915	553770.728595803877	3
2	5920	553989.353076016075	2
2	5925	554167.592317617838	1
2	5933	554695.415480435626	0
2	5939	555036.853334751153	1
2	5944	555092.913928916261	0
2	5970	557516.053733585915	1
2	5975	557519.091033609744	0
2	6000	560340.014122037933	1
2	6002	560340.014122037933	0
2	6006	561703.045758007214	1
2	6011	561743.214058165488	0
2	6044	566912.432089679268	1
2	6046	566912.432089679268	0
2	6064	572579.319521456304	1
2	6066	572579.319521456304	0
2	6069	572640.874245900726	1
2	6074	573060.354939250561	0
2	6077	574227.960099148882	1
2	6082	574260.324081676479	0
2	6086	575106.808205616322	1
2	6091	575124.180637166099	0
2	6122	576701.195766371755	1
2	6125	577237.644843976778	2
2	6130	577550.973934866672	1
2	6136	579188.789435553453	0
2	6139	579404.249509628121	1
2	6145	579642.009951597278	0
2	6151	580463.852517304036	1
2	6157	581868.947517811845	0
2	6160	582308.548469026779	1
2	6169	582531.215785377204	2
2	6175	583923.206770521912	1
2	6180	584179.835930940683	0
2	6183	584334.514326842706	1
2	6186	584398.315471948897	2
2	6195	585330.551323019915	1
2	6200	585596.483375589538	0
2	6268	594261.509134552157	1
2	6270	594261.509134552157	0
2	6277	596258.513196714932	1
2	6279	596258.513196714932	0
2	6286	597133.5262546217	1
2	6288	597133.5262546217	0
2	6291	597373.823613648318	1
2	6296	597386.708543733198	0
2	6302	597439.085785089284	1
2	6307	597626.333616779342	0
2	6310	598005.427627298651	1
2	6313	598136.36943619821	2
2	6317	598816.76986668482	3
2	6327	600127.65316267224	4
2	6330	600553.43160420383	5
2	6336	601956.483254304603	4
2	6341	602408.77648715863	3
2	6356	603499.067239239924	2
2	6361	603682.290419175999	1
2	6366	603804.673049229206	0
2	6372	604841.023286019079	1
2	6384	606171.894336014331	0
2	6387	606583.939769885932	1
2	6393	607110.309013998109	0
2	6428	608971.215955765073	1
2	6433	609068.037682158722	0
2	6478	611432.655480490088	1
2	6480	611432.655480490088	0
2	6486	611922.400458607541	1
2	6488	611922.400458607541	0
2	6504	615253.624788581856	1
2	6506	615253.624788581856	0
2	6518	615757.507755758473	1
2	6523	615824.922649877418	0
2	6537	616945.351301712532	1
2	6539	616945.351301712532	0
2	6543	618552.443871726285	1
2	6550	619205.285064877388	2
2	6555	619537.620007109764	1
2	6558	619824.865644878694	2
2	6561	620226.524777873938	3
2	6565	621440.657368328106	4
2	6568	621484.556783272895	5
2	6572	622384.362691869154	6
2	6580	622890.733446249586	5
2	6585	622975.886934918851	4
2	6588	623160.821693451585	5
2	6591	623461.172577268788	6
2	6596	623872.566388469662	5
2	6609	625520.5299741015	6
2	6618	626745.65496418113	5
2	6623	627134.796265387516	4
2	6628	627213.116999567936	3
2	6643	627604.768841804136	2
2	6651	627952.126879532371	1
2	6656	628109.620738733884	0
2	6727	630963.02844444194	1
2	6732	631657.699639441239	0
2	6739	633392.890718361164	1
2	6741	633392.890718361164	0
2	6773	636904.194446099843	1
2	6775	636904.194446099843	0
2	6779	639061.987654853661	1
2	6784	639129.440776573338	0
2	6787	639134.111684906751	1
2	6790	639357.83564564787	2
2	6796	639749.293725605044	1
2	6801	639857.70897659828	0
2	6841	643964.202839718274	1
2	6843	643964.202839718274	0
2	6853	650626.791705518534	1
2	6855	650626.791705518534	0
2	6870	652395.839207871132	1
2	6872	652395.839207871132	0
2	6901	664299.710615930328	1
2	6903	664299.710615930328	0
2	6910	665839.489081184604	1
2	6912	665839.489081184604	0
2	6918	666001.112542679118	1
2	6924	667166.323348141722	0
2	6927	667418.230125001514	1
2	6934	668563.240713574811	2
2	6939	669089.247951410607	1
2	6942	669739.30350751829	2
2	6945	670021.335690582488	3
2	6950	670203.705702060412	2
2	6956	670431.982038539554	1
2	6961	670602.79471056071	0
2	6985	671869.870975112391	1
2	6990	671974.458034859459	0
2	7018	672987.818420509701	1
2	7020	672987.818420509701	0
2	7023	673412.974833450194	1
2	7030	673912.596597107804	2
2	7039	676105.342061630378	1
2	7042	676740.599101052993	2
2	7048	677326.009331592431	1
2	7053	677407.032394068139	0
2	7104	683197.436941410175	1
2	7106	683197.436941410175	0
2	7109	683583.670197732427	1
2	7115	685574.519320870827	0
2	7141	691936.867078189207	1
2	7143	691936.867078189207	0
2	7150	694185.273938962103	1
2	7152	694185.273938962103	0
2	7164	695704.102434427286	1
2	7169	695893.587648919313	0
2	7176	697329.532205321588	1
2	7181	697567.443868683319	0
2	7185	698016.277663314021	1
2	7190	698173.742141067589	0
2	7193	698451.986634552415	1
2	7201	699365.481306174174	0
2	7229	699944.612218621674	1
2	7232	699988.272435444781	2
2	7237	700305.052894134558	1
2	7242	700535.173937614073	0
2	7277	705542.377283061401	1
2	7279	705542.377283061401	0
2	7286	706720.453887588713	1
2	7288	706720.453887588713	0
2	7313	711710.499713480495	1
2	7315	711710.499713480495	0
2	7330	713329.995830895998	1
2	7332	713329.995830895998	0
2	7338	714162.319663697367	1
2	7340	714162.319663697367	0
2	7343	714575.159811089611	1
2	7351	714801.591796132727	0
2	7354	714820.191703585738	1
2	7363	715943.359228665004	0
2	7397	719496.697040447078	1
2	7399	719496.697040447078	0
2	7406	720495.664188304432	1
2	7408	720495.664188304432	0
2	7411	721224.982208550537	1
2	7419	721467.253758541118	0
2	7439	722344.038111632258	1
2	7441	722344.038111632258	0
2	7467	730187.916870933362	1
2	7469	730187.916870933362	0
2	7476	731294.708364505141	1
2	7478	731294.708364505141	0
2	7481	731737.462029997624	1
2	7485	732500.350943344633	2
2	7493	733241.75118833555	1
2	7499	734206.991092687621	0
2	7502	734667.435719052083	1
2	7510	734949.704875689385	0
2	7530	736638.742896701676	1
2	7536	737160.532850739957	0
2	7542	737867.093989034865	1
2	7547	737893.282550897689	0
2	7577	739559.768945925582	1
2	7579	739559.768945925582	0
2	7582	739666.888549245917	1
2	7585	739745.341219673028	2
2	7588	739961.935098045342	3
2	7591	740008.380934456978	4
2	7597	741093.277747799538	3
2	7606	742429.223650590465	2
2	7611	743218.925256311788	1
2	7623	744610.529739835776	0
2	7663	749627.93297256772	1
2	7665	749627.93297256772	0
2	7687	750732.880296522788	1
2	7689	750732.880296522788	0
2	7693	751043.844398946028	1
2	7696	751802.39063685237	2
2	7702	752619.800247388046	1
2	7705	753132.079244454187	2
2	7713	757386.039649514367	3
2	7716	757428.757510197225	4
2	7722	758142.99430044364	3
2	7727	758361.571150597047	2
2	7732	758599.24807605383	1
2	7737	759056.169239121375	0
2	7783	764243.435419467353	1
2	7785	764243.435419467353	0
2	7797	764833.164221710802	1
2	7802	764870.1162918664	0
2	7805	764898.412729396312	1
2	7810	764952.6430290758	0
2	7816	765957.45841342498	1
2	7822	766301.383479820851	0
2	7825	766941.858573771283	1
2	7830	767242.663016103976	0
2	7864	769778.971470254339	1
2	7869	769827.632470623425	0
2	7892	772771.814264262955	1
2	7894	772771.814264262955	0
2	7901	773821.161335400121	1
2	7903	773821.161335400121	0
2	7912	778328.918161023903	1
2	7914	778328.918161023903	0
2	7918	780361.394091283585	1
2	7923	781133.261424726389	0
2	7945	781491.997111349831	1
2	7947	781491.997111349831	0
2	7957	782315.690971299859	1
2	7960	782401.089908905546	2
2	7963	782411.0549674255	3
2	7966	782556.387324244807	4
2	7971	782987.152912695415	3
2	7978	783695.209734173899	4
2	7983	784811.244396951726	3
2	7993	787571.737337769434	2
2	7996	787710.341136423167	3
2	8001	787972.463157173092	2
2	8006	788093.831737882827	1
2	8011	788558.163836534487	0
2	8058	791978.893779182205	1
2	8064	792027.17822845821	0
2	8101	801244.597124427355	1
2	8103	801244.597124427355	0
2	8110	802444.686140703082	1
2	8112	802444.686140703082	0
2	8127	804241.88960146517	1
2	8129	804241.88960146517	0
2	8135	805651.554360465427	1
2	8139	805925.93925867228	2
2	8144	806013.487288589256	1
2	8150	807365.149509728789	2
2	8156	807565.096911867376	1
2	8161	807578.780071611953	0
2	8200	811954.661120411601	1
2	8205	812352.358627887735	0
2	8226	823023.896821385531	1
2	8228	823023.896821385531	0
2	8231	823291.615805678372	1
2	8234	824054.378889575381	2
2	8239	824523.051188679479	1
2	8245	824844.697810791659	0
2	8268	826828.770908583739	1
2	8270	826828.770908583739	0
2	8273	826989.549837824021	1
2	8278	827037.027505276252	0
2	8284	827592.414595975194	1
2	8289	827888.779999001394	0
2	8296	828035.840125546764	1
2	8301	829031.722679616869	0
2	8326	830472.750097730742	1
2	8331	830716.276670799077	0
2	8342	831316.754969833434	1
2	8347	831390.331525316493	0
2	8360	833333.495473860675	1
2	8362	833333.495473860675	0
2	8393	835334.850429173391	1
2	8395	835334.850429173391	0
2	8407	836658.889921522063	1
2	8412	836667.219022390774	0
2	8427	839593.861648672628	1
2	8429	839593.861648672628	0
2	8445	842192.252332244345	1
2	8447	842192.252332244345	0
2	8459	844330.954055840441	1
2	8464	844563.250602670172	0
2	8468	845234.893225108746	1
2	8473	845652.580703583245	0
2	8485	847164.183842690007	1
2	8490	847270.834023805598	0
2	8496	848000.844519908233	1
2	8498	848000.844519908233	0
2	8514	850818.012987762553	1
2	8516	850818.012987762553	0
2	8519	851080.331438076341	1
2	8531	853125.561136786296	0
2	8556	854286.689809962699	1
2	8558	854286.689809962699	0
2	8579	857369.609267267352	1
2	8584	857885.304614869834	0
2	8590	858394.210919667514	1
2	8592	858394.210919667514	0
2	8599	859509.274598832537	1
2	8601	859509.274598832537	0
2	8633	862898.940910764803	1
2	8635	862898.940910764803	0
2	8638	862983.219602806093	1
2	8643	863446.086236020405	0
2	8658	865092.38764623983	1
2	8660	865092.38764623983	0
2	8663	865114.963302110342	1
2	8668	865251.929172869503	0
2	8700	868876.342971712007	1
2	8702	868876.342971712007	0
2	8705	868930.199385343052	1
2	8709	869246.873685755459	2
2	8713	872322.954780130764	3
2	8718	872449.313361958349	2
2	8724	872815.899837841615	1
2	8730	873157.219563297298	2
2	8733	873699.375078300939	3
2	8742	874788.513017022882	2
2	8750	875140.020502249936	1
2	8756	875607.912922798337	2
2	8761	875890.591170544856	1
2	8768	876589.392890869354	2
2	8773	877038.668149608094	1
2	8776	877086.576503683401	2
2	8782	878156.996126698076	1
2	8793	878785.118091114349	0
2	8814	879204.252612647438	1
2	8822	879340.694683557318	0
2	8841	880504.263962014901	1
2	8846	880563.525128941266	0
2	8849	880877.41923409357	1
2	8853	881806.312313284759	2
2	8858	881926.358841154844	1
2	8863	882000.561975433181	0
2	8876	882997.627056468075	1
2	8879	883188.104521407694	2
2	8884	883551.677306284102	1
2	8889	883844.764257184248	0
2	8934	886072.540701669899	1
2	8936	886072.540701669899	0
2	8943	886897.384750499534	1
2	8945	886897.384750499534	0
2	8985	889926.752261257333	1
2	8987	889926.752261257333	0
2	9002	891664.661179831067	1
2	9004	891664.661179831067	0
2	9010	892095.916306939313	1
2	9012	892095.916306939313	0
2	9035	894293.690575155154	1
2	9037	894293.690575155154	0
2	9052	896213.817424390775	1
2	9054	896213.817424390775	0
2	9058	896583.470279454672	1
2	9062	898391.279631055688	2
2	9067	898849.659842577539	1
2	9070	898878.440781417565	2
2	9079	900563.259381274063	1
2	9083	902052.87444978873	2
2	9086	902735.469721298753	3
2	9091	902772.769178275809	2
2	9094	902976.949001984264	3
2	9099	902989.155220496078	2
2	9104	903097.22676104412	1
2	9109	903133.835802062856	0
2	9130	903876.197822116325	1
2	9135	903896.135771275896	0
2	9188	908758.848208214435	1
2	9190	908758.848208214435	0
2	9196	909037.592433416684	1
2	9198	909037.592433416684	0
2	9222	912155.448155964581	1
2	9224	912155.448155964581	0
2	9227	912394.320895027113	1
2	9233	914248.75890519217	0
2	9247	915111.192157588178	1
2	9249	915111.192157588178	0
2	9261	916704.034079805764	1
2	9267	917516.98934549708	0
2	9283	921981.866911323218	1
2	9285	921981.866911323218	0
2	9292	923734.645768998765	1
2	9298	924130.847787148121	0
2	9322	924863.925077308913	1
2	9327	924901.548123714295	0
2	9342	925707.129853548598	1
2	9344	925707.129853548598	0
2	9358	927003.156174645712	1
2	9360	927003.156174645712	0
2	9367	928180.464448982097	1
2	9369	928180.464448982097	0
2	9380	929105.231929714529	1
2	9386	929262.541529126695	0
2	9389	929342.619365938452	1
2	9392	929432.531579719799	2
2	9397	929890.950653650548	1
2	9403	931244.819996015093	0
2	9434	933302.952783779692	1
2	9436	933302.952783779692	0
2	9461	939379.37902894072	1
2	9463	939379.37902894072	0
2	9470	939993.051806130268	1
2	9472	939993.051806130268	0
2	9483	941117.223496044614	1
2	9489	941138.637766411648	0
2	9514	947473.51329801696	1
2	9516	947473.51329801696	0
2	9523	949113.002372725253	1
2	9525	949113.002372725253	0
2	9532	950527.674746466505	1
2	9534	950527.674746466505	0
2	9567	956330.402138055833	1
2	9569	956330.402138055833	0
2	9576	956836.660376565581	1
2	9578	956836.660376565581	0
2	9584	957553.697179471777	1
2	9586	957553.697179471777	0
2	9610	960604.371872100133	1
2	9612	960604.371872100133	0
2	9615	960730.136473995387	1
2	9623	961083.419573782003	0
2	9627	962382.44898472427	1
2	9633	962861.559502525502	2
2	9636	963266.437529492914	3
2	9640	963655.61648982361	4
2	9645	964103.360106428357	3
2	9650	964595.416295274137	2
2	9653	965119.82928865672	3
2	9657	965188.202730731632	4
2	9666	967251.379963919161	3
2	9673	968597.598748287929	4
2	9678	968687.753341151718	3
2	9681	968766.245575153307	4
2	9686	969066.553052885884	3
2	9691	969124.181267367304	2
2	9697	969330.702833379241	3
2	9705	969691.063502264376	2
2	9712	970742.064764380521	3
2	9717	970867.399140640609	2
2	9720	971483.300186258051	3
2	9733	973769.891095729887	2
2	9741	974007.994239629518	1
2	9749	974218.115702202309	0
2	9752	974622.966034612559	1
2	9757	975038.088339727985	0
2	9806	977413.844969733918	1
2	9814	977720.744335828245	0
2	9817	978239.570444399115	1
2	9822	978569.121613249943	0
2	9825	978630.006197315532	1
2	9831	979031.753948671592	0
2	9853	980650.937764532131	1
2	9861	980883.058595315195	0
2	9867	981223.999535385478	1
2	9871	983523.787249408205	2
2	9876	983768.125570451586	1
2	9882	984057.935138507935	0
2	9891	985421.377530841589	1
2	9897	986830.317423400588	0
2	9909	987730.957965380293	1
2	9914	987795.065215350244	0
2	9917	987844.298963442468	1
2	9922	988002.088915908761	0
2	9963	991060.670356472916	1
2	9968	991099.258362661295	0
2	9983	992601.093645069959	1
2	9988	992612.602132496925	0
2	9991	992617.752082490781	1
2	9996	992678.95879031194	0
2	10056	998833.665165292327	1
2	10058	998833.665165292327	0
2	10073	1000057.575281113043	1
2	10075	1000057.575281113043	0
2	10078	1000638.992444795779	1
2	10084	1001227.789693183364	0
2	10087	1001241.103673912271	1
2	10090	1001839.454341887632	2
2	10095	1002722.144736582448	1
2	10101	1003341.227034071284	0
2	10104	1003450.958595106641	1
2	10107	1003657.096947733054	2
2	10113	1003750.858336103362	3
2	10118	1004254.278575414309	2
2	10133	1005606.929113702723	1
2	10137	1007140.447915550457	2
2	10145	1009976.082574453617	3
2	10148	1010434.959175151237	4
2	10153	1010531.711680023699	3
2	10158	1010809.38145973888	2
2	10164	1011189.166876162555	3
2	10168	1011504.335835822963	4
2	10173	1011697.93500598635	3
2	10178	1011838.376986431209	2
2	10184	1011971.590384466488	3
2	10195	1012779.951863810228	2
2	10200	1013003.552086620131	1
2	10207	1014704.183178622506	2
2	10213	1015145.007744846704	1
2	10221	1015420.336985840228	0
2	10283	1017328.114799633028	1
2	10288	1017424.425773001862	0
2	10316	1019070.436926081371	1
2	10318	1019070.436926081371	0
2	10321	1019882.3865724672	1
2	10327	1020321.46237636363	0
2	10338	1020659.049923224492	1
2	10343	1020701.05969474168	0
2	10375	1023861.70661453195	1
2	10377	1023861.70661453195	0
2	10380	1023884.980469473415	1
2	10383	1023958.836632088083	2
2	10389	1025947.052881716249	1
2	10394	1025994.957176290807	0
2	10427	1030544.291462285349	1
2	10429	1030544.291462285349	0
2	10432	1031266.561949272648	1
2	10437	1031774.330485968194	0
2	10452	1032763.953820928816	1
2	10454	1032763.953820928816	0
2	10457	1032873.415558120853	1
2	10460	1033526.981227164814	2
2	10465	1033568.950172946101	1
2	10469	1033874.343475467458	2
2	10475	1034068.321541675911	3
2	10480	1034491.654419324312	2
2	10488	1035115.242411566166	1
2	10491	1035151.708969456413	2
2	10497	1036019.671370579525	1
3	1341	151787.766230966331	4787.0970399287
3	1357	152029.002312078748	2228.4048823836
3	1362	152122.025808913029	395.96355424537
3	1367	152170.886768688255	393.64234045646
3	1373	152594.163749448494	596.62975781676
3	1381	152708.425746217768	0
3	1389	153065.368627489203	0
3	1406	155322.79877718186	875.89833086228
3	1434	156814.709652119037	1111.7045140141
3	1439	156978.79090317505	678.94484388895
3	1477	161219.255638812434	3175.6075273474
3	1482	161306.342478120239	411.67767671984
3	1490	161512.950084839885	0
3	1518	164384.722764862462	1608.8634025787
3	1524	164639.526409009891	772.43189115693
3	1532	165627.494737364185	0
3	1557	167140.420658345114	0
3	1565	167656.734554522285	0
3	1591	170764.22282135956	209.70558414435
3	1599	171206.447513495557	0
3	1766	189191.0421276559	14297.412456557
3	1824	195560.513059093486	18128.081609439
3	1829	195640.189657027706	15627.248306569
3	1834	195774.558754669911	14279.234016209
3	1839	195788.155674025517	14047.52361988
3	1844	195789.383247254071	13706.200961261
3	1849	195804.97025877919	12381.084394069
3	1880	197285.62558051316	13273.652795315
3	1885	197372.034195451459	13225.161829191
3	1890	197608.811646102598	13321.134377732
3	1895	197761.54749329166	13029.194885636
3	1903	197955.24692525672	11124.280492889
3	1911	198444.200223339241	9943.059994518
3	1925	199886.392555524332	7284.7039217563
3	1930	200035.88575008291	6986.448559674
3	1935	200168.502946342674	5082.6605427015
3	1940	200327.268762164361	4133.4139712973
3	1978	204533.026931728524	8191.7005208526
3	1983	204649.301620267749	7725.3924918023
3	1988	204650.612281595859	6765.5977941738
3	1993	204667.593450796127	6367.6908476344
3	2001	204872.25384793552	3238.6860951746
3	2006	205448.713929207187	2902.818915031
3	2011	205634.9084336015	857.57425327778
3	2020	205858.136955238493	0
3	2038	209439.995712174625	0
3	2064	213309.365066905283	0
3	2081	215197.869957268712	0
3	2144	220995.381642599712	3795.0211622541
3	2149	221037.729729401372	1804.3709842949
3	2166	221974.912577415786	2583.9591137329
3	2171	222056.502818793187	2512.6873849868
3	2176	222083.041197026473	2163.2611960431
3	2181	222602.927927883624	711.61061309595
3	2190	223157.891026679698	0
3	2216	227030.133179559342	0
3	2289	232411.102578222746	4154.4742701794
3	2300	232596.952083408439	556.52929538455
3	2305	232620.429701451675	418.67514696483
3	2313	232745.194526140034	307.65441943422
3	2341	234648.241909759291	2201.0651992477
3	2362	237496.051855471648	4787.2853323327
[...]
7	4643	460193.200639851681	3
7	4647	460261.373360147338	2
7	4651	460438.28520385673	3
7	4655	460592.717853960704	2
7	4667	460892.296607395328	3
7	4677	461285.694645635908	2
7	4690	461776.567586721562	1
7	4706	463337.860361981324	2
7	4710	463397.351893232446	1
7	4713	463630.327771980981	0
7	4720	464250.65052626283	1
7	4725	464464.644269027822	2
7	4730	464618.031570406082	1
7	4746	466371.581355943568	2
7	4751	466882.437960299561	3
7	4775	467476.278251527728	2
7	4786	467942.116538531613	1
7	4796	468642.179106691244	0
7	4803	469617.235113435037	1
7	4809	469746.910422628957	2
7	4814	469836.316689788582	3
7	4821	469961.353522766804	2
7	4824	470923.74056017413	1
7	4827	471054.255166111178	0
7	4850	472903.691040652536	1
7	4855	472916.225121217757	2
7	4860	473686.086654449693	1
7	4864	473745.532018856189	2
7	4869	473981.790900583272	3
7	4881	475955.325039262313	4
7	4885	476009.397667048447	3
7	4888	476369.595615247007	2
7	4895	476951.772770192432	1
7	4899	476992.603216388528	2
7	4907	477391.669426530678	3
7	4919	479361.572900442923	4
7	4929	479901.974781091088	3
7	4932	479968.525077975931	2
7	4937	480198.757156689036	3
7	4941	480346.078146664961	2
7	4944	481158.002722853989	1
7	4948	481200.672279327552	2
7	4962	483095.47888445095	1
7	4966	483123.341658100981	2
7	4971	483159.911523759501	3
7	4986	485047.225994332046	4
7	4990	485050.889682118314	3
7	4994	485128.751740451476	4
7	5005	486793.547875311354	3
7	5010	487220.799821614745	4
7	5014	487531.41771128496	3
7	5017	487748.075892502987	2
7	5022	488625.002802035236	3
7	5026	488738.287465259035	2
7	5029	488765.307475079799	1
7	5041	490049.622258475682	0
7	5046	490307.698388662297	1
7	5050	490981.552653417642	0
7	5057	491902.884814361248	1
7	5063	492310.559064021278	2
7	5067	492675.398900734651	1
7	5071	493433.9316004935	2
7	5076	493973.129567114697	1
7	5082	495029.285009846265	0
7	5087	495718.609584967332	1
7	5095	496100.66334288809	2
7	5106	497403.529729103858	1
7	5110	497420.853926374756	2
7	5121	497783.555999902984	3
7	5125	498576.81828086466	2
7	5130	500221.703116006521	3
7	5138	500888.552241387324	2
7	5142	501058.876354514087	3
7	5146	501306.543534199162	2
7	5152	501547.895789816364	1
7	5159	501975.244761792057	2
7	5163	502041.93262754856	1
7	5168	502857.33137550028	2
7	5172	503123.978209733273	1
7	5176	503599.253609024751	2
7	5181	503709.930959975233	3
7	5185	503860.535186493512	2
7	5190	504498.997760627856	3
7	5194	504817.443172602854	2
7	5201	505677.671776052389	3
7	5206	505749.033557265487	2
7	5210	506597.366536684794	3
7	5215	507155.140817077919	4
7	5224	508260.064241178958	5
7	5228	508277.242593057315	4
7	5231	508520.598949189584	3
7	5237	508735.023218521063	2
7	5240	508737.259549863193	1
7	5244	508968.22968027658	2
7	5252	509870.204586835731	1
7	5258	510792.193868174464	0
7	5263	511002.773176192855	1
7	5268	511453.382863905066	2
7	5272	511918.28657744188	1
7	5279	512222.27688844698	2
7	5284	512483.383034767339	3
7	5288	512508.888584965282	2
7	5293	512621.320885767105	3
7	5298	513277.714849923043	4
7	5302	513432.13241072762	3
7	5305	513493.189853591701	2
7	5312	513813.343993517994	3
7	5317	513986.673054647073	4
7	5322	514570.947425590675	3
7	5325	514750.243715387057	2
7	5328	514888.61917095748	1
7	5336	515102.782849258824	0
7	5418	519183.801205920702	1
7	5423	519194.271759785306	2
7	5427	519316.52534087625	1
7	5441	519699.441994678415	0
7	5459	521491.082720257363	1
7	5472	521783.306453932586	2
7	5476	521987.758364177105	1
7	5484	522485.905533836378	0
7	5544	526520.934654341219	1
7	5584	528261.582512919583	0
7	5602	529756.839055917812	1
7	5615	530109.67126887265	2
7	5653	532221.626609767271	1
7	5660	532958.213103118992	2
7	5664	533005.624941061416	1
7	5669	533214.23626848078	2
7	5743	536370.169595726584	3
7	5745	536455.03485119171	2
7	5750	536484.504965862496	1
7	5768	538041.636997814769	2
7	5771	538516.517511122885	1
7	5786	540141.500944742165	2
7	5794	540860.905966533959	3
7	5801	541557.906569602045	2
7	5805	541743.110578697433	1
7	5808	542012.470474769209	0
7	5816	543765.188342396021	1
7	5823	544708.843561058802	0
7	5830	545075.54609359884	1
7	5835	545138.856046127856	0
7	5839	545415.484838538868	1
7	5844	546021.294745053551	2
7	5872	547928.814839828949	1
7	5881	549574.837902649463	0
7	5900	552755.107237105291	1
7	5907	552813.528086169685	0
7	5918	553989.353076016075	1
7	5923	554167.592317617838	2
7	5927	554395.08770872271	1
7	5931	554695.415480435626	2
7	5935	554994.45987754089	1
7	5942	555092.913928916261	2
7	5947	556374.750892457078	1
7	5950	557096.949795575228	0
7	5955	557188.31754281332	1
7	5978	558006.643452328339	2
7	5991	558977.820764089072	1
7	6009	561743.214058165488	2
7	6014	562458.189858356238	1
7	6018	562946.442724464555	2
7	6025	563133.177388022905	1
7	6035	566017.361355359815	0
7	6050	568361.188727611996	1
7	6053	570158.809449460395	0
7	6072	573060.354939250561	1
7	6080	574260.324081676479	2
7	6089	575124.180637166099	3
7	6093	575182.025311140551	2
7	6096	575210.865222568622	1
7	6100	575736.746397745575	2
7	6113	576364.666256738384	1
7	6118	576445.456591479171	0
7	6134	579188.789435553453	1
7	6143	579642.009951597278	2
7	6147	580094.739228109705	1
7	6155	581868.947517811845	2
7	6162	582439.054685173597	1
7	6165	582443.492722198769	0
7	6173	583923.206770521912	1
7	6178	584179.835930940683	2
7	6189	585225.971846214928	1
7	6193	585330.551323019915	2
7	6198	585596.483375589538	3
7	6204	586955.310332805443	4
7	6208	587148.530082121435	3
7	6211	587165.786402034523	2
7	6219	587596.047406538624	1
7	6259	593599.750054486773	0
7	6273	594462.415053512409	1
7	6282	596454.48994585756	2
7	6294	597386.708543733198	3
7	6298	597403.148712435214	2
7	6305	597626.333616779342	3
7	6319	599618.958946167583	2
7	6322	599644.012209595154	1
7	6334	601956.483254304603	2
7	6339	602408.77648715863	3
7	6343	602613.873138111797	2
7	6346	602767.485957536582	1
7	6349	603079.426287137492	0
7	6354	603499.067239239924	1
7	6359	603682.290419175999	2
7	6364	603804.673049229206	3
7	6368	604525.391821113974	2
7	6375	605552.18547580647	1
7	6378	605743.242395930427	0
7	6382	606171.894336014331	1
7	6391	607110.309013998109	2
7	6396	607423.181084845391	3
7	6415	608300.381924340958	2
7	6424	608588.06342638201	1
7	6436	609659.795971295935	2
7	6445	609935.700383085396	1
7	6483	611436.311768842606	2
7	6491	612666.342768847942	1
7	6495	613495.223439600933	2
7	6510	615525.351814574946	3
7	6512	615665.033172084365	2
7	6526	615863.055259042181	3
7	6528	616193.954137475542	2
7	6545	618692.898737429062	1
7	6553	619537.620007109764	2
7	6574	622850.080040568996	1
7	6578	622890.733446249586	2
7	6583	622975.886934918851	3
7	6594	623872.566388469662	4
7	6599	624074.178700682104	3
7	6602	624630.138246082108	2
7	6605	625092.523744767312	1
7	6612	625720.368688596183	0
7	6616	626745.65496418113	1
7	6621	627134.796265387516	2
7	6626	627213.116999567936	3
7	6630	627280.842031127324	2
7	6633	627386.42366376909	1
7	6636	627400.000375663972	0
7	6641	627604.768841804136	1
7	6645	627747.967405482796	0
7	6649	627952.126879532371	1
7	6654	628109.620738733884	2
7	6658	628161.393818140929	1
7	6662	628204.855462515476	2
7	6702	630005.656576586724	1
7	6735	632362.957272401762	2
7	6743	634013.79346466361	1
7	6747	634218.541463354579	2
7	6755	634918.39560614737	1
7	6760	635056.259896238342	0
7	6782	639129.440776573338	1
7	6794	639749.293725605044	2
7	6799	639857.70897659828	3
7	6804	640065.423118922428	4
7	6806	640483.44711391225	3
7	6815	641223.259493522012	2
7	6820	641247.398076389152	1
7	6823	641342.046590937053	0
7	6846	644277.65508103159	1
7	6858	650980.872980462319	2
7	6861	651753.555692474478	1
7	6875	652721.254750870873	2
7	6878	654328.035707934363	1
7	6883	654634.827627404414	0
7	6907	665467.415362595123	1
7	6914	665888.25179028331	0
7	6922	667166.323348141722	1
7	6929	668414.522792710481	0
7	6937	669089.247951410607	1
7	6948	670203.705702060412	2
7	6954	670431.982038539554	3
7	6959	670602.79471056071	4
7	6964	671313.482164926351	5
7	6976	671700.041106165937	4
7	6981	671740.023969354517	3
7	6993	672029.291943800588	2
7	6997	672395.914322289817	3
7	7006	672609.714314223459	2
7	7025	673503.708366251943	1
7	7033	676063.170518793412	0
7	7037	676105.342061630378	1
7	7046	677326.009331592431	2
7	7051	677407.032394068139	3
7	7056	677967.72720822185	4
7	7069	679874.644512832265	3
7	7074	680071.676777989791	2
7	7086	680799.477374831892	1
7	7094	681836.947524334708	0
7	7113	685574.519320870827	1
7	7119	686088.552250724738	2
7	7121	686557.248210904514	1
7	7129	687002.430262793088	0
7	7147	694069.988871386196	1
7	7156	694333.989213247207	2
7	7158	695689.755927135276	1
7	7172	696389.909339442953	0
7	7179	697567.443868683319	1
7	7188	698173.742141067589	2
7	7195	699314.489403367716	1
7	7199	699365.481306174174	2
7	7205	699525.136572697752	3
7	7214	699586.590985235901	2
7	7222	699821.328125197637	1
7	7225	699891.417364811832	0
7	7240	700535.173937614073	1
7	7245	700827.433130142536	2
7	7255	701890.625605849811	1
7	7267	703345.080699850012	0
7	7282	705678.026368706666	1
7	7291	706873.360678493432	2
7	7293	707108.299637691999	1
7	7301	707700.288667241524	0
7	7318	711810.59728545865	1
7	7320	712093.739857455326	0
7	7335	713360.80463809544	1
7	7345	714755.591052749015	0
7	7349	714801.591796132727	1
7	7357	715852.910972477156	0
7	7361	715943.359228665004	1
7	7366	716067.415260170598	2
7	7370	716273.355013573634	1
7	7384	716671.476810478603	0
7	7403	720046.56661922909	1
7	7413	721278.567152327885	0
7	7417	721467.253758541118	1
7	7423	721990.718379877335	2
7	7427	721996.93242855623	1
7	7445	724912.12978927642	2
7	7448	726185.550841639805	1
7	7457	726849.329731223767	0
7	7473	730528.193859222629	1
7	7487	732522.510078142998	0
7	7491	733241.75118833555	1
7	7497	734206.991092687621	2
7	7504	734889.470305578706	1
7	7508	734949.704875689385	2
7	7513	735785.529206716408	1
7	7516	735861.875868409701	0
7	7520	735922.373089779995	1
7	7538	737628.609938939002	0
7	7545	737893.282550897689	1
7	7550	738201.59394693865	2
7	7565	739081.968426445657	1
7	7595	741093.277747799538	2
7	7599	741587.819158377118	1
7	7604	742429.223650590465	2
7	7609	743218.925256311788	3
7	7613	743501.991352131202	2
7	7617	744407.654861428942	1
7	7621	744610.529739835776	2
7	7626	745311.760147979316	3
7	7630	745519.338304402925	2
7	7652	746902.163094104425	1
7	7668	750044.730617380997	2
7	7670	750422.207197527988	1
7	7678	750573.153501283812	0
7	7700	752619.800247388046	1
7	7709	757353.371670635404	0
7	7720	758142.99430044364	1
7	7725	758361.571150597047	2
7	7730	758599.24807605383	3
7	7735	759056.169239121375	4
7	7739	759196.403753037279	3
7	7744	759424.472221696398	4
7	7748	759580.261148201418	3
7	7756	760218.692999651368	2
7	7765	761499.654252347767	1
7	7787	764334.753768560386	0
7	7792	764782.325561604453	1
7	7808	764952.6430290758	2
7	7812	764993.333316611283	1
7	7820	766301.383479820851	2
7	7828	767242.663016103976	3
7	7832	767497.373787481722	2
7	7835	767714.27066416951	1
7	7840	768743.546101509866	2
7	7844	769030.011881353353	1
7	7871	769932.172948619702	0
7	7875	771329.626199155813	1
7	7883	771438.345860666855	0
7	7897	773076.454949180353	1
7	7907	775474.774307333737	2
7	7921	781133.261424726389	3
7	7925	781173.585622502249	2
7	7929	781264.92759229075	3
7	7933	781315.03171987397	2
7	7949	781595.507117253329	1
7	7953	782285.35986446665	0
7	7969	782987.152912695415	1
7	7973	783166.050781221795	0
7	7981	784811.244396951726	1
7	7986	785675.064368404925	0
7	7991	787571.737337769434	1
7	7999	787972.463157173092	2
7	8004	788093.831737882827	3
7	8009	788558.163836534487	4
7	8014	788941.193642072177	3
7	8018	789168.015609195234	4
7	8027	789657.814351181472	3
7	8030	789831.550795902124	2
7	8044	790849.774771105693	1
7	8067	793125.463800527288	2
7	8071	793336.143210345077	1
7	8088	794578.747222163515	0
7	8106	802254.016287742086	1
7	8114	803415.625378473095	0
7	8118	803542.319088900909	1
7	8131	805324.837573596472	0
7	8142	806013.487288589256	1
7	8146	806902.59963719964	0
7	8154	807565.096911867376	1
7	8159	807578.780071611953	2
7	8163	807776.670744637733	1
7	8166	808326.019346318801	0
7	8170	808363.703517213396	1
7	8179	808912.919693730302	0
7	8210	814931.82825850156	1
7	8213	816285.217354423096	0
7	8237	824523.051188679479	1
7	8243	824844.697810791659	2
7	8247	825157.626527589639	1
7	8251	825561.825714344426	2
7	8256	826630.355749682787	1
7	8276	827037.027505276252	2
7	8280	827040.668502917945	1
7	8287	827888.779999001394	2
7	8291	827937.445388586914	1
7	8299	829031.722679616869	2
7	8304	829543.539520507199	3
7	8314	829789.070563900697	2
7	8322	830256.199410524715	1
7	8334	831183.644327666986	2
7	8338	831187.462387484027	1
7	8351	832060.112995683361	2
7	8364	833722.740695516558	1
7	8368	834458.787972985487	2
7	8376	835085.620695633496	1
7	8381	835100.06229093395	0
7	8398	835633.506908928219	1
7	8400	836112.430811164961	0
7	8415	837873.730513195813	1
7	8418	838908.739455743426	0
7	8433	840184.421277186147	1
7	8435	841120.14645056286	0
7	8450	842804.573126176553	1
7	8453	844165.096254386368	0
7	8471	845652.580703583245	1
7	8476	846871.257753432258	0
7	8480	847074.088966838113	1
7	8493	847433.776162870039	2
7	8501	848154.637194952072	3
7	8504	849922.049802283096	2
7	8521	851627.637177842749	1
7	8525	852005.452579897199	0
7	8529	853125.561136786296	1
7	8533	853292.299850886413	0
7	8537	853343.667406245696	1
7	8561	855234.619870614706	2
7	8564	856138.142562164968	1
7	8572	856997.423960567413	0
7	8587	858188.362672895057	1
7	8595	858710.332677469387	2
7	8604	859646.405890842305	3
7	8606	859889.955137775962	2
7	8615	862183.588566361463	1
7	8624	862799.521084244331	0
7	8641	863446.086236020405	1
7	8646	863782.94238009488	2
7	8649	864548.160793489336	1
7	8666	865251.929172869503	2
7	8671	865740.222338377688	1
7	8674	866326.332237899255	0
7	8678	866752.304583037476	1
7	8691	867926.797896986795	0
7	8716	872449.313361958349	1
7	8722	872815.899837841615	2
7	8726	872875.414721006747	1
7	8735	873852.345863028404	0
7	8740	874788.513017022882	1
7	8744	875013.657287699734	0
7	8748	875140.020502249936	1
7	8752	875263.159653665716	0
7	8759	875890.591170544856	1
7	8764	876337.733444442427	0
7	8771	877038.668149608094	1
7	8780	878156.996126698076	2
7	8784	878293.991670449514	1
7	8787	878506.484522388832	0
7	8791	878785.118091114349	1
7	8795	878923.849134348364	0
7	8799	878996.944589130242	1
7	8816	879215.751594577321	0
7	8826	879965.837703857283	1
7	8856	881926.358841154844	2
7	8861	882000.561975433181	3
7	8865	882038.885789188795	2
7	8868	882510.338673193448	1
7	8871	882801.976532405595	0
7	8882	883551.677306284102	1
7	8887	883844.764257184248	2
7	8892	884199.68209019881	3
7	8922	884856.316479685428	2
7	8939	886197.162288180694	3
7	8948	886994.559130784768	4
7	8950	887044.947506411036	3
7	8955	887719.287494399737	2
7	8958	887842.510691642857	1
7	8962	888063.151438394238	0
7	8990	890016.241672075373	1
7	8992	890680.433700550799	0
7	9007	891757.688418284967	1
7	9014	892953.538769851938	0
7	9019	893210.976101318098	1
7	9023	893376.82452952632	0
7	9040	894514.168308199076	1
7	9043	895428.316956037877	0
7	9065	898849.659842577539	1
7	9072	899698.138756383233	0
7	9077	900563.259381274063	1
7	9089	902772.769178275809	2
7	9097	902989.155220496078	3
7	9102	903097.22676104412	4
7	9107	903133.835802062856	5
7	9112	903301.54684035322	6
7	9116	903306.338704273995	5
7	9119	903376.500781275392	4
7	9123	903452.648198003681	3
7	9126	903522.072556902376	2
7	9138	904015.739348493272	3
7	9142	904114.468732556412	2
7	9169	905736.285752182618	1
7	9178	907689.743765246666	0
7	9193	908910.214233120739	1
7	9201	909478.735770666174	2
7	9203	910029.494065629001	1
7	9208	910210.529049193759	0
7	9231	914248.75890519217	1
7	9236	914301.680155546349	2
7	9238	914481.190169232303	1
7	9252	915329.370833555546	2
7	9255	916078.140027336566	1
7	9269	917926.430927264131	0
7	9274	920358.587968006291	1
7	9287	922066.67912766604	0
7	9296	924130.847787148121	1
7	9301	924365.894978374329	2
7	9305	924462.486901850225	1
7	9313	924628.163044274929	0
7	9330	925110.241434557137	1
7	9332	925217.701830353227	0
7	9347	926494.880519667363	1
7	9349	926556.143720188349	0
7	9363	927059.159474461574	1
7	9372	928399.313672725923	2
7	9374	928625.800317708574	1
7	9395	929890.950653650548	2
7	9401	931244.819996015093	3
7	9406	931856.358240876028	4
7	9408	931988.977605266159	3
7	9413	931991.601712799759	2
7	9425	932697.677454710855	1
7	9438	933579.460290887313	0
7	9442	933809.02595025808	1
7	9446	933823.100284740772	0
7	9467	939418.490081160744	1
7	9475	940155.622614401727	2
7	9477	940949.492938587934	1
7	9492	942818.298346999071	2
7	9495	943836.028451935656	1
7	9504	945676.049010740065	0
7	9520	948431.369026047957	1
7	9528	949502.530640347495	2
7	9537	950823.678083878806	3
7	9539	951046.33542769711	2
7	9544	951174.81431016466	1
7	9557	953922.770604472645	0
7	9572	956415.097707874974	1
7	9581	956967.494087040686	2
7	9589	958699.334470385694	1
7	9593	958783.290688438624	2
7	9597	959102.889467426103	1
7	9617	960953.093915204258	0
7	9621	961083.419573782003	1
7	9629	962772.448056642183	0
7	9643	964103.360106428357	1
7	9648	964595.416295274137	2
7	9660	966995.591587216396	1
7	9664	967251.379963919161	2
7	9669	968568.595107460618	1
7	9676	968687.753341151718	2
7	9684	969066.553052885884	3
7	9689	969124.181267367304	4
7	9693	969190.70657891743	3
7	9699	969629.7638207491	2
7	9703	969691.063502264376	3
7	9708	970385.499739559946	2
7	9715	970867.399140640609	3
7	9722	971556.966040103493	2
7	9726	972380.274363788203	1
7	9731	973769.891095729887	2
7	9735	973876.686885885525	1
7	9739	974007.994239629518	2
7	9743	974180.81173345284	1
7	9747	974218.115702202309	2
7	9755	975038.088339727985	3
7	9759	975240.530248144782	2
7	9763	975289.563087446284	3
7	9783	976649.730000483673	2
7	9791	976952.896484297156	1
7	9808	977462.238390838063	0
7	9820	978569.121613249943	1
7	9829	979031.753948671592	2
7	9833	979421.383242637181	1
7	9837	980058.379382122582	2
7	9855	980711.032948199273	1
7	9863	980943.663094900006	0
7	9874	983768.125570451586	1
7	9880	984057.935138507935	2
7	9884	984432.487811150269	1
7	9887	984796.642552235622	0
7	9895	986830.317423400588	1
7	9900	987616.204708609765	0
7	9904	987680.539151719681	1
7	9920	988002.088915908761	2
7	9924	988582.926846908955	1
7	9928	988831.897991139686	2
7	9943	989753.923331507323	1
7	9970	991274.375550585483	0
7	9974	991870.069769640711	1
7	9978	992186.822990252037	0
7	9994	992678.95879031194	1
7	10000	994617.841224864036	2
7	10037	995886.759301706674	1
7	10042	995914.724980342195	0
7	10062	999508.243178623007	1
7	10064	999752.975395765696	0
7	10082	1001227.789693183364	1
7	10093	1002722.144736582448	2
7	10099	1003341.227034071284	3
7	10109	1003681.570892514434	2
7	10116	1004254.278575414309	3
7	10120	1004507.366636398928	2
7	10124	1004997.105858039356	1
7	10127	1005409.160697747656	0
7	10131	1005606.929113702723	1
7	10139	1007274.661394282131	0
7	10151	1010531.711680023699	1
7	10156	1010809.38145973888	2
7	10160	1011151.230419890433	1
7	10171	1011697.93500598635	2
7	10176	1011838.376986431209	3
7	10180	1011919.533047949583	2
7	10186	1012013.981406153864	1
7	10189	1012509.371702071047	0
7	10193	1012779.951863810228	1
7	10198	1013003.552086620131	2
7	10203	1013805.049149560806	1
7	10211	1015145.007744846704	2
7	10215	1015193.139310235303	1
7	10219	1015420.336985840228	2
7	10224	1015444.138496542258	3
7	10279	1017200.002890173436	2
7	10290	1017766.503109069383	1
7	10294	1018102.489764287041	2
7	10307	1018479.268035433395	1
7	10325	1020321.46237636363	2
7	10329	1020582.924602528202	1
7	10333	1020597.555980005707	2
7	10345	1020862.872910992188	1
7	10349	1021624.069510705258	2
7	10353	1021634.024743674395	1
7	10362	1021972.828906027913	0
7	10387	1025947.052881716249	1
7	10392	1025994.957176290807	2
7	10396	1026295.156126901057	1
7	10401	1028284.482823177014	2
7	10409	1029379.371285125996	1
7	10417	1029934.501862307723	0
7	10435	1031774.330485968194	1
7	10440	1031873.74066060508	2
7	10443	1032070.496222994924	1
7	10463	1033568.950172946101	2
7	10471	1033951.779606768315	1
7	10478	1034491.654419324312	2
7	10482	1035097.589799662394	1
7	10486	1035115.242411566166	2
7	10495	1036019.671370579525	3
7	10499	1036348.028272800869	2
