version 2
run ParkingMeasurement-135-20170108-17:29:25-5013
attr configname ParkingMeasurement
attr datetime 20170108-17:29:25
attr experiment ParkingMeasurement
attr inifile parkingStudy.ini
attr iterationvars ""
attr iterationvars2 $repetition=135
attr measurement ""
attr network controltower.SimNetwork
attr processid 5013
attr repetition 135
attr replication #135
attr resultdir results
attr runnumber 135
attr seedset 135
param SimNetwork.a.parkingLot.parkingDelay exponential(30min)
param SimNetwork.a.runway.landingTime exponential(15min)
param SimNetwork.a.runway.takeoffTime exponential(5min)
param SimNetwork.a.runway.throughputCheckInterval 28.571min
param SimNetwork.wg.interArrivalTime exponential(28.571min)

statistic SimNetwork.wg 	responseTime:stats
field count 489
field mean 8205.0910899625
field stddev 5208.9201941034
field sum 4012289.5429917
field sqrsum 46162031778.757
field min 651.80915662144
field max 35357.090989825
attr source  responseTimeSignal
scalar SimNetwork.a.landingQueue 	queueLength:timeavg 	0.47368945817923
attr source  queueLengthSignal
statistic SimNetwork.a.landingQueue 	queueLength:stats
field count 980
field mean 0.93469387755102
field stddev 1.0335636103465
field sum 916
field sqrsum 1902
field min 0
field max 5
attr source  queueLengthSignal
statistic SimNetwork.a.landingQueue 	queueTime:stats
field count 490
field mean 856.76196078488
field stddev 1344.9488195564
field sum 419813.36078459
field sqrsum 1244226021.1631
field min 0
field max 7783.9690981425
attr source  queueTimeSignal
scalar SimNetwork.a.takeoffQueue 	queueLength:timeavg 	1.418363595
attr source  queueLengthSignal
statistic SimNetwork.a.takeoffQueue 	queueLength:stats
field count 978
field mean 2.3568507157464
field stddev 3.354286446352
field sum 2305
field sqrsum 16425
field min 0
field max 17
attr source  queueLengthSignal
statistic SimNetwork.a.takeoffQueue 	queueTime:stats
field count 489
field mean 2567.0186063788
field stddev 3900.5494896803
field sum 1255272.0985192
field sqrsum 10646878557.832
field min 0
field max 22321.169700474
attr source  queueTimeSignal
scalar SimNetwork.a.parkingLot 	parkingOccupancy:timeavg 	1.0003419699121
attr source  parkingOccupancy
statistic SimNetwork.a.parkingLot 	parkingOccupancy:stats
field count 980
field mean 1.4591836734694
field stddev 1.0577634329183
field sum 1430
field sqrsum 3182
field min 0
field max 5
attr source  parkingOccupancy
