version 2
run QueueMeasurement-63-20170105-13:07:05-3729
attr configname QueueMeasurement
attr datetime 20170105-13:07:05
attr experiment QueueMeasurement
attr inifile queueStudy.ini
attr iterationvars ""
attr iterationvars2 $repetition=63
attr measurement ""
attr network SimNetwork
attr processid 3729
attr repetition 63
attr replication #63
attr resultdir results
attr runnumber 63
attr seedset 63
param SimNetwork.a.parkingLot.parkingDelay 45min
param SimNetwork.a.runway.landingTime 5min
param SimNetwork.a.runway.takeoffTime 5min
param SimNetwork.a.runway.throughputCheckInterval 16.667min
param SimNetwork.wg.interArrivalTime 16.667min

vector 0  SimNetwork.wg  responseTime:vector  ETV
attr source  responseTimeSignal
vector 2  SimNetwork.a.landingQueue  queueLength:vector  ETV
attr source  queueLengthSignal
vector 1  SimNetwork.a.landingQueue  queueTime:vector  ETV
attr source  queueTimeSignal
vector 5  SimNetwork.a.runway  landedThroughput:vector  ETV
attr source  landedThroughputSignal
vector 6  SimNetwork.a.runway  tookoffThroughput:vector  ETV
attr source  tookoffThroughputSignal
vector 7  SimNetwork.a.parkingLot  parkingOccupancy:vector  ETV
attr source  parkingOccupancy
vector 4  SimNetwork.a.takeoffQueue  queueLength:vector  ETV
attr source  queueLengthSignal
vector 3  SimNetwork.a.takeoffQueue  queueTime:vector  ETV
attr source  queueTimeSignal
0	1131	68601.36	4600.08
0	1148	69601.38	4600.08
0	1160	70301.34	4300.02
0	1177	71301.36	4300.02
0	1194	72301.38	4300.02
0	1216	73601.46	4600.08
0	1233	74601.48	4600.08
0	1250	75601.5	4600.08
0	1262	76301.46	4300.02
0	1279	77301.48	4300.02
0	1296	78301.5	4300.02
0	1318	79601.58	4600.08
0	1335	80601.6	4600.08
0	1352	81601.62	4600.08
0	1364	82301.58	4300.02
0	1381	83301.6	4300.02
0	1398	84301.62	4300.02
0	1420	85601.7	4600.08
0	1437	86601.72	4600.08
0	1454	87601.74	4600.08
0	1466	88301.7	4300.02
0	1483	89301.72	4300.02
0	1500	90301.74	4300.02
0	1522	91601.82	4600.08
0	1539	92601.84	4600.08
0	1556	93601.86	4600.08
0	1568	94301.82	4300.02
0	1585	95301.84	4300.02
0	1602	96301.86	4300.02
0	1624	97601.94	4600.08
0	1641	98601.96	4600.08
0	1658	99601.98	4600.08
0	1670	100301.94	4300.02
0	1687	101301.96	4300.02
0	1704	102301.98	4300.02
0	1726	103602.06	4600.08
0	1743	104602.08	4600.08
0	1760	105602.1	4600.08
0	1772	106302.06	4300.02
0	1789	107302.08	4300.02
0	1806	108302.1	4300.02
0	1828	109602.18	4600.08
0	1845	110602.2	4600.08
0	1862	111602.22	4600.08
0	1874	112302.18	4300.02
0	1891	113302.2	4300.02
0	1908	114302.22	4300.02
0	1930	115602.3	4600.08
0	1947	116602.32	4600.08
0	1964	117602.34	4600.08
0	1976	118302.3	4300.02
0	1993	119302.32	4300.02
0	2010	120302.34	4300.02
0	2032	121602.42	4600.08
0	2049	122602.44	4600.08
0	2066	123602.46	4600.08
0	2078	124302.42	4300.02
0	2095	125302.44	4300.02
0	2112	126302.46	4300.02
0	2134	127602.54	4600.08
0	2151	128602.56	4600.08
0	2168	129602.58	4600.08
0	2180	130302.54	4300.02
0	2197	131302.56	4300.02
0	2214	132302.58	4300.02
0	2236	133602.66	4600.08
0	2253	134602.68	4600.08
0	2270	135602.7	4600.08
0	2282	136302.66	4300.02
0	2299	137302.68	4300.02
0	2316	138302.7	4300.02
0	2338	139602.78	4600.08
0	2355	140602.8	4600.08
0	2372	141602.82	4600.08
0	2384	142302.78	4300.02
0	2401	143302.8	4300.02
0	2418	144302.82	4300.02
0	2440	145602.9	4600.08
0	2457	146602.92	4600.08
0	2474	147602.94	4600.08
0	2486	148302.9	4300.02
0	2503	149302.92	4300.02
0	2520	150302.94	4300.02
0	2542	151603.02	4600.08
0	2559	152603.04	4600.08
0	2576	153603.06	4600.08
0	2588	154303.02	4300.02
0	2605	155303.04	4300.02
0	2622	156303.06	4300.02
0	2644	157603.14	4600.08
0	2661	158603.16	4600.08
0	2678	159603.18	4600.08
0	2690	160303.14	4300.02
0	2707	161303.16	4300.02
0	2724	162303.18	4300.02
0	2746	163603.26	4600.08
0	2763	164603.28	4600.08
0	2780	165603.3	4600.08
0	2792	166303.26	4300.02
0	2809	167303.28	4300.02
0	2826	168303.3	4300.02
0	2848	169603.38	4600.08
0	2865	170603.4	4600.08
0	2882	171603.42	4600.08
0	2894	172303.38	4300.02
0	2911	173303.4	4300.02
0	2928	174303.42	4300.02
0	2950	175603.5	4600.08
0	2967	176603.52	4600.08
0	2984	177603.54	4600.08
0	2996	178303.5	4300.02
0	3013	179303.52	4300.02
0	3030	180303.54	4300.02
0	3052	181603.62	4600.08
0	3069	182603.64	4600.08
0	3086	183603.66	4600.08
0	3098	184303.62	4300.02
0	3115	185303.64	4300.02
0	3132	186303.66	4300.02
0	3154	187603.74	4600.08
0	3171	188603.76	4600.08
0	3188	189603.78	4600.08
0	3200	190303.74	4300.02
0	3217	191303.76	4300.02
0	3234	192303.78	4300.02
0	3256	193603.86	4600.08
0	3273	194603.88	4600.08
0	3290	195603.9	4600.08
0	3302	196303.86	4300.02
0	3319	197303.88	4300.02
0	3336	198303.9	4300.02
0	3358	199603.98	4600.08
0	3375	200604	4600.08
0	3392	201604.02	4600.08
0	3404	202303.98	4300.02
0	3421	203304	4300.02
0	3438	204304.02	4300.02
0	3460	205604.1	4600.08
0	3477	206604.12	4600.08
0	3494	207604.14	4600.08
0	3506	208304.1	4300.02
0	3523	209304.12	4300.02
0	3540	210304.14	4300.02
0	3562	211604.22	4600.08
0	3579	212604.24	4600.08
0	3596	213604.26	4600.08
0	3608	214304.22	4300.02
0	3625	215304.24	4300.02
0	3642	216304.26	4300.02
0	3664	217604.34	4600.08
0	3681	218604.36	4600.08
0	3698	219604.38	4600.08
0	3710	220304.34	4300.02
0	3727	221304.36	4300.02
0	3744	222304.38	4300.02
0	3766	223604.46	4600.08
0	3783	224604.48	4600.08
0	3800	225604.5	4600.08
0	3812	226304.46	4300.02
0	3829	227304.48	4300.02
0	3846	228304.5	4300.02
0	3868	229604.58	4600.08
0	3885	230604.6	4600.08
0	3902	231604.62	4600.08
0	3914	232304.58	4300.02
0	3931	233304.6	4300.02
0	3948	234304.62	4300.02
0	3970	235604.7	4600.08
0	3987	236604.72	4600.08
0	4004	237604.74	4600.08
0	4016	238304.7	4300.02
0	4033	239304.72	4300.02
0	4050	240304.74	4300.02
0	4072	241604.82	4600.08
0	4089	242604.84	4600.08
0	4106	243604.86	4600.08
0	4118	244304.82	4300.02
0	4135	245304.84	4300.02
0	4152	246304.86	4300.02
0	4174	247604.94	4600.08
0	4191	248604.96	4600.08
0	4208	249604.98	4600.08
0	4220	250304.94	4300.02
0	4237	251304.96	4300.02
0	4254	252304.98	4300.02
0	4276	253605.06	4600.08
0	4293	254605.08	4600.08
0	4310	255605.1	4600.08
0	4322	256305.06	4300.02
0	4339	257305.08	4300.02
0	4356	258305.1	4300.02
0	4378	259605.18	4600.08
0	4395	260605.2	4600.08
0	4412	261605.22	4600.08
0	4424	262305.18	4300.02
0	4441	263305.2	4300.02
0	4458	264305.22	4300.02
0	4480	265605.3	4600.08
0	4497	266605.32	4600.08
0	4514	267605.34	4600.08
0	4526	268305.3	4300.02
0	4543	269305.32	4300.02
0	4560	270305.34	4300.02
0	4582	271605.42	4600.08
0	4599	272605.44	4600.08
0	4616	273605.46	4600.08
0	4628	274305.42	4300.02
0	4645	275305.44	4300.02
0	4662	276305.46	4300.02
0	4684	277605.54	4600.08
0	4701	278605.56	4600.08
0	4718	279605.58	4600.08
0	4730	280305.54	4300.02
0	4747	281305.56	4300.02
0	4764	282305.58	4300.02
0	4786	283605.66	4600.08
0	4803	284605.68	4600.08
0	4820	285605.7	4600.08
0	4832	286305.66	4300.02
0	4849	287305.68	4300.02
0	4866	288305.7	4300.02
0	4888	289605.78	4600.08
0	4905	290605.8	4600.08
0	4922	291605.82	4600.08
0	4934	292305.78	4300.02
0	4951	293305.8	4300.02
0	4968	294305.82	4300.02
0	4990	295605.9	4600.08
0	5007	296605.92	4600.08
0	5024	297605.94	4600.08
0	5036	298305.9	4300.02
0	5053	299305.92	4300.02
0	5070	300305.94	4300.02
0	5092	301606.02	4600.08
0	5109	302606.04	4600.08
0	5126	303606.06	4600.08
0	5138	304306.02	4300.02
0	5155	305306.04	4300.02
0	5172	306306.06	4300.02
0	5194	307606.14	4600.08
0	5211	308606.16	4600.08
0	5228	309606.18	4600.08
0	5240	310306.14	4300.02
0	5257	311306.16	4300.02
0	5274	312306.18	4300.02
0	5296	313606.26	4600.08
0	5313	314606.28	4600.08
0	5330	315606.3	4600.08
0	5342	316306.26	4300.02
0	5359	317306.28	4300.02
0	5376	318306.3	4300.02
0	5398	319606.38	4600.08
0	5415	320606.4	4600.08
0	5432	321606.42	4600.08
0	5444	322306.38	4300.02
0	5461	323306.4	4300.02
0	5478	324306.42	4300.02
0	5500	325606.5	4600.08
0	5517	326606.52	4600.08
0	5534	327606.54	4600.08
0	5546	328306.5	4300.02
0	5563	329306.52	4300.02
0	5580	330306.54	4300.02
0	5602	331606.62	4600.08
0	5619	332606.64	4600.08
0	5636	333606.66	4600.08
0	5648	334306.62	4300.02
0	5665	335306.64	4300.02
0	5682	336306.66	4300.02
0	5704	337606.74	4600.08
0	5721	338606.76	4600.08
0	5738	339606.78	4600.08
0	5750	340306.74	4300.02
0	5767	341306.76	4300.02
0	5784	342306.78	4300.02
0	5806	343606.86	4600.08
0	5823	344606.88	4600.08
0	5840	345606.9	4600.08
0	5852	346306.86	4300.02
0	5869	347306.88	4300.02
0	5886	348306.9	4300.02
0	5908	349606.98	4600.08
0	5925	350607	4600.08
0	5942	351607.02	4600.08
0	5954	352306.98	4300.02
0	5971	353307	4300.02
0	5988	354307.02	4300.02
0	6010	355607.1	4600.08
0	6027	356607.12	4600.08
0	6044	357607.14	4600.08
0	6056	358307.1	4300.02
0	6073	359307.12	4300.02
0	6090	360307.14	4300.02
0	6112	361607.22	4600.08
0	6129	362607.24	4600.08
0	6146	363607.26	4600.08
0	6158	364307.22	4300.02
0	6175	365307.24	4300.02
0	6192	366307.26	4300.02
0	6214	367607.34	4600.08
0	6231	368607.36	4600.08
0	6248	369607.38	4600.08
0	6260	370307.34	4300.02
0	6277	371307.36	4300.02
0	6294	372307.38	4300.02
0	6316	373607.46	4600.08
0	6333	374607.48	4600.08
0	6350	375607.5	4600.08
0	6362	376307.46	4300.02
0	6379	377307.48	4300.02
0	6396	378307.5	4300.02
0	6418	379607.58	4600.08
0	6435	380607.6	4600.08
0	6452	381607.62	4600.08
0	6464	382307.58	4300.02
0	6481	383307.6	4300.02
0	6498	384307.62	4300.02
0	6520	385607.7	4600.08
0	6537	386607.72	4600.08
0	6554	387607.74	4600.08
0	6566	388307.7	4300.02
0	6583	389307.72	4300.02
0	6600	390307.74	4300.02
0	6622	391607.82	4600.08
0	6639	392607.84	4600.08
0	6656	393607.86	4600.08
0	6668	394307.82	4300.02
0	6685	395307.84	4300.02
0	6702	396307.86	4300.02
0	6724	397607.94	4600.08
0	6741	398607.96	4600.08
0	6758	399607.98	4600.08
0	6770	400307.94	4300.02
0	6787	401307.96	4300.02
0	6804	402307.98	4300.02
0	6826	403608.06	4600.08
0	6843	404608.08	4600.08
0	6860	405608.1	4600.08
0	6872	406308.06	4300.02
0	6889	407308.08	4300.02
0	6906	408308.1	4300.02
0	6928	409608.18	4600.08
0	6945	410608.2	4600.08
0	6962	411608.22	4600.08
0	6974	412308.18	4300.02
0	6991	413308.2	4300.02
0	7008	414308.22	4300.02
0	7030	415608.3	4600.08
0	7047	416608.32	4600.08
0	7064	417608.34	4600.08
0	7076	418308.3	4300.02
0	7093	419308.32	4300.02
0	7110	420308.34	4300.02
0	7132	421608.42	4600.08
0	7149	422608.44	4600.08
0	7166	423608.46	4600.08
0	7178	424308.42	4300.02
0	7195	425308.44	4300.02
0	7212	426308.46	4300.02
0	7234	427608.54	4600.08
0	7251	428608.56	4600.08
0	7268	429608.58	4600.08
0	7280	430308.54	4300.02
0	7297	431308.56	4300.02
0	7314	432308.58	4300.02
0	7336	433608.66	4600.08
0	7353	434608.68	4600.08
0	7370	435608.7	4600.08
0	7382	436308.66	4300.02
0	7399	437308.68	4300.02
0	7416	438308.7	4300.02
0	7438	439608.78	4600.08
0	7455	440608.8	4600.08
0	7472	441608.82	4600.08
0	7484	442308.78	4300.02
0	7501	443308.8	4300.02
0	7518	444308.82	4300.02
0	7540	445608.9	4600.08
0	7557	446608.92	4600.08
0	7574	447608.94	4600.08
0	7586	448308.9	4300.02
0	7603	449308.92	4300.02
0	7620	450308.94	4300.02
0	7642	451609.02	4600.08
0	7659	452609.04	4600.08
0	7676	453609.06	4600.08
0	7688	454309.02	4300.02
0	7705	455309.04	4300.02
0	7722	456309.06	4300.02
0	7744	457609.14	4600.08
0	7761	458609.16	4600.08
0	7778	459609.18	4600.08
0	7790	460309.14	4300.02
0	7807	461309.16	4300.02
0	7824	462309.18	4300.02
0	7846	463609.26	4600.08
0	7863	464609.28	4600.08
0	7880	465609.3	4600.08
0	7892	466309.26	4300.02
0	7909	467309.28	4300.02
0	7926	468309.3	4300.02
0	7948	469609.38	4600.08
0	7965	470609.4	4600.08
0	7982	471609.42	4600.08
0	7994	472309.38	4300.02
0	8011	473309.4	4300.02
0	8028	474309.42	4300.02
0	8050	475609.5	4600.08
0	8067	476609.52	4600.08
0	8084	477609.54	4600.08
0	8096	478309.5	4300.02
0	8113	479309.52	4300.02
0	8130	480309.54	4300.02
0	8152	481609.62	4600.08
0	8169	482609.64	4600.08
0	8186	483609.66	4600.08
0	8198	484309.62	4300.02
0	8215	485309.64	4300.02
0	8232	486309.66	4300.02
0	8254	487609.74	4600.08
0	8271	488609.76	4600.08
0	8288	489609.78	4600.08
0	8300	490309.74	4300.02
0	8317	491309.76	4300.02
0	8334	492309.78	4300.02
0	8356	493609.86	4600.08
0	8373	494609.88	4600.08
0	8390	495609.9	4600.08
0	8402	496309.86	4300.02
0	8419	497309.88	4300.02
0	8436	498309.9	4300.02
0	8458	499609.98	4600.08
0	8475	500610	4600.08
0	8492	501610.02	4600.08
0	8504	502309.98	4300.02
0	8521	503310	4300.02
0	8538	504310.02	4300.02
0	8560	505610.1	4600.08
0	8577	506610.12	4600.08
0	8594	507610.14	4600.08
0	8606	508310.1	4300.02
0	8623	509310.12	4300.02
0	8640	510310.14	4300.02
0	8662	511610.22	4600.08
0	8679	512610.24	4600.08
0	8696	513610.26	4600.08
0	8708	514310.22	4300.02
0	8725	515310.24	4300.02
0	8742	516310.26	4300.02
0	8764	517610.34	4600.08
0	8781	518610.36	4600.08
0	8798	519610.38	4600.08
0	8810	520310.34	4300.02
0	8827	521310.36	4300.02
0	8844	522310.38	4300.02
0	8866	523610.46	4600.08
0	8883	524610.48	4600.08
0	8900	525610.5	4600.08
0	8912	526310.46	4300.02
0	8929	527310.48	4300.02
0	8946	528310.5	4300.02
0	8968	529610.58	4600.08
0	8985	530610.6	4600.08
0	9002	531610.62	4600.08
0	9014	532310.58	4300.02
0	9031	533310.6	4300.02
0	9048	534310.62	4300.02
0	9070	535610.7	4600.08
0	9087	536610.72	4600.08
0	9104	537610.74	4600.08
0	9116	538310.7	4300.02
0	9133	539310.72	4300.02
0	9150	540310.74	4300.02
0	9172	541610.82	4600.08
0	9189	542610.84	4600.08
0	9206	543610.86	4600.08
0	9218	544310.82	4300.02
0	9235	545310.84	4300.02
0	9252	546310.86	4300.02
0	9274	547610.94	4600.08
0	9291	548610.96	4600.08
0	9308	549610.98	4600.08
0	9320	550310.94	4300.02
0	9337	551310.96	4300.02
0	9354	552310.98	4300.02
0	9376	553611.06	4600.08
0	9393	554611.08	4600.08
0	9410	555611.1	4600.08
0	9422	556311.06	4300.02
0	9439	557311.08	4300.02
0	9456	558311.1	4300.02
0	9478	559611.18	4600.08
0	9495	560611.2	4600.08
0	9512	561611.22	4600.08
0	9524	562311.18	4300.02
0	9541	563311.2	4300.02
0	9558	564311.22	4300.02
0	9580	565611.3	4600.08
0	9597	566611.32	4600.08
0	9614	567611.34	4600.08
0	9626	568311.3	4300.02
0	9643	569311.32	4300.02
0	9660	570311.34	4300.02
0	9682	571611.42	4600.08
0	9699	572611.44	4600.08
0	9716	573611.46	4600.08
0	9728	574311.42	4300.02
0	9745	575311.44	4300.02
0	9762	576311.46	4300.02
0	9784	577611.54	4600.08
0	9801	578611.56	4600.08
0	9818	579611.58	4600.08
0	9830	580311.54	4300.02
0	9847	581311.56	4300.02
0	9864	582311.58	4300.02
0	9886	583611.66	4600.08
0	9903	584611.68	4600.08
0	9920	585611.7	4600.08
0	9932	586311.66	4300.02
0	9949	587311.68	4300.02
0	9966	588311.7	4300.02
0	9988	589611.78	4600.08
0	10005	590611.8	4600.08
0	10022	591611.82	4600.08
0	10034	592311.78	4300.02
0	10051	593311.8	4300.02
0	10068	594311.82	4300.02
0	10090	595611.9	4600.08
0	10107	596611.92	4600.08
0	10124	597611.94	4600.08
0	10136	598311.9	4300.02
0	10153	599311.92	4300.02
0	10170	600311.94	4300.02
0	10192	601612.02	4600.08
0	10209	602612.04	4600.08
0	10226	603612.06	4600.08
0	10238	604312.02	4300.02
0	10255	605312.04	4300.02
0	10272	606312.06	4300.02
0	10294	607612.14	4600.08
0	10311	608612.16	4600.08
0	10328	609612.18	4600.08
0	10340	610312.14	4300.02
0	10357	611312.16	4300.02
0	10374	612312.18	4300.02
0	10396	613612.26	4600.08
0	10413	614612.28	4600.08
0	10430	615612.3	4600.08
0	10442	616312.26	4300.02
0	10459	617312.28	4300.02
0	10476	618312.3	4300.02
0	10498	619612.38	4600.08
0	10515	620612.4	4600.08
0	10532	621612.42	4600.08
0	10544	622312.38	4300.02
0	10561	623312.4	4300.02
0	10578	624312.42	4300.02
0	10600	625612.5	4600.08
0	10617	626612.52	4600.08
0	10634	627612.54	4600.08
0	10646	628312.5	4300.02
0	10663	629312.52	4300.02
0	10680	630312.54	4300.02
0	10702	631612.62	4600.08
0	10719	632612.64	4600.08
0	10736	633612.66	4600.08
0	10748	634312.62	4300.02
0	10765	635312.64	4300.02
0	10782	636312.66	4300.02
0	10804	637612.74	4600.08
0	10821	638612.76	4600.08
0	10838	639612.78	4600.08
0	10850	640312.74	4300.02
0	10867	641312.76	4300.02
0	10884	642312.78	4300.02
0	10906	643612.86	4600.08
0	10923	644612.88	4600.08
0	10940	645612.9	4600.08
0	10952	646312.86	4300.02
0	10969	647312.88	4300.02
0	10986	648312.9	4300.02
0	11008	649612.98	4600.08
0	11025	650613	4600.08
0	11042	651613.02	4600.08
0	11054	652312.98	4300.02
0	11071	653313	4300.02
0	11088	654313.02	4300.02
0	11110	655613.1	4600.08
0	11127	656613.12	4600.08
0	11144	657613.14	4600.08
0	11156	658313.1	4300.02
0	11173	659313.12	4300.02
0	11190	660313.14	4300.02
0	11212	661613.22	4600.08
0	11229	662613.24	4600.08
0	11246	663613.26	4600.08
0	11258	664313.22	4300.02
0	11275	665313.24	4300.02
0	11292	666313.26	4300.02
0	11314	667613.34	4600.08
0	11331	668613.36	4600.08
0	11348	669613.38	4600.08
0	11360	670313.34	4300.02
0	11377	671313.36	4300.02
0	11394	672313.38	4300.02
0	11416	673613.46	4600.08
0	11433	674613.48	4600.08
0	11450	675613.5	4600.08
0	11462	676313.46	4300.02
0	11479	677313.48	4300.02
0	11496	678313.5	4300.02
0	11518	679613.58	4600.08
0	11535	680613.6	4600.08
0	11552	681613.62	4600.08
0	11564	682313.58	4300.02
0	11581	683313.6	4300.02
0	11598	684313.62	4300.02
0	11620	685613.7	4600.08
0	11637	686613.72	4600.08
0	11654	687613.74	4600.08
0	11666	688313.7	4300.02
0	11683	689313.72	4300.02
0	11700	690313.74	4300.02
0	11722	691613.82	4600.08
0	11739	692613.84	4600.08
0	11756	693613.86	4600.08
0	11768	694313.82	4300.02
0	11785	695313.84	4300.02
0	11802	696313.86	4300.02
0	11824	697613.94	4600.08
0	11841	698613.96	4600.08
0	11858	699613.98	4600.08
0	11870	700313.94	4300.02
0	11887	701313.96	4300.02
0	11904	702313.98	4300.02
0	11926	703614.06	4600.08
0	11943	704614.08	4600.08
0	11960	705614.1	4600.08
0	11972	706314.06	4300.02
0	11989	707314.08	4300.02
0	12006	708314.1	4300.02
0	12028	709614.18	4600.08
0	12045	710614.2	4600.08
0	12062	711614.22	4600.08
0	12074	712314.18	4300.02
0	12091	713314.2	4300.02
0	12108	714314.22	4300.02
0	12130	715614.3	4600.08
0	12147	716614.32	4600.08
0	12164	717614.34	4600.08
0	12176	718314.3	4300.02
0	12193	719314.32	4300.02
0	12210	720314.34	4300.02
0	12232	721614.42	4600.08
0	12249	722614.44	4600.08
0	12266	723614.46	4600.08
0	12278	724314.42	4300.02
0	12295	725314.44	4300.02
0	12312	726314.46	4300.02
0	12334	727614.54	4600.08
0	12351	728614.56	4600.08
0	12368	729614.58	4600.08
0	12380	730314.54	4300.02
0	12397	731314.56	4300.02
0	12414	732314.58	4300.02
0	12436	733614.66	4600.08
0	12453	734614.68	4600.08
0	12470	735614.7	4600.08
0	12482	736314.66	4300.02
0	12499	737314.68	4300.02
0	12516	738314.7	4300.02
0	12538	739614.78	4600.08
0	12555	740614.8	4600.08
0	12572	741614.82	4600.08
0	12584	742314.78	4300.02
0	12601	743314.8	4300.02
0	12618	744314.82	4300.02
0	12640	745614.9	4600.08
0	12657	746614.92	4600.08
0	12674	747614.94	4600.08
0	12686	748314.9	4300.02
0	12703	749314.92	4300.02
0	12720	750314.94	4300.02
0	12742	751615.02	4600.08
0	12759	752615.04	4600.08
0	12776	753615.06	4600.08
0	12788	754315.02	4300.02
0	12805	755315.04	4300.02
0	12822	756315.06	4300.02
0	12844	757615.14	4600.08
0	12861	758615.16	4600.08
0	12878	759615.18	4600.08
0	12890	760315.14	4300.02
0	12907	761315.16	4300.02
0	12924	762315.18	4300.02
0	12946	763615.26	4600.08
0	12963	764615.28	4600.08
0	12980	765615.3	4600.08
0	12992	766315.26	4300.02
0	13009	767315.28	4300.02
0	13026	768315.3	4300.02
0	13048	769615.38	4600.08
0	13065	770615.4	4600.08
0	13082	771615.42	4600.08
0	13094	772315.38	4300.02
0	13111	773315.4	4300.02
0	13128	774315.42	4300.02
0	13150	775615.5	4600.08
0	13167	776615.52	4600.08
0	13184	777615.54	4600.08
0	13196	778315.5	4300.02
0	13213	779315.52	4300.02
0	13230	780315.54	4300.02
0	13252	781615.62	4600.08
0	13269	782615.64	4600.08
0	13286	783615.66	4600.08
0	13298	784315.62	4300.02
0	13315	785315.64	4300.02
0	13332	786315.66	4300.02
0	13354	787615.74	4600.08
0	13371	788615.76	4600.08
0	13388	789615.78	4600.08
0	13400	790315.74	4300.02
0	13417	791315.76	4300.02
0	13434	792315.78	4300.02
0	13456	793615.86	4600.08
0	13473	794615.88	4600.08
0	13490	795615.9	4600.08
0	13502	796315.86	4300.02
0	13519	797315.88	4300.02
0	13536	798315.9	4300.02
0	13558	799615.98	4600.08
0	13575	800616	4600.08
0	13592	801616.02	4600.08
0	13604	802315.98	4300.02
0	13621	803316	4300.02
0	13638	804316.02	4300.02
0	13660	805616.1	4600.08
0	13677	806616.12	4600.08
0	13694	807616.14	4600.08
0	13706	808316.1	4300.02
0	13723	809316.12	4300.02
0	13740	810316.14	4300.02
0	13762	811616.22	4600.08
0	13779	812616.24	4600.08
0	13796	813616.26	4600.08
0	13808	814316.22	4300.02
0	13825	815316.24	4300.02
0	13842	816316.26	4300.02
0	13864	817616.34	4600.08
0	13881	818616.36	4600.08
0	13898	819616.38	4600.08
0	13910	820316.34	4300.02
0	13927	821316.36	4300.02
0	13944	822316.38	4300.02
0	13966	823616.46	4600.08
0	13983	824616.48	4600.08
0	14000	825616.5	4600.08
0	14012	826316.46	4300.02
0	14029	827316.48	4300.02
0	14046	828316.5	4300.02
0	14068	829616.58	4600.08
0	14085	830616.6	4600.08
0	14102	831616.62	4600.08
0	14114	832316.58	4300.02
0	14131	833316.6	4300.02
0	14148	834316.62	4300.02
0	14170	835616.7	4600.08
0	14187	836616.72	4600.08
0	14204	837616.74	4600.08
0	14216	838316.7	4300.02
0	14233	839316.72	4300.02
0	14250	840316.74	4300.02
0	14272	841616.82	4600.08
0	14289	842616.84	4600.08
0	14306	843616.86	4600.08
0	14318	844316.82	4300.02
0	14335	845316.84	4300.02
0	14352	846316.86	4300.02
0	14374	847616.94	4600.08
0	14391	848616.96	4600.08
0	14408	849616.98	4600.08
0	14420	850316.94	4300.02
0	14437	851316.96	4300.02
0	14454	852316.98	4300.02
0	14476	853617.06	4600.08
0	14493	854617.08	4600.08
0	14510	855617.1	4600.08
0	14522	856317.06	4300.02
0	14539	857317.08	4300.02
0	14556	858317.1	4300.02
0	14578	859617.18	4600.08
0	14595	860617.2	4600.08
0	14612	861617.22	4600.08
0	14624	862317.18	4300.02
0	14641	863317.2	4300.02
0	14658	864317.22	4300.02
0	14680	865617.3	4600.08
0	14697	866617.32	4600.08
0	14714	867617.34	4600.08
0	14726	868317.3	4300.02
0	14743	869317.32	4300.02
0	14760	870317.34	4300.02
0	14782	871617.42	4600.08
0	14799	872617.44	4600.08
0	14816	873617.46	4600.08
0	14828	874317.42	4300.02
0	14845	875317.44	4300.02
0	14862	876317.46	4300.02
0	14884	877617.54	4600.08
0	14901	878617.56	4600.08
0	14918	879617.58	4600.08
0	14930	880317.54	4300.02
0	14947	881317.56	4300.02
0	14964	882317.58	4300.02
0	14986	883617.66	4600.08
0	15003	884617.68	4600.08
0	15020	885617.7	4600.08
0	15032	886317.66	4300.02
0	15049	887317.68	4300.02
0	15066	888317.7	4300.02
0	15088	889617.78	4600.08
0	15105	890617.8	4600.08
0	15122	891617.82	4600.08
0	15134	892317.78	4300.02
0	15151	893317.8	4300.02
0	15168	894317.82	4300.02
0	15190	895617.9	4600.08
0	15207	896617.92	4600.08
0	15224	897617.94	4600.08
0	15236	898317.9	4300.02
0	15253	899317.92	4300.02
0	15270	900317.94	4300.02
0	15292	901618.02	4600.08
0	15309	902618.04	4600.08
0	15326	903618.06	4600.08
0	15338	904318.02	4300.02
0	15355	905318.04	4300.02
0	15372	906318.06	4300.02
0	15394	907618.14	4600.08
0	15411	908618.16	4600.08
0	15428	909618.18	4600.08
0	15440	910318.14	4300.02
0	15457	911318.16	4300.02
0	15474	912318.18	4300.02
0	15496	913618.26	4600.08
0	15513	914618.28	4600.08
0	15530	915618.3	4600.08
0	15542	916318.26	4300.02
0	15559	917318.28	4300.02
0	15576	918318.3	4300.02
0	15598	919618.38	4600.08
0	15615	920618.4	4600.08
0	15632	921618.42	4600.08
0	15644	922318.38	4300.02
0	15661	923318.4	4300.02
0	15678	924318.42	4300.02
0	15700	925618.5	4600.08
0	15717	926618.52	4600.08
0	15734	927618.54	4600.08
0	15746	928318.5	4300.02
0	15763	929318.52	4300.02
0	15780	930318.54	4300.02
0	15802	931618.62	4600.08
0	15819	932618.64	4600.08
0	15836	933618.66	4600.08
0	15848	934318.62	4300.02
0	15865	935318.64	4300.02
0	15882	936318.66	4300.02
0	15904	937618.74	4600.08
0	15921	938618.76	4600.08
0	15938	939618.78	4600.08
0	15950	940318.74	4300.02
0	15967	941318.76	4300.02
0	15984	942318.78	4300.02
0	16006	943618.86	4600.08
0	16023	944618.88	4600.08
0	16040	945618.9	4600.08
0	16052	946318.86	4300.02
0	16069	947318.88	4300.02
0	16086	948318.9	4300.02
0	16108	949618.98	4600.08
1	1136	69001.38	0
1	1162	70301.34	299.94
1	1179	71301.36	299.94
1	1196	72301.38	299.94
1	1204	73001.46	0
1	1221	74001.48	0
1	1238	75001.5	0
1	1264	76301.46	299.94
1	1281	77301.48	299.94
1	1298	78301.5	299.94
1	1306	79001.58	0
1	1323	80001.6	0
1	1340	81001.62	0
1	1366	82301.58	299.94
1	1383	83301.6	299.94
1	1400	84301.62	299.94
1	1408	85001.7	0
1	1425	86001.72	0
1	1442	87001.74	0
1	1468	88301.7	299.94
1	1485	89301.72	299.94
1	1502	90301.74	299.94
1	1510	91001.82	0
1	1527	92001.84	0
1	1544	93001.86	0
1	1570	94301.82	299.94
1	1587	95301.84	299.94
1	1604	96301.86	299.94
1	1612	97001.94	0
1	1629	98001.96	0
1	1646	99001.98	0
1	1672	100301.94	299.94
1	1689	101301.96	299.94
1	1706	102301.98	299.94
1	1714	103002.06	0
1	1731	104002.08	0
1	1748	105002.1	0
1	1774	106302.06	299.94
1	1791	107302.08	299.94
1	1808	108302.1	299.94
1	1816	109002.18	0
1	1833	110002.2	0
1	1850	111002.22	0
1	1876	112302.18	299.94
1	1893	113302.2	299.94
1	1910	114302.22	299.94
1	1918	115002.3	0
1	1935	116002.32	0
1	1952	117002.34	0
1	1978	118302.3	299.94
1	1995	119302.32	299.94
1	2012	120302.34	299.94
1	2020	121002.42	0
1	2037	122002.44	0
1	2054	123002.46	0
1	2080	124302.42	299.94
1	2097	125302.44	299.94
1	2114	126302.46	299.94
1	2122	127002.54	0
1	2139	128002.56	0
1	2156	129002.58	0
1	2182	130302.54	299.94
1	2199	131302.56	299.94
1	2216	132302.58	299.94
1	2224	133002.66	0
1	2241	134002.68	0
1	2258	135002.7	0
1	2284	136302.66	299.94
1	2301	137302.68	299.94
1	2318	138302.7	299.94
1	2326	139002.78	0
1	2343	140002.8	0
1	2360	141002.82	0
1	2386	142302.78	299.94
1	2403	143302.8	299.94
1	2420	144302.82	299.94
1	2428	145002.9	0
1	2445	146002.92	0
1	2462	147002.94	0
1	2488	148302.9	299.94
1	2505	149302.92	299.94
1	2522	150302.94	299.94
1	2530	151003.02	0
1	2547	152003.04	0
1	2564	153003.06	0
1	2590	154303.02	299.94
1	2607	155303.04	299.94
1	2624	156303.06	299.94
1	2632	157003.14	0
1	2649	158003.16	0
1	2666	159003.18	0
1	2692	160303.14	299.94
1	2709	161303.16	299.94
1	2726	162303.18	299.94
1	2734	163003.26	0
1	2751	164003.28	0
1	2768	165003.3	0
1	2794	166303.26	299.94
1	2811	167303.28	299.94
1	2828	168303.3	299.94
1	2836	169003.38	0
1	2853	170003.4	0
1	2870	171003.42	0
1	2896	172303.38	299.94
1	2913	173303.4	299.94
1	2930	174303.42	299.94
1	2938	175003.5	0
1	2955	176003.52	0
1	2972	177003.54	0
1	2998	178303.5	299.94
1	3015	179303.52	299.94
1	3032	180303.54	299.94
1	3040	181003.62	0
1	3057	182003.64	0
1	3074	183003.66	0
1	3100	184303.62	299.94
1	3117	185303.64	299.94
1	3134	186303.66	299.94
1	3142	187003.74	0
1	3159	188003.76	0
1	3176	189003.78	0
1	3202	190303.74	299.94
1	3219	191303.76	299.94
1	3236	192303.78	299.94
1	3244	193003.86	0
1	3261	194003.88	0
1	3278	195003.9	0
1	3304	196303.86	299.94
1	3321	197303.88	299.94
1	3338	198303.9	299.94
1	3346	199003.98	0
1	3363	200004	0
1	3380	201004.02	0
1	3406	202303.98	299.94
1	3423	203304	299.94
1	3440	204304.02	299.94
1	3448	205004.1	0
1	3465	206004.12	0
1	3482	207004.14	0
1	3508	208304.1	299.94
1	3525	209304.12	299.94
1	3542	210304.14	299.94
1	3550	211004.22	0
1	3567	212004.24	0
1	3584	213004.26	0
1	3610	214304.22	299.94
1	3627	215304.24	299.94
1	3644	216304.26	299.94
1	3652	217004.34	0
1	3669	218004.36	0
1	3686	219004.38	0
1	3712	220304.34	299.94
1	3729	221304.36	299.94
1	3746	222304.38	299.94
1	3754	223004.46	0
1	3771	224004.48	0
1	3788	225004.5	0
1	3814	226304.46	299.94
1	3831	227304.48	299.94
1	3848	228304.5	299.94
1	3856	229004.58	0
1	3873	230004.6	0
1	3890	231004.62	0
1	3916	232304.58	299.94
1	3933	233304.6	299.94
1	3950	234304.62	299.94
1	3958	235004.7	0
1	3975	236004.72	0
1	3992	237004.74	0
1	4018	238304.7	299.94
1	4035	239304.72	299.94
1	4052	240304.74	299.94
1	4060	241004.82	0
1	4077	242004.84	0
1	4094	243004.86	0
1	4120	244304.82	299.94
1	4137	245304.84	299.94
1	4154	246304.86	299.94
1	4162	247004.94	0
1	4179	248004.96	0
1	4196	249004.98	0
1	4222	250304.94	299.94
1	4239	251304.96	299.94
1	4256	252304.98	299.94
1	4264	253005.06	0
1	4281	254005.08	0
1	4298	255005.1	0
1	4324	256305.06	299.94
1	4341	257305.08	299.94
1	4358	258305.1	299.94
1	4366	259005.18	0
1	4383	260005.2	0
1	4400	261005.22	0
1	4426	262305.18	299.94
1	4443	263305.2	299.94
1	4460	264305.22	299.94
1	4468	265005.3	0
1	4485	266005.32	0
1	4502	267005.34	0
1	4528	268305.3	299.94
1	4545	269305.32	299.94
1	4562	270305.34	299.94
1	4570	271005.42	0
1	4587	272005.44	0
1	4604	273005.46	0
1	4630	274305.42	299.94
1	4647	275305.44	299.94
1	4664	276305.46	299.94
1	4672	277005.54	0
1	4689	278005.56	0
1	4706	279005.58	0
1	4732	280305.54	299.94
1	4749	281305.56	299.94
1	4766	282305.58	299.94
1	4774	283005.66	0
1	4791	284005.68	0
1	4808	285005.7	0
1	4834	286305.66	299.94
1	4851	287305.68	299.94
1	4868	288305.7	299.94
1	4876	289005.78	0
1	4893	290005.8	0
1	4910	291005.82	0
1	4936	292305.78	299.94
1	4953	293305.8	299.94
1	4970	294305.82	299.94
1	4978	295005.9	0
1	4995	296005.92	0
1	5012	297005.94	0
1	5038	298305.9	299.94
1	5055	299305.92	299.94
1	5072	300305.94	299.94
1	5080	301006.02	0
1	5097	302006.04	0
1	5114	303006.06	0
1	5140	304306.02	299.94
1	5157	305306.04	299.94
1	5174	306306.06	299.94
1	5182	307006.14	0
1	5199	308006.16	0
1	5216	309006.18	0
1	5242	310306.14	299.94
1	5259	311306.16	299.94
1	5276	312306.18	299.94
1	5284	313006.26	0
1	5301	314006.28	0
1	5318	315006.3	0
1	5344	316306.26	299.94
1	5361	317306.28	299.94
1	5378	318306.3	299.94
1	5386	319006.38	0
1	5403	320006.4	0
1	5420	321006.42	0
1	5446	322306.38	299.94
1	5463	323306.4	299.94
1	5480	324306.42	299.94
1	5488	325006.5	0
1	5505	326006.52	0
1	5522	327006.54	0
1	5548	328306.5	299.94
1	5565	329306.52	299.94
1	5582	330306.54	299.94
1	5590	331006.62	0
1	5607	332006.64	0
1	5624	333006.66	0
1	5650	334306.62	299.94
1	5667	335306.64	299.94
1	5684	336306.66	299.94
1	5692	337006.74	0
1	5709	338006.76	0
1	5726	339006.78	0
1	5752	340306.74	299.94
1	5769	341306.76	299.94
1	5786	342306.78	299.94
1	5794	343006.86	0
1	5811	344006.88	0
1	5828	345006.9	0
1	5854	346306.86	299.94
1	5871	347306.88	299.94
1	5888	348306.9	299.94
1	5896	349006.98	0
1	5913	350007	0
1	5930	351007.02	0
1	5956	352306.98	299.94
1	5973	353307	299.94
1	5990	354307.02	299.94
1	5998	355007.1	0
1	6015	356007.12	0
1	6032	357007.14	0
1	6058	358307.1	299.94
1	6075	359307.12	299.94
1	6092	360307.14	299.94
1	6100	361007.22	0
1	6117	362007.24	0
1	6134	363007.26	0
1	6160	364307.22	299.94
1	6177	365307.24	299.94
1	6194	366307.26	299.94
1	6202	367007.34	0
1	6219	368007.36	0
1	6236	369007.38	0
1	6262	370307.34	299.94
1	6279	371307.36	299.94
1	6296	372307.38	299.94
1	6304	373007.46	0
1	6321	374007.48	0
1	6338	375007.5	0
1	6364	376307.46	299.94
1	6381	377307.48	299.94
1	6398	378307.5	299.94
1	6406	379007.58	0
1	6423	380007.6	0
1	6440	381007.62	0
1	6466	382307.58	299.94
1	6483	383307.6	299.94
1	6500	384307.62	299.94
1	6508	385007.7	0
1	6525	386007.72	0
1	6542	387007.74	0
1	6568	388307.7	299.94
1	6585	389307.72	299.94
1	6602	390307.74	299.94
1	6610	391007.82	0
1	6627	392007.84	0
1	6644	393007.86	0
1	6670	394307.82	299.94
1	6687	395307.84	299.94
1	6704	396307.86	299.94
1	6712	397007.94	0
1	6729	398007.96	0
1	6746	399007.98	0
1	6772	400307.94	299.94
1	6789	401307.96	299.94
1	6806	402307.98	299.94
1	6814	403008.06	0
1	6831	404008.08	0
1	6848	405008.1	0
1	6874	406308.06	299.94
1	6891	407308.08	299.94
1	6908	408308.1	299.94
1	6916	409008.18	0
1	6933	410008.2	0
1	6950	411008.22	0
1	6976	412308.18	299.94
1	6993	413308.2	299.94
1	7010	414308.22	299.94
1	7018	415008.3	0
1	7035	416008.32	0
1	7052	417008.34	0
1	7078	418308.3	299.94
1	7095	419308.32	299.94
1	7112	420308.34	299.94
1	7120	421008.42	0
1	7137	422008.44	0
1	7154	423008.46	0
1	7180	424308.42	299.94
1	7197	425308.44	299.94
1	7214	426308.46	299.94
1	7222	427008.54	0
1	7239	428008.56	0
1	7256	429008.58	0
1	7282	430308.54	299.94
1	7299	431308.56	299.94
1	7316	432308.58	299.94
1	7324	433008.66	0
1	7341	434008.68	0
1	7358	435008.7	0
1	7384	436308.66	299.94
1	7401	437308.68	299.94
1	7418	438308.7	299.94
1	7426	439008.78	0
1	7443	440008.8	0
1	7460	441008.82	0
1	7486	442308.78	299.94
1	7503	443308.8	299.94
1	7520	444308.82	299.94
1	7528	445008.9	0
1	7545	446008.92	0
1	7562	447008.94	0
1	7588	448308.9	299.94
1	7605	449308.92	299.94
1	7622	450308.94	299.94
1	7630	451009.02	0
1	7647	452009.04	0
1	7664	453009.06	0
1	7690	454309.02	299.94
1	7707	455309.04	299.94
1	7724	456309.06	299.94
1	7732	457009.14	0
1	7749	458009.16	0
1	7766	459009.18	0
1	7792	460309.14	299.94
1	7809	461309.16	299.94
1	7826	462309.18	299.94
1	7834	463009.26	0
1	7851	464009.28	0
1	7868	465009.3	0
1	7894	466309.26	299.94
1	7911	467309.28	299.94
1	7928	468309.3	299.94
1	7936	469009.38	0
1	7953	470009.4	0
1	7970	471009.42	0
1	7996	472309.38	299.94
1	8013	473309.4	299.94
1	8030	474309.42	299.94
1	8038	475009.5	0
1	8055	476009.52	0
1	8072	477009.54	0
1	8098	478309.5	299.94
1	8115	479309.52	299.94
1	8132	480309.54	299.94
1	8140	481009.62	0
1	8157	482009.64	0
1	8174	483009.66	0
1	8200	484309.62	299.94
1	8217	485309.64	299.94
1	8234	486309.66	299.94
1	8242	487009.74	0
1	8259	488009.76	0
1	8276	489009.78	0
1	8302	490309.74	299.94
1	8319	491309.76	299.94
1	8336	492309.78	299.94
1	8344	493009.86	0
1	8361	494009.88	0
1	8378	495009.9	0
1	8404	496309.86	299.94
1	8421	497309.88	299.94
1	8438	498309.9	299.94
1	8446	499009.98	0
1	8463	500010	0
1	8480	501010.02	0
1	8506	502309.98	299.94
1	8523	503310	299.94
1	8540	504310.02	299.94
1	8548	505010.1	0
1	8565	506010.12	0
1	8582	507010.14	0
1	8608	508310.1	299.94
1	8625	509310.12	299.94
1	8642	510310.14	299.94
1	8650	511010.22	0
1	8667	512010.24	0
1	8684	513010.26	0
1	8710	514310.22	299.94
1	8727	515310.24	299.94
1	8744	516310.26	299.94
1	8752	517010.34	0
1	8769	518010.36	0
1	8786	519010.38	0
1	8812	520310.34	299.94
1	8829	521310.36	299.94
1	8846	522310.38	299.94
1	8854	523010.46	0
1	8871	524010.48	0
1	8888	525010.5	0
1	8914	526310.46	299.94
1	8931	527310.48	299.94
1	8948	528310.5	299.94
1	8956	529010.58	0
1	8973	530010.6	0
1	8990	531010.62	0
1	9016	532310.58	299.94
1	9033	533310.6	299.94
1	9050	534310.62	299.94
1	9058	535010.7	0
1	9075	536010.72	0
1	9092	537010.74	0
1	9118	538310.7	299.94
1	9135	539310.72	299.94
1	9152	540310.74	299.94
1	9160	541010.82	0
1	9177	542010.84	0
1	9194	543010.86	0
1	9220	544310.82	299.94
1	9237	545310.84	299.94
1	9254	546310.86	299.94
1	9262	547010.94	0
1	9279	548010.96	0
1	9296	549010.98	0
1	9322	550310.94	299.94
1	9339	551310.96	299.94
1	9356	552310.98	299.94
1	9364	553011.06	0
1	9381	554011.08	0
1	9398	555011.1	0
1	9424	556311.06	299.94
1	9441	557311.08	299.94
1	9458	558311.1	299.94
1	9466	559011.18	0
1	9483	560011.2	0
1	9500	561011.22	0
1	9526	562311.18	299.94
1	9543	563311.2	299.94
1	9560	564311.22	299.94
1	9568	565011.3	0
1	9585	566011.32	0
1	9602	567011.34	0
1	9628	568311.3	299.94
1	9645	569311.32	299.94
1	9662	570311.34	299.94
1	9670	571011.42	0
1	9687	572011.44	0
1	9704	573011.46	0
1	9730	574311.42	299.94
1	9747	575311.44	299.94
1	9764	576311.46	299.94
1	9772	577011.54	0
1	9789	578011.56	0
1	9806	579011.58	0
1	9832	580311.54	299.94
1	9849	581311.56	299.94
1	9866	582311.58	299.94
1	9874	583011.66	0
1	9891	584011.68	0
1	9908	585011.7	0
1	9934	586311.66	299.94
1	9951	587311.68	299.94
1	9968	588311.7	299.94
1	9976	589011.78	0
1	9993	590011.8	0
1	10010	591011.82	0
1	10036	592311.78	299.94
1	10053	593311.8	299.94
1	10070	594311.82	299.94
1	10078	595011.9	0
1	10095	596011.92	0
1	10112	597011.94	0
1	10138	598311.9	299.94
1	10155	599311.92	299.94
1	10172	600311.94	299.94
1	10180	601012.02	0
1	10197	602012.04	0
1	10214	603012.06	0
1	10240	604312.02	299.94
1	10257	605312.04	299.94
1	10274	606312.06	299.94
1	10282	607012.14	0
1	10299	608012.16	0
1	10316	609012.18	0
1	10342	610312.14	299.94
1	10359	611312.16	299.94
1	10376	612312.18	299.94
1	10384	613012.26	0
1	10401	614012.28	0
1	10418	615012.3	0
1	10444	616312.26	299.94
1	10461	617312.28	299.94
1	10478	618312.3	299.94
1	10486	619012.38	0
1	10503	620012.4	0
1	10520	621012.42	0
1	10546	622312.38	299.94
1	10563	623312.4	299.94
1	10580	624312.42	299.94
1	10588	625012.5	0
1	10605	626012.52	0
1	10622	627012.54	0
1	10648	628312.5	299.94
1	10665	629312.52	299.94
1	10682	630312.54	299.94
1	10690	631012.62	0
1	10707	632012.64	0
1	10724	633012.66	0
1	10750	634312.62	299.94
1	10767	635312.64	299.94
1	10784	636312.66	299.94
1	10792	637012.74	0
1	10809	638012.76	0
1	10826	639012.78	0
1	10852	640312.74	299.94
1	10869	641312.76	299.94
1	10886	642312.78	299.94
1	10894	643012.86	0
1	10911	644012.88	0
1	10928	645012.9	0
1	10954	646312.86	299.94
1	10971	647312.88	299.94
1	10988	648312.9	299.94
1	10996	649012.98	0
1	11013	650013	0
1	11030	651013.02	0
1	11056	652312.98	299.94
1	11073	653313	299.94
1	11090	654313.02	299.94
1	11098	655013.1	0
1	11115	656013.12	0
1	11132	657013.14	0
1	11158	658313.1	299.94
1	11175	659313.12	299.94
1	11192	660313.14	299.94
1	11200	661013.22	0
1	11217	662013.24	0
1	11234	663013.26	0
1	11260	664313.22	299.94
1	11277	665313.24	299.94
1	11294	666313.26	299.94
1	11302	667013.34	0
1	11319	668013.36	0
1	11336	669013.38	0
1	11362	670313.34	299.94
1	11379	671313.36	299.94
1	11396	672313.38	299.94
1	11404	673013.46	0
1	11421	674013.48	0
1	11438	675013.5	0
1	11464	676313.46	299.94
1	11481	677313.48	299.94
1	11498	678313.5	299.94
1	11506	679013.58	0
1	11523	680013.6	0
1	11540	681013.62	0
1	11566	682313.58	299.94
1	11583	683313.6	299.94
1	11600	684313.62	299.94
1	11608	685013.7	0
1	11625	686013.72	0
1	11642	687013.74	0
1	11668	688313.7	299.94
1	11685	689313.72	299.94
1	11702	690313.74	299.94
1	11710	691013.82	0
1	11727	692013.84	0
1	11744	693013.86	0
1	11770	694313.82	299.94
1	11787	695313.84	299.94
1	11804	696313.86	299.94
1	11812	697013.94	0
1	11829	698013.96	0
1	11846	699013.98	0
1	11872	700313.94	299.94
1	11889	701313.96	299.94
1	11906	702313.98	299.94
1	11914	703014.06	0
1	11931	704014.08	0
1	11948	705014.1	0
1	11974	706314.06	299.94
1	11991	707314.08	299.94
1	12008	708314.1	299.94
1	12016	709014.18	0
1	12033	710014.2	0
1	12050	711014.22	0
1	12076	712314.18	299.94
1	12093	713314.2	299.94
1	12110	714314.22	299.94
1	12118	715014.3	0
1	12135	716014.32	0
1	12152	717014.34	0
1	12178	718314.3	299.94
1	12195	719314.32	299.94
1	12212	720314.34	299.94
1	12220	721014.42	0
1	12237	722014.44	0
1	12254	723014.46	0
1	12280	724314.42	299.94
1	12297	725314.44	299.94
1	12314	726314.46	299.94
1	12322	727014.54	0
1	12339	728014.56	0
1	12356	729014.58	0
1	12382	730314.54	299.94
1	12399	731314.56	299.94
1	12416	732314.58	299.94
1	12424	733014.66	0
1	12441	734014.68	0
1	12458	735014.7	0
1	12484	736314.66	299.94
1	12501	737314.68	299.94
1	12518	738314.7	299.94
1	12526	739014.78	0
1	12543	740014.8	0
1	12560	741014.82	0
1	12586	742314.78	299.94
1	12603	743314.8	299.94
1	12620	744314.82	299.94
1	12628	745014.9	0
1	12645	746014.92	0
1	12662	747014.94	0
1	12688	748314.9	299.94
1	12705	749314.92	299.94
1	12722	750314.94	299.94
1	12730	751015.02	0
1	12747	752015.04	0
1	12764	753015.06	0
1	12790	754315.02	299.94
1	12807	755315.04	299.94
1	12824	756315.06	299.94
1	12832	757015.14	0
1	12849	758015.16	0
1	12866	759015.18	0
1	12892	760315.14	299.94
1	12909	761315.16	299.94
1	12926	762315.18	299.94
1	12934	763015.26	0
1	12951	764015.28	0
1	12968	765015.3	0
1	12994	766315.26	299.94
1	13011	767315.28	299.94
1	13028	768315.3	299.94
1	13036	769015.38	0
1	13053	770015.4	0
1	13070	771015.42	0
1	13096	772315.38	299.94
1	13113	773315.4	299.94
1	13130	774315.42	299.94
1	13138	775015.5	0
1	13155	776015.52	0
1	13172	777015.54	0
1	13198	778315.5	299.94
1	13215	779315.52	299.94
1	13232	780315.54	299.94
1	13240	781015.62	0
1	13257	782015.64	0
1	13274	783015.66	0
1	13300	784315.62	299.94
1	13317	785315.64	299.94
1	13334	786315.66	299.94
1	13342	787015.74	0
1	13359	788015.76	0
1	13376	789015.78	0
1	13402	790315.74	299.94
1	13419	791315.76	299.94
1	13436	792315.78	299.94
1	13444	793015.86	0
1	13461	794015.88	0
1	13478	795015.9	0
1	13504	796315.86	299.94
1	13521	797315.88	299.94
1	13538	798315.9	299.94
1	13546	799015.98	0
1	13563	800016	0
1	13580	801016.02	0
1	13606	802315.98	299.94
1	13623	803316	299.94
1	13640	804316.02	299.94
1	13648	805016.1	0
1	13665	806016.12	0
1	13682	807016.14	0
1	13708	808316.1	299.94
1	13725	809316.12	299.94
1	13742	810316.14	299.94
1	13750	811016.22	0
1	13767	812016.24	0
1	13784	813016.26	0
1	13810	814316.22	299.94
1	13827	815316.24	299.94
1	13844	816316.26	299.94
1	13852	817016.34	0
1	13869	818016.36	0
1	13886	819016.38	0
1	13912	820316.34	299.94
1	13929	821316.36	299.94
1	13946	822316.38	299.94
1	13954	823016.46	0
1	13971	824016.48	0
1	13988	825016.5	0
1	14014	826316.46	299.94
1	14031	827316.48	299.94
1	14048	828316.5	299.94
1	14056	829016.58	0
1	14073	830016.6	0
1	14090	831016.62	0
1	14116	832316.58	299.94
1	14133	833316.6	299.94
1	14150	834316.62	299.94
1	14158	835016.7	0
1	14175	836016.72	0
1	14192	837016.74	0
1	14218	838316.7	299.94
1	14235	839316.72	299.94
1	14252	840316.74	299.94
1	14260	841016.82	0
1	14277	842016.84	0
1	14294	843016.86	0
1	14320	844316.82	299.94
1	14337	845316.84	299.94
1	14354	846316.86	299.94
1	14362	847016.94	0
1	14379	848016.96	0
1	14396	849016.98	0
1	14422	850316.94	299.94
1	14439	851316.96	299.94
1	14456	852316.98	299.94
1	14464	853017.06	0
1	14481	854017.08	0
1	14498	855017.1	0
1	14524	856317.06	299.94
1	14541	857317.08	299.94
1	14558	858317.1	299.94
1	14566	859017.18	0
1	14583	860017.2	0
1	14600	861017.22	0
1	14626	862317.18	299.94
1	14643	863317.2	299.94
1	14660	864317.22	299.94
1	14668	865017.3	0
1	14685	866017.32	0
1	14702	867017.34	0
1	14728	868317.3	299.94
1	14745	869317.32	299.94
1	14762	870317.34	299.94
1	14770	871017.42	0
1	14787	872017.44	0
1	14804	873017.46	0
1	14830	874317.42	299.94
1	14847	875317.44	299.94
1	14864	876317.46	299.94
1	14872	877017.54	0
1	14889	878017.56	0
1	14906	879017.58	0
1	14932	880317.54	299.94
1	14949	881317.56	299.94
1	14966	882317.58	299.94
1	14974	883017.66	0
1	14991	884017.68	0
1	15008	885017.7	0
1	15034	886317.66	299.94
1	15051	887317.68	299.94
1	15068	888317.7	299.94
1	15076	889017.78	0
1	15093	890017.8	0
1	15110	891017.82	0
1	15136	892317.78	299.94
1	15153	893317.8	299.94
1	15170	894317.82	299.94
1	15178	895017.9	0
1	15195	896017.92	0
1	15212	897017.94	0
1	15238	898317.9	299.94
1	15255	899317.92	299.94
1	15272	900317.94	299.94
1	15280	901018.02	0
1	15297	902018.04	0
1	15314	903018.06	0
1	15340	904318.02	299.94
1	15357	905318.04	299.94
1	15374	906318.06	299.94
1	15382	907018.14	0
1	15399	908018.16	0
1	15416	909018.18	0
1	15442	910318.14	299.94
1	15459	911318.16	299.94
1	15476	912318.18	299.94
1	15484	913018.26	0
1	15501	914018.28	0
1	15518	915018.3	0
1	15544	916318.26	299.94
1	15561	917318.28	299.94
1	15578	918318.3	299.94
1	15586	919018.38	0
1	15603	920018.4	0
1	15620	921018.42	0
1	15646	922318.38	299.94
1	15663	923318.4	299.94
1	15680	924318.42	299.94
1	15688	925018.5	0
1	15705	926018.52	0
1	15722	927018.54	0
1	15748	928318.5	299.94
1	15765	929318.52	299.94
1	15782	930318.54	299.94
1	15790	931018.62	0
1	15807	932018.64	0
1	15824	933018.66	0
1	15850	934318.62	299.94
1	15867	935318.64	299.94
1	15884	936318.66	299.94
1	15892	937018.74	0
1	15909	938018.76	0
1	15926	939018.78	0
1	15952	940318.74	299.94
1	15969	941318.76	299.94
1	15986	942318.78	299.94
1	15994	943018.86	0
1	16011	944018.88	0
1	16028	945018.9	0
1	16054	946318.86	299.94
1	16071	947318.88	299.94
1	16088	948318.9	299.94
1	16096	949018.98	0
1	16113	950019	0
2	1134	69001.38	1
2	1136	69001.38	0
2	1156	70001.4	1
2	1162	70301.34	0
2	1173	71001.42	1
2	1179	71301.36	0
2	1190	72001.44	1
2	1196	72301.38	0
2	1202	73001.46	1
2	1204	73001.46	0
2	1219	74001.48	1
2	1221	74001.48	0
2	1236	75001.5	1
2	1238	75001.5	0
2	1258	76001.52	1
2	1264	76301.46	0
2	1275	77001.54	1
2	1281	77301.48	0
2	1292	78001.56	1
2	1298	78301.5	0
2	1304	79001.58	1
2	1306	79001.58	0
2	1321	80001.6	1
2	1323	80001.6	0
2	1338	81001.62	1
2	1340	81001.62	0
2	1360	82001.64	1
2	1366	82301.58	0
2	1377	83001.66	1
2	1383	83301.6	0
2	1394	84001.68	1
2	1400	84301.62	0
2	1406	85001.7	1
2	1408	85001.7	0
2	1423	86001.72	1
2	1425	86001.72	0
2	1440	87001.74	1
2	1442	87001.74	0
2	1462	88001.76	1
2	1468	88301.7	0
2	1479	89001.78	1
2	1485	89301.72	0
2	1496	90001.8	1
2	1502	90301.74	0
2	1508	91001.82	1
2	1510	91001.82	0
2	1525	92001.84	1
2	1527	92001.84	0
2	1542	93001.86	1
2	1544	93001.86	0
2	1564	94001.88	1
2	1570	94301.82	0
2	1581	95001.9	1
2	1587	95301.84	0
2	1598	96001.92	1
2	1604	96301.86	0
2	1610	97001.94	1
2	1612	97001.94	0
2	1627	98001.96	1
2	1629	98001.96	0
2	1644	99001.98	1
2	1646	99001.98	0
2	1666	100002	1
2	1672	100301.94	0
2	1683	101002.02	1
2	1689	101301.96	0
2	1700	102002.04	1
2	1706	102301.98	0
2	1712	103002.06	1
2	1714	103002.06	0
2	1729	104002.08	1
2	1731	104002.08	0
2	1746	105002.1	1
2	1748	105002.1	0
2	1768	106002.12	1
2	1774	106302.06	0
2	1785	107002.14	1
2	1791	107302.08	0
2	1802	108002.16	1
2	1808	108302.1	0
2	1814	109002.18	1
2	1816	109002.18	0
2	1831	110002.2	1
2	1833	110002.2	0
2	1848	111002.22	1
2	1850	111002.22	0
2	1870	112002.24	1
2	1876	112302.18	0
2	1887	113002.26	1
2	1893	113302.2	0
2	1904	114002.28	1
2	1910	114302.22	0
2	1916	115002.3	1
2	1918	115002.3	0
2	1933	116002.32	1
2	1935	116002.32	0
2	1950	117002.34	1
2	1952	117002.34	0
2	1972	118002.36	1
2	1978	118302.3	0
2	1989	119002.38	1
2	1995	119302.32	0
2	2006	120002.4	1
2	2012	120302.34	0
2	2018	121002.42	1
2	2020	121002.42	0
2	2035	122002.44	1
2	2037	122002.44	0
2	2052	123002.46	1
2	2054	123002.46	0
2	2074	124002.48	1
2	2080	124302.42	0
2	2091	125002.5	1
2	2097	125302.44	0
2	2108	126002.52	1
2	2114	126302.46	0
2	2120	127002.54	1
2	2122	127002.54	0
2	2137	128002.56	1
2	2139	128002.56	0
2	2154	129002.58	1
2	2156	129002.58	0
2	2176	130002.6	1
2	2182	130302.54	0
2	2193	131002.62	1
2	2199	131302.56	0
2	2210	132002.64	1
2	2216	132302.58	0
2	2222	133002.66	1
2	2224	133002.66	0
2	2239	134002.68	1
2	2241	134002.68	0
2	2256	135002.7	1
2	2258	135002.7	0
2	2278	136002.72	1
2	2284	136302.66	0
2	2295	137002.74	1
2	2301	137302.68	0
2	2312	138002.76	1
2	2318	138302.7	0
2	2324	139002.78	1
2	2326	139002.78	0
2	2341	140002.8	1
2	2343	140002.8	0
2	2358	141002.82	1
2	2360	141002.82	0
2	2380	142002.84	1
2	2386	142302.78	0
2	2397	143002.86	1
2	2403	143302.8	0
2	2414	144002.88	1
2	2420	144302.82	0
2	2426	145002.9	1
2	2428	145002.9	0
2	2443	146002.92	1
2	2445	146002.92	0
2	2460	147002.94	1
2	2462	147002.94	0
2	2482	148002.96	1
2	2488	148302.9	0
2	2499	149002.98	1
2	2505	149302.92	0
2	2516	150003	1
2	2522	150302.94	0
2	2528	151003.02	1
2	2530	151003.02	0
2	2545	152003.04	1
2	2547	152003.04	0
2	2562	153003.06	1
2	2564	153003.06	0
2	2584	154003.08	1
2	2590	154303.02	0
2	2601	155003.1	1
2	2607	155303.04	0
2	2618	156003.12	1
2	2624	156303.06	0
2	2630	157003.14	1
2	2632	157003.14	0
2	2647	158003.16	1
2	2649	158003.16	0
2	2664	159003.18	1
2	2666	159003.18	0
2	2686	160003.2	1
2	2692	160303.14	0
2	2703	161003.22	1
2	2709	161303.16	0
2	2720	162003.24	1
2	2726	162303.18	0
2	2732	163003.26	1
2	2734	163003.26	0
2	2749	164003.28	1
2	2751	164003.28	0
2	2766	165003.3	1
2	2768	165003.3	0
2	2788	166003.32	1
2	2794	166303.26	0
2	2805	167003.34	1
2	2811	167303.28	0
2	2822	168003.36	1
2	2828	168303.3	0
2	2834	169003.38	1
2	2836	169003.38	0
2	2851	170003.4	1
2	2853	170003.4	0
2	2868	171003.42	1
2	2870	171003.42	0
2	2890	172003.44	1
2	2896	172303.38	0
2	2907	173003.46	1
2	2913	173303.4	0
2	2924	174003.48	1
2	2930	174303.42	0
2	2936	175003.5	1
2	2938	175003.5	0
2	2953	176003.52	1
2	2955	176003.52	0
2	2970	177003.54	1
2	2972	177003.54	0
2	2992	178003.56	1
2	2998	178303.5	0
2	3009	179003.58	1
2	3015	179303.52	0
2	3026	180003.6	1
2	3032	180303.54	0
2	3038	181003.62	1
2	3040	181003.62	0
2	3055	182003.64	1
2	3057	182003.64	0
2	3072	183003.66	1
2	3074	183003.66	0
2	3094	184003.68	1
2	3100	184303.62	0
2	3111	185003.7	1
2	3117	185303.64	0
2	3128	186003.72	1
2	3134	186303.66	0
2	3140	187003.74	1
2	3142	187003.74	0
2	3157	188003.76	1
2	3159	188003.76	0
2	3174	189003.78	1
2	3176	189003.78	0
2	3196	190003.8	1
2	3202	190303.74	0
2	3213	191003.82	1
2	3219	191303.76	0
2	3230	192003.84	1
2	3236	192303.78	0
2	3242	193003.86	1
2	3244	193003.86	0
2	3259	194003.88	1
2	3261	194003.88	0
2	3276	195003.9	1
2	3278	195003.9	0
2	3298	196003.92	1
2	3304	196303.86	0
2	3315	197003.94	1
2	3321	197303.88	0
2	3332	198003.96	1
2	3338	198303.9	0
2	3344	199003.98	1
2	3346	199003.98	0
2	3361	200004	1
2	3363	200004	0
2	3378	201004.02	1
2	3380	201004.02	0
2	3400	202004.04	1
2	3406	202303.98	0
2	3417	203004.06	1
2	3423	203304	0
2	3434	204004.08	1
2	3440	204304.02	0
2	3446	205004.1	1
2	3448	205004.1	0
2	3463	206004.12	1
2	3465	206004.12	0
2	3480	207004.14	1
2	3482	207004.14	0
2	3502	208004.16	1
2	3508	208304.1	0
2	3519	209004.18	1
2	3525	209304.12	0
2	3536	210004.2	1
2	3542	210304.14	0
2	3548	211004.22	1
2	3550	211004.22	0
2	3565	212004.24	1
2	3567	212004.24	0
2	3582	213004.26	1
2	3584	213004.26	0
2	3604	214004.28	1
2	3610	214304.22	0
2	3621	215004.3	1
2	3627	215304.24	0
2	3638	216004.32	1
2	3644	216304.26	0
2	3650	217004.34	1
2	3652	217004.34	0
2	3667	218004.36	1
2	3669	218004.36	0
2	3684	219004.38	1
2	3686	219004.38	0
2	3706	220004.4	1
2	3712	220304.34	0
2	3723	221004.42	1
2	3729	221304.36	0
2	3740	222004.44	1
2	3746	222304.38	0
2	3752	223004.46	1
2	3754	223004.46	0
2	3769	224004.48	1
2	3771	224004.48	0
2	3786	225004.5	1
2	3788	225004.5	0
2	3808	226004.52	1
2	3814	226304.46	0
2	3825	227004.54	1
2	3831	227304.48	0
2	3842	228004.56	1
2	3848	228304.5	0
2	3854	229004.58	1
2	3856	229004.58	0
2	3871	230004.6	1
2	3873	230004.6	0
2	3888	231004.62	1
2	3890	231004.62	0
2	3910	232004.64	1
2	3916	232304.58	0
2	3927	233004.66	1
2	3933	233304.6	0
2	3944	234004.68	1
2	3950	234304.62	0
2	3956	235004.7	1
2	3958	235004.7	0
2	3973	236004.72	1
2	3975	236004.72	0
2	3990	237004.74	1
2	3992	237004.74	0
2	4012	238004.76	1
2	4018	238304.7	0
2	4029	239004.78	1
2	4035	239304.72	0
2	4046	240004.8	1
2	4052	240304.74	0
2	4058	241004.82	1
2	4060	241004.82	0
2	4075	242004.84	1
2	4077	242004.84	0
2	4092	243004.86	1
2	4094	243004.86	0
2	4114	244004.88	1
2	4120	244304.82	0
2	4131	245004.9	1
2	4137	245304.84	0
2	4148	246004.92	1
2	4154	246304.86	0
2	4160	247004.94	1
2	4162	247004.94	0
2	4177	248004.96	1
2	4179	248004.96	0
2	4194	249004.98	1
2	4196	249004.98	0
2	4216	250005	1
2	4222	250304.94	0
2	4233	251005.02	1
2	4239	251304.96	0
2	4250	252005.04	1
2	4256	252304.98	0
2	4262	253005.06	1
2	4264	253005.06	0
2	4279	254005.08	1
2	4281	254005.08	0
2	4296	255005.1	1
2	4298	255005.1	0
2	4318	256005.12	1
2	4324	256305.06	0
2	4335	257005.14	1
2	4341	257305.08	0
2	4352	258005.16	1
2	4358	258305.1	0
2	4364	259005.18	1
2	4366	259005.18	0
2	4381	260005.2	1
2	4383	260005.2	0
2	4398	261005.22	1
2	4400	261005.22	0
2	4420	262005.24	1
2	4426	262305.18	0
2	4437	263005.26	1
2	4443	263305.2	0
2	4454	264005.28	1
2	4460	264305.22	0
2	4466	265005.3	1
2	4468	265005.3	0
2	4483	266005.32	1
2	4485	266005.32	0
2	4500	267005.34	1
2	4502	267005.34	0
2	4522	268005.36	1
2	4528	268305.3	0
2	4539	269005.38	1
2	4545	269305.32	0
2	4556	270005.4	1
2	4562	270305.34	0
2	4568	271005.42	1
2	4570	271005.42	0
2	4585	272005.44	1
2	4587	272005.44	0
2	4602	273005.46	1
2	4604	273005.46	0
2	4624	274005.48	1
2	4630	274305.42	0
2	4641	275005.5	1
2	4647	275305.44	0
2	4658	276005.52	1
2	4664	276305.46	0
2	4670	277005.54	1
2	4672	277005.54	0
2	4687	278005.56	1
2	4689	278005.56	0
2	4704	279005.58	1
2	4706	279005.58	0
2	4726	280005.6	1
2	4732	280305.54	0
2	4743	281005.62	1
2	4749	281305.56	0
2	4760	282005.64	1
2	4766	282305.58	0
2	4772	283005.66	1
2	4774	283005.66	0
2	4789	284005.68	1
2	4791	284005.68	0
2	4806	285005.7	1
2	4808	285005.7	0
2	4828	286005.72	1
2	4834	286305.66	0
2	4845	287005.74	1
2	4851	287305.68	0
2	4862	288005.76	1
2	4868	288305.7	0
2	4874	289005.78	1
2	4876	289005.78	0
2	4891	290005.8	1
2	4893	290005.8	0
2	4908	291005.82	1
2	4910	291005.82	0
2	4930	292005.84	1
2	4936	292305.78	0
2	4947	293005.86	1
2	4953	293305.8	0
2	4964	294005.88	1
2	4970	294305.82	0
2	4976	295005.9	1
2	4978	295005.9	0
2	4993	296005.92	1
2	4995	296005.92	0
2	5010	297005.94	1
2	5012	297005.94	0
2	5032	298005.96	1
2	5038	298305.9	0
2	5049	299005.98	1
2	5055	299305.92	0
2	5066	300006	1
2	5072	300305.94	0
2	5078	301006.02	1
2	5080	301006.02	0
2	5095	302006.04	1
2	5097	302006.04	0
2	5112	303006.06	1
2	5114	303006.06	0
2	5134	304006.08	1
2	5140	304306.02	0
2	5151	305006.1	1
2	5157	305306.04	0
2	5168	306006.12	1
2	5174	306306.06	0
2	5180	307006.14	1
2	5182	307006.14	0
2	5197	308006.16	1
2	5199	308006.16	0
2	5214	309006.18	1
2	5216	309006.18	0
2	5236	310006.2	1
2	5242	310306.14	0
2	5253	311006.22	1
2	5259	311306.16	0
2	5270	312006.24	1
2	5276	312306.18	0
2	5282	313006.26	1
2	5284	313006.26	0
2	5299	314006.28	1
2	5301	314006.28	0
2	5316	315006.3	1
2	5318	315006.3	0
2	5338	316006.32	1
2	5344	316306.26	0
2	5355	317006.34	1
2	5361	317306.28	0
2	5372	318006.36	1
2	5378	318306.3	0
2	5384	319006.38	1
2	5386	319006.38	0
2	5401	320006.4	1
2	5403	320006.4	0
2	5418	321006.42	1
2	5420	321006.42	0
2	5440	322006.44	1
2	5446	322306.38	0
2	5457	323006.46	1
2	5463	323306.4	0
2	5474	324006.48	1
2	5480	324306.42	0
2	5486	325006.5	1
2	5488	325006.5	0
2	5503	326006.52	1
2	5505	326006.52	0
2	5520	327006.54	1
2	5522	327006.54	0
2	5542	328006.56	1
2	5548	328306.5	0
2	5559	329006.58	1
2	5565	329306.52	0
2	5576	330006.6	1
2	5582	330306.54	0
2	5588	331006.62	1
2	5590	331006.62	0
2	5605	332006.64	1
2	5607	332006.64	0
2	5622	333006.66	1
2	5624	333006.66	0
2	5644	334006.68	1
2	5650	334306.62	0
2	5661	335006.7	1
2	5667	335306.64	0
2	5678	336006.72	1
2	5684	336306.66	0
2	5690	337006.74	1
2	5692	337006.74	0
2	5707	338006.76	1
2	5709	338006.76	0
2	5724	339006.78	1
2	5726	339006.78	0
2	5746	340006.8	1
2	5752	340306.74	0
2	5763	341006.82	1
2	5769	341306.76	0
2	5780	342006.84	1
2	5786	342306.78	0
2	5792	343006.86	1
2	5794	343006.86	0
2	5809	344006.88	1
2	5811	344006.88	0
2	5826	345006.9	1
2	5828	345006.9	0
2	5848	346006.92	1
2	5854	346306.86	0
2	5865	347006.94	1
2	5871	347306.88	0
2	5882	348006.96	1
2	5888	348306.9	0
2	5894	349006.98	1
2	5896	349006.98	0
2	5911	350007	1
2	5913	350007	0
2	5928	351007.02	1
2	5930	351007.02	0
2	5950	352007.04	1
2	5956	352306.98	0
2	5967	353007.06	1
2	5973	353307	0
2	5984	354007.08	1
2	5990	354307.02	0
2	5996	355007.1	1
2	5998	355007.1	0
2	6013	356007.12	1
2	6015	356007.12	0
2	6030	357007.14	1
2	6032	357007.14	0
2	6052	358007.16	1
2	6058	358307.1	0
2	6069	359007.18	1
2	6075	359307.12	0
2	6086	360007.2	1
2	6092	360307.14	0
2	6098	361007.22	1
2	6100	361007.22	0
2	6115	362007.24	1
2	6117	362007.24	0
2	6132	363007.26	1
2	6134	363007.26	0
2	6154	364007.28	1
2	6160	364307.22	0
2	6171	365007.3	1
2	6177	365307.24	0
2	6188	366007.32	1
2	6194	366307.26	0
2	6200	367007.34	1
2	6202	367007.34	0
2	6217	368007.36	1
2	6219	368007.36	0
2	6234	369007.38	1
2	6236	369007.38	0
2	6256	370007.4	1
2	6262	370307.34	0
2	6273	371007.42	1
2	6279	371307.36	0
2	6290	372007.44	1
2	6296	372307.38	0
2	6302	373007.46	1
2	6304	373007.46	0
2	6319	374007.48	1
2	6321	374007.48	0
2	6336	375007.5	1
2	6338	375007.5	0
2	6358	376007.52	1
2	6364	376307.46	0
2	6375	377007.54	1
2	6381	377307.48	0
2	6392	378007.56	1
2	6398	378307.5	0
2	6404	379007.58	1
2	6406	379007.58	0
2	6421	380007.6	1
2	6423	380007.6	0
2	6438	381007.62	1
2	6440	381007.62	0
2	6460	382007.64	1
2	6466	382307.58	0
2	6477	383007.66	1
2	6483	383307.6	0
2	6494	384007.68	1
2	6500	384307.62	0
2	6506	385007.7	1
2	6508	385007.7	0
2	6523	386007.72	1
2	6525	386007.72	0
2	6540	387007.74	1
2	6542	387007.74	0
2	6562	388007.76	1
2	6568	388307.7	0
2	6579	389007.78	1
2	6585	389307.72	0
2	6596	390007.8	1
2	6602	390307.74	0
2	6608	391007.82	1
2	6610	391007.82	0
2	6625	392007.84	1
2	6627	392007.84	0
2	6642	393007.86	1
2	6644	393007.86	0
2	6664	394007.88	1
2	6670	394307.82	0
2	6681	395007.9	1
2	6687	395307.84	0
2	6698	396007.92	1
2	6704	396307.86	0
2	6710	397007.94	1
2	6712	397007.94	0
2	6727	398007.96	1
2	6729	398007.96	0
2	6744	399007.98	1
2	6746	399007.98	0
2	6766	400008	1
2	6772	400307.94	0
2	6783	401008.02	1
2	6789	401307.96	0
2	6800	402008.04	1
2	6806	402307.98	0
2	6812	403008.06	1
2	6814	403008.06	0
2	6829	404008.08	1
2	6831	404008.08	0
2	6846	405008.1	1
2	6848	405008.1	0
2	6868	406008.12	1
2	6874	406308.06	0
2	6885	407008.14	1
2	6891	407308.08	0
2	6902	408008.16	1
2	6908	408308.1	0
2	6914	409008.18	1
2	6916	409008.18	0
2	6931	410008.2	1
2	6933	410008.2	0
2	6948	411008.22	1
2	6950	411008.22	0
2	6970	412008.24	1
2	6976	412308.18	0
2	6987	413008.26	1
2	6993	413308.2	0
2	7004	414008.28	1
2	7010	414308.22	0
2	7016	415008.3	1
2	7018	415008.3	0
2	7033	416008.32	1
2	7035	416008.32	0
2	7050	417008.34	1
2	7052	417008.34	0
2	7072	418008.36	1
2	7078	418308.3	0
2	7089	419008.38	1
2	7095	419308.32	0
2	7106	420008.4	1
2	7112	420308.34	0
2	7118	421008.42	1
2	7120	421008.42	0
2	7135	422008.44	1
2	7137	422008.44	0
2	7152	423008.46	1
2	7154	423008.46	0
2	7174	424008.48	1
2	7180	424308.42	0
2	7191	425008.5	1
2	7197	425308.44	0
2	7208	426008.52	1
2	7214	426308.46	0
2	7220	427008.54	1
2	7222	427008.54	0
2	7237	428008.56	1
2	7239	428008.56	0
2	7254	429008.58	1
2	7256	429008.58	0
2	7276	430008.6	1
2	7282	430308.54	0
2	7293	431008.62	1
2	7299	431308.56	0
2	7310	432008.64	1
2	7316	432308.58	0
2	7322	433008.66	1
2	7324	433008.66	0
2	7339	434008.68	1
2	7341	434008.68	0
2	7356	435008.7	1
2	7358	435008.7	0
2	7378	436008.72	1
2	7384	436308.66	0
2	7395	437008.74	1
2	7401	437308.68	0
2	7412	438008.76	1
2	7418	438308.7	0
2	7424	439008.78	1
2	7426	439008.78	0
2	7441	440008.8	1
2	7443	440008.8	0
2	7458	441008.82	1
2	7460	441008.82	0
2	7480	442008.84	1
2	7486	442308.78	0
2	7497	443008.86	1
2	7503	443308.8	0
2	7514	444008.88	1
2	7520	444308.82	0
2	7526	445008.9	1
2	7528	445008.9	0
2	7543	446008.92	1
2	7545	446008.92	0
2	7560	447008.94	1
2	7562	447008.94	0
2	7582	448008.96	1
2	7588	448308.9	0
2	7599	449008.98	1
2	7605	449308.92	0
2	7616	450009	1
2	7622	450308.94	0
2	7628	451009.02	1
2	7630	451009.02	0
2	7645	452009.04	1
2	7647	452009.04	0
2	7662	453009.06	1
2	7664	453009.06	0
2	7684	454009.08	1
2	7690	454309.02	0
2	7701	455009.1	1
2	7707	455309.04	0
2	7718	456009.12	1
2	7724	456309.06	0
2	7730	457009.14	1
2	7732	457009.14	0
2	7747	458009.16	1
2	7749	458009.16	0
2	7764	459009.18	1
2	7766	459009.18	0
2	7786	460009.2	1
2	7792	460309.14	0
2	7803	461009.22	1
2	7809	461309.16	0
2	7820	462009.24	1
2	7826	462309.18	0
2	7832	463009.26	1
2	7834	463009.26	0
2	7849	464009.28	1
2	7851	464009.28	0
2	7866	465009.3	1
2	7868	465009.3	0
2	7888	466009.32	1
2	7894	466309.26	0
2	7905	467009.34	1
2	7911	467309.28	0
2	7922	468009.36	1
2	7928	468309.3	0
2	7934	469009.38	1
2	7936	469009.38	0
2	7951	470009.4	1
2	7953	470009.4	0
2	7968	471009.42	1
2	7970	471009.42	0
2	7990	472009.44	1
2	7996	472309.38	0
2	8007	473009.46	1
2	8013	473309.4	0
2	8024	474009.48	1
2	8030	474309.42	0
2	8036	475009.5	1
2	8038	475009.5	0
2	8053	476009.52	1
2	8055	476009.52	0
2	8070	477009.54	1
2	8072	477009.54	0
2	8092	478009.56	1
2	8098	478309.5	0
2	8109	479009.58	1
2	8115	479309.52	0
2	8126	480009.6	1
2	8132	480309.54	0
2	8138	481009.62	1
2	8140	481009.62	0
2	8155	482009.64	1
2	8157	482009.64	0
2	8172	483009.66	1
2	8174	483009.66	0
2	8194	484009.68	1
2	8200	484309.62	0
2	8211	485009.7	1
2	8217	485309.64	0
2	8228	486009.72	1
2	8234	486309.66	0
2	8240	487009.74	1
2	8242	487009.74	0
2	8257	488009.76	1
2	8259	488009.76	0
2	8274	489009.78	1
2	8276	489009.78	0
2	8296	490009.8	1
2	8302	490309.74	0
2	8313	491009.82	1
2	8319	491309.76	0
2	8330	492009.84	1
2	8336	492309.78	0
2	8342	493009.86	1
2	8344	493009.86	0
2	8359	494009.88	1
2	8361	494009.88	0
2	8376	495009.9	1
2	8378	495009.9	0
2	8398	496009.92	1
2	8404	496309.86	0
2	8415	497009.94	1
2	8421	497309.88	0
2	8432	498009.96	1
2	8438	498309.9	0
2	8444	499009.98	1
2	8446	499009.98	0
2	8461	500010	1
2	8463	500010	0
2	8478	501010.02	1
2	8480	501010.02	0
2	8500	502010.04	1
2	8506	502309.98	0
2	8517	503010.06	1
2	8523	503310	0
2	8534	504010.08	1
2	8540	504310.02	0
2	8546	505010.1	1
2	8548	505010.1	0
2	8563	506010.12	1
2	8565	506010.12	0
2	8580	507010.14	1
2	8582	507010.14	0
2	8602	508010.16	1
2	8608	508310.1	0
2	8619	509010.18	1
2	8625	509310.12	0
2	8636	510010.2	1
2	8642	510310.14	0
2	8648	511010.22	1
2	8650	511010.22	0
2	8665	512010.24	1
2	8667	512010.24	0
2	8682	513010.26	1
2	8684	513010.26	0
2	8704	514010.28	1
2	8710	514310.22	0
2	8721	515010.3	1
2	8727	515310.24	0
2	8738	516010.32	1
2	8744	516310.26	0
2	8750	517010.34	1
2	8752	517010.34	0
2	8767	518010.36	1
2	8769	518010.36	0
2	8784	519010.38	1
2	8786	519010.38	0
2	8806	520010.4	1
2	8812	520310.34	0
2	8823	521010.42	1
2	8829	521310.36	0
2	8840	522010.44	1
2	8846	522310.38	0
2	8852	523010.46	1
2	8854	523010.46	0
2	8869	524010.48	1
2	8871	524010.48	0
2	8886	525010.5	1
2	8888	525010.5	0
2	8908	526010.52	1
2	8914	526310.46	0
2	8925	527010.54	1
2	8931	527310.48	0
2	8942	528010.56	1
2	8948	528310.5	0
2	8954	529010.58	1
2	8956	529010.58	0
2	8971	530010.6	1
2	8973	530010.6	0
2	8988	531010.62	1
2	8990	531010.62	0
2	9010	532010.64	1
2	9016	532310.58	0
2	9027	533010.66	1
2	9033	533310.6	0
2	9044	534010.68	1
2	9050	534310.62	0
2	9056	535010.7	1
2	9058	535010.7	0
2	9073	536010.72	1
2	9075	536010.72	0
2	9090	537010.74	1
2	9092	537010.74	0
2	9112	538010.76	1
2	9118	538310.7	0
2	9129	539010.78	1
2	9135	539310.72	0
2	9146	540010.8	1
2	9152	540310.74	0
2	9158	541010.82	1
2	9160	541010.82	0
2	9175	542010.84	1
2	9177	542010.84	0
2	9192	543010.86	1
2	9194	543010.86	0
2	9214	544010.88	1
2	9220	544310.82	0
2	9231	545010.9	1
2	9237	545310.84	0
2	9248	546010.92	1
2	9254	546310.86	0
2	9260	547010.94	1
2	9262	547010.94	0
2	9277	548010.96	1
2	9279	548010.96	0
2	9294	549010.98	1
2	9296	549010.98	0
2	9316	550011	1
2	9322	550310.94	0
2	9333	551011.02	1
2	9339	551310.96	0
2	9350	552011.04	1
2	9356	552310.98	0
2	9362	553011.06	1
2	9364	553011.06	0
2	9379	554011.08	1
2	9381	554011.08	0
2	9396	555011.1	1
2	9398	555011.1	0
2	9418	556011.12	1
2	9424	556311.06	0
2	9435	557011.14	1
2	9441	557311.08	0
2	9452	558011.16	1
2	9458	558311.1	0
2	9464	559011.18	1
2	9466	559011.18	0
2	9481	560011.2	1
2	9483	560011.2	0
2	9498	561011.22	1
2	9500	561011.22	0
2	9520	562011.24	1
2	9526	562311.18	0
2	9537	563011.26	1
2	9543	563311.2	0
2	9554	564011.28	1
2	9560	564311.22	0
2	9566	565011.3	1
2	9568	565011.3	0
2	9583	566011.32	1
2	9585	566011.32	0
2	9600	567011.34	1
2	9602	567011.34	0
2	9622	568011.36	1
2	9628	568311.3	0
2	9639	569011.38	1
2	9645	569311.32	0
2	9656	570011.4	1
2	9662	570311.34	0
2	9668	571011.42	1
2	9670	571011.42	0
2	9685	572011.44	1
2	9687	572011.44	0
2	9702	573011.46	1
2	9704	573011.46	0
2	9724	574011.48	1
2	9730	574311.42	0
2	9741	575011.5	1
2	9747	575311.44	0
2	9758	576011.52	1
2	9764	576311.46	0
2	9770	577011.54	1
2	9772	577011.54	0
2	9787	578011.56	1
2	9789	578011.56	0
2	9804	579011.58	1
2	9806	579011.58	0
2	9826	580011.6	1
2	9832	580311.54	0
2	9843	581011.62	1
2	9849	581311.56	0
2	9860	582011.64	1
2	9866	582311.58	0
2	9872	583011.66	1
2	9874	583011.66	0
2	9889	584011.68	1
2	9891	584011.68	0
2	9906	585011.7	1
2	9908	585011.7	0
2	9928	586011.72	1
2	9934	586311.66	0
2	9945	587011.74	1
2	9951	587311.68	0
2	9962	588011.76	1
2	9968	588311.7	0
2	9974	589011.78	1
2	9976	589011.78	0
2	9991	590011.8	1
2	9993	590011.8	0
2	10008	591011.82	1
2	10010	591011.82	0
2	10030	592011.84	1
2	10036	592311.78	0
2	10047	593011.86	1
2	10053	593311.8	0
2	10064	594011.88	1
2	10070	594311.82	0
2	10076	595011.9	1
2	10078	595011.9	0
2	10093	596011.92	1
2	10095	596011.92	0
2	10110	597011.94	1
2	10112	597011.94	0
2	10132	598011.96	1
2	10138	598311.9	0
2	10149	599011.98	1
2	10155	599311.92	0
2	10166	600012	1
2	10172	600311.94	0
2	10178	601012.02	1
2	10180	601012.02	0
2	10195	602012.04	1
2	10197	602012.04	0
2	10212	603012.06	1
2	10214	603012.06	0
2	10234	604012.08	1
2	10240	604312.02	0
2	10251	605012.1	1
2	10257	605312.04	0
2	10268	606012.12	1
2	10274	606312.06	0
2	10280	607012.14	1
2	10282	607012.14	0
2	10297	608012.16	1
2	10299	608012.16	0
2	10314	609012.18	1
2	10316	609012.18	0
2	10336	610012.2	1
2	10342	610312.14	0
2	10353	611012.22	1
2	10359	611312.16	0
2	10370	612012.24	1
2	10376	612312.18	0
2	10382	613012.26	1
2	10384	613012.26	0
2	10399	614012.28	1
2	10401	614012.28	0
2	10416	615012.3	1
2	10418	615012.3	0
2	10438	616012.32	1
2	10444	616312.26	0
2	10455	617012.34	1
2	10461	617312.28	0
2	10472	618012.36	1
2	10478	618312.3	0
2	10484	619012.38	1
2	10486	619012.38	0
2	10501	620012.4	1
2	10503	620012.4	0
2	10518	621012.42	1
2	10520	621012.42	0
2	10540	622012.44	1
2	10546	622312.38	0
2	10557	623012.46	1
2	10563	623312.4	0
2	10574	624012.48	1
2	10580	624312.42	0
2	10586	625012.5	1
2	10588	625012.5	0
2	10603	626012.52	1
2	10605	626012.52	0
2	10620	627012.54	1
2	10622	627012.54	0
2	10642	628012.56	1
2	10648	628312.5	0
2	10659	629012.58	1
2	10665	629312.52	0
2	10676	630012.6	1
2	10682	630312.54	0
2	10688	631012.62	1
2	10690	631012.62	0
2	10705	632012.64	1
2	10707	632012.64	0
2	10722	633012.66	1
2	10724	633012.66	0
2	10744	634012.68	1
2	10750	634312.62	0
2	10761	635012.7	1
2	10767	635312.64	0
2	10778	636012.72	1
2	10784	636312.66	0
2	10790	637012.74	1
2	10792	637012.74	0
2	10807	638012.76	1
2	10809	638012.76	0
2	10824	639012.78	1
2	10826	639012.78	0
2	10846	640012.8	1
2	10852	640312.74	0
2	10863	641012.82	1
2	10869	641312.76	0
2	10880	642012.84	1
2	10886	642312.78	0
2	10892	643012.86	1
2	10894	643012.86	0
2	10909	644012.88	1
2	10911	644012.88	0
2	10926	645012.9	1
2	10928	645012.9	0
2	10948	646012.92	1
2	10954	646312.86	0
2	10965	647012.94	1
2	10971	647312.88	0
2	10982	648012.96	1
2	10988	648312.9	0
2	10994	649012.98	1
2	10996	649012.98	0
2	11011	650013	1
2	11013	650013	0
2	11028	651013.02	1
2	11030	651013.02	0
2	11050	652013.04	1
2	11056	652312.98	0
2	11067	653013.06	1
2	11073	653313	0
2	11084	654013.08	1
2	11090	654313.02	0
2	11096	655013.1	1
2	11098	655013.1	0
2	11113	656013.12	1
2	11115	656013.12	0
2	11130	657013.14	1
2	11132	657013.14	0
2	11152	658013.16	1
2	11158	658313.1	0
2	11169	659013.18	1
2	11175	659313.12	0
2	11186	660013.2	1
2	11192	660313.14	0
2	11198	661013.22	1
2	11200	661013.22	0
2	11215	662013.24	1
2	11217	662013.24	0
2	11232	663013.26	1
2	11234	663013.26	0
2	11254	664013.28	1
2	11260	664313.22	0
2	11271	665013.3	1
2	11277	665313.24	0
2	11288	666013.32	1
2	11294	666313.26	0
2	11300	667013.34	1
2	11302	667013.34	0
2	11317	668013.36	1
2	11319	668013.36	0
2	11334	669013.38	1
2	11336	669013.38	0
2	11356	670013.4	1
2	11362	670313.34	0
2	11373	671013.42	1
2	11379	671313.36	0
2	11390	672013.44	1
2	11396	672313.38	0
2	11402	673013.46	1
2	11404	673013.46	0
2	11419	674013.48	1
2	11421	674013.48	0
2	11436	675013.5	1
2	11438	675013.5	0
2	11458	676013.52	1
2	11464	676313.46	0
2	11475	677013.54	1
2	11481	677313.48	0
2	11492	678013.56	1
2	11498	678313.5	0
2	11504	679013.58	1
2	11506	679013.58	0
2	11521	680013.6	1
2	11523	680013.6	0
2	11538	681013.62	1
2	11540	681013.62	0
2	11560	682013.64	1
2	11566	682313.58	0
2	11577	683013.66	1
2	11583	683313.6	0
2	11594	684013.68	1
2	11600	684313.62	0
2	11606	685013.7	1
2	11608	685013.7	0
2	11623	686013.72	1
2	11625	686013.72	0
2	11640	687013.74	1
2	11642	687013.74	0
2	11662	688013.76	1
2	11668	688313.7	0
2	11679	689013.78	1
2	11685	689313.72	0
2	11696	690013.8	1
2	11702	690313.74	0
2	11708	691013.82	1
2	11710	691013.82	0
2	11725	692013.84	1
2	11727	692013.84	0
2	11742	693013.86	1
2	11744	693013.86	0
2	11764	694013.88	1
2	11770	694313.82	0
2	11781	695013.9	1
2	11787	695313.84	0
2	11798	696013.92	1
2	11804	696313.86	0
2	11810	697013.94	1
2	11812	697013.94	0
2	11827	698013.96	1
2	11829	698013.96	0
2	11844	699013.98	1
2	11846	699013.98	0
2	11866	700014	1
2	11872	700313.94	0
2	11883	701014.02	1
2	11889	701313.96	0
2	11900	702014.04	1
2	11906	702313.98	0
2	11912	703014.06	1
2	11914	703014.06	0
2	11929	704014.08	1
2	11931	704014.08	0
2	11946	705014.1	1
2	11948	705014.1	0
2	11968	706014.12	1
2	11974	706314.06	0
2	11985	707014.14	1
2	11991	707314.08	0
2	12002	708014.16	1
2	12008	708314.1	0
2	12014	709014.18	1
2	12016	709014.18	0
2	12031	710014.2	1
2	12033	710014.2	0
2	12048	711014.22	1
2	12050	711014.22	0
2	12070	712014.24	1
2	12076	712314.18	0
2	12087	713014.26	1
2	12093	713314.2	0
2	12104	714014.28	1
2	12110	714314.22	0
2	12116	715014.3	1
2	12118	715014.3	0
2	12133	716014.32	1
2	12135	716014.32	0
2	12150	717014.34	1
2	12152	717014.34	0
2	12172	718014.36	1
2	12178	718314.3	0
2	12189	719014.38	1
2	12195	719314.32	0
2	12206	720014.4	1
2	12212	720314.34	0
2	12218	721014.42	1
2	12220	721014.42	0
2	12235	722014.44	1
2	12237	722014.44	0
2	12252	723014.46	1
2	12254	723014.46	0
2	12274	724014.48	1
2	12280	724314.42	0
2	12291	725014.5	1
2	12297	725314.44	0
2	12308	726014.52	1
2	12314	726314.46	0
2	12320	727014.54	1
2	12322	727014.54	0
2	12337	728014.56	1
2	12339	728014.56	0
2	12354	729014.58	1
2	12356	729014.58	0
2	12376	730014.6	1
2	12382	730314.54	0
2	12393	731014.62	1
2	12399	731314.56	0
2	12410	732014.64	1
2	12416	732314.58	0
2	12422	733014.66	1
2	12424	733014.66	0
2	12439	734014.68	1
2	12441	734014.68	0
2	12456	735014.7	1
2	12458	735014.7	0
2	12478	736014.72	1
2	12484	736314.66	0
2	12495	737014.74	1
2	12501	737314.68	0
2	12512	738014.76	1
2	12518	738314.7	0
2	12524	739014.78	1
2	12526	739014.78	0
2	12541	740014.8	1
2	12543	740014.8	0
2	12558	741014.82	1
2	12560	741014.82	0
2	12580	742014.84	1
2	12586	742314.78	0
2	12597	743014.86	1
2	12603	743314.8	0
2	12614	744014.88	1
2	12620	744314.82	0
2	12626	745014.9	1
2	12628	745014.9	0
2	12643	746014.92	1
2	12645	746014.92	0
2	12660	747014.94	1
2	12662	747014.94	0
2	12682	748014.96	1
2	12688	748314.9	0
2	12699	749014.98	1
2	12705	749314.92	0
2	12716	750015	1
2	12722	750314.94	0
2	12728	751015.02	1
2	12730	751015.02	0
2	12745	752015.04	1
2	12747	752015.04	0
2	12762	753015.06	1
2	12764	753015.06	0
2	12784	754015.08	1
2	12790	754315.02	0
2	12801	755015.1	1
2	12807	755315.04	0
2	12818	756015.12	1
2	12824	756315.06	0
2	12830	757015.14	1
2	12832	757015.14	0
2	12847	758015.16	1
2	12849	758015.16	0
2	12864	759015.18	1
2	12866	759015.18	0
2	12886	760015.2	1
2	12892	760315.14	0
2	12903	761015.22	1
2	12909	761315.16	0
2	12920	762015.24	1
2	12926	762315.18	0
2	12932	763015.26	1
2	12934	763015.26	0
2	12949	764015.28	1
2	12951	764015.28	0
2	12966	765015.3	1
2	12968	765015.3	0
2	12988	766015.32	1
2	12994	766315.26	0
2	13005	767015.34	1
2	13011	767315.28	0
2	13022	768015.36	1
2	13028	768315.3	0
2	13034	769015.38	1
2	13036	769015.38	0
2	13051	770015.4	1
2	13053	770015.4	0
2	13068	771015.42	1
2	13070	771015.42	0
2	13090	772015.44	1
2	13096	772315.38	0
2	13107	773015.46	1
2	13113	773315.4	0
2	13124	774015.48	1
2	13130	774315.42	0
2	13136	775015.5	1
2	13138	775015.5	0
2	13153	776015.52	1
2	13155	776015.52	0
2	13170	777015.54	1
2	13172	777015.54	0
2	13192	778015.56	1
2	13198	778315.5	0
2	13209	779015.58	1
2	13215	779315.52	0
2	13226	780015.6	1
2	13232	780315.54	0
2	13238	781015.62	1
2	13240	781015.62	0
2	13255	782015.64	1
2	13257	782015.64	0
2	13272	783015.66	1
2	13274	783015.66	0
2	13294	784015.68	1
2	13300	784315.62	0
2	13311	785015.7	1
2	13317	785315.64	0
2	13328	786015.72	1
2	13334	786315.66	0
2	13340	787015.74	1
2	13342	787015.74	0
2	13357	788015.76	1
2	13359	788015.76	0
2	13374	789015.78	1
2	13376	789015.78	0
2	13396	790015.8	1
2	13402	790315.74	0
2	13413	791015.82	1
2	13419	791315.76	0
2	13430	792015.84	1
2	13436	792315.78	0
2	13442	793015.86	1
2	13444	793015.86	0
2	13459	794015.88	1
2	13461	794015.88	0
2	13476	795015.9	1
2	13478	795015.9	0
2	13498	796015.92	1
2	13504	796315.86	0
2	13515	797015.94	1
2	13521	797315.88	0
2	13532	798015.96	1
2	13538	798315.9	0
2	13544	799015.98	1
2	13546	799015.98	0
2	13561	800016	1
2	13563	800016	0
2	13578	801016.02	1
2	13580	801016.02	0
2	13600	802016.04	1
2	13606	802315.98	0
2	13617	803016.06	1
2	13623	803316	0
2	13634	804016.08	1
2	13640	804316.02	0
2	13646	805016.1	1
2	13648	805016.1	0
2	13663	806016.12	1
2	13665	806016.12	0
2	13680	807016.14	1
2	13682	807016.14	0
2	13702	808016.16	1
2	13708	808316.1	0
2	13719	809016.18	1
2	13725	809316.12	0
2	13736	810016.2	1
2	13742	810316.14	0
2	13748	811016.22	1
2	13750	811016.22	0
2	13765	812016.24	1
2	13767	812016.24	0
2	13782	813016.26	1
2	13784	813016.26	0
2	13804	814016.28	1
2	13810	814316.22	0
2	13821	815016.3	1
2	13827	815316.24	0
2	13838	816016.32	1
2	13844	816316.26	0
2	13850	817016.34	1
2	13852	817016.34	0
2	13867	818016.36	1
2	13869	818016.36	0
2	13884	819016.38	1
2	13886	819016.38	0
2	13906	820016.4	1
2	13912	820316.34	0
2	13923	821016.42	1
2	13929	821316.36	0
2	13940	822016.44	1
2	13946	822316.38	0
2	13952	823016.46	1
2	13954	823016.46	0
2	13969	824016.48	1
2	13971	824016.48	0
2	13986	825016.5	1
2	13988	825016.5	0
2	14008	826016.52	1
2	14014	826316.46	0
2	14025	827016.54	1
2	14031	827316.48	0
2	14042	828016.56	1
2	14048	828316.5	0
2	14054	829016.58	1
2	14056	829016.58	0
2	14071	830016.6	1
2	14073	830016.6	0
2	14088	831016.62	1
2	14090	831016.62	0
2	14110	832016.64	1
2	14116	832316.58	0
2	14127	833016.66	1
2	14133	833316.6	0
2	14144	834016.68	1
2	14150	834316.62	0
2	14156	835016.7	1
2	14158	835016.7	0
2	14173	836016.72	1
2	14175	836016.72	0
2	14190	837016.74	1
2	14192	837016.74	0
2	14212	838016.76	1
2	14218	838316.7	0
2	14229	839016.78	1
2	14235	839316.72	0
2	14246	840016.8	1
2	14252	840316.74	0
2	14258	841016.82	1
2	14260	841016.82	0
2	14275	842016.84	1
2	14277	842016.84	0
2	14292	843016.86	1
2	14294	843016.86	0
2	14314	844016.88	1
2	14320	844316.82	0
2	14331	845016.9	1
2	14337	845316.84	0
2	14348	846016.92	1
2	14354	846316.86	0
2	14360	847016.94	1
2	14362	847016.94	0
2	14377	848016.96	1
2	14379	848016.96	0
2	14394	849016.98	1
2	14396	849016.98	0
2	14416	850017	1
2	14422	850316.94	0
2	14433	851017.02	1
2	14439	851316.96	0
2	14450	852017.04	1
2	14456	852316.98	0
2	14462	853017.06	1
2	14464	853017.06	0
2	14479	854017.08	1
2	14481	854017.08	0
2	14496	855017.1	1
2	14498	855017.1	0
2	14518	856017.12	1
2	14524	856317.06	0
2	14535	857017.14	1
2	14541	857317.08	0
2	14552	858017.16	1
2	14558	858317.1	0
2	14564	859017.18	1
2	14566	859017.18	0
2	14581	860017.2	1
2	14583	860017.2	0
2	14598	861017.22	1
2	14600	861017.22	0
2	14620	862017.24	1
2	14626	862317.18	0
2	14637	863017.26	1
2	14643	863317.2	0
2	14654	864017.28	1
2	14660	864317.22	0
2	14666	865017.3	1
2	14668	865017.3	0
2	14683	866017.32	1
2	14685	866017.32	0
2	14700	867017.34	1
2	14702	867017.34	0
2	14722	868017.36	1
2	14728	868317.3	0
2	14739	869017.38	1
2	14745	869317.32	0
2	14756	870017.4	1
2	14762	870317.34	0
2	14768	871017.42	1
2	14770	871017.42	0
2	14785	872017.44	1
2	14787	872017.44	0
2	14802	873017.46	1
2	14804	873017.46	0
2	14824	874017.48	1
2	14830	874317.42	0
2	14841	875017.5	1
2	14847	875317.44	0
2	14858	876017.52	1
2	14864	876317.46	0
2	14870	877017.54	1
2	14872	877017.54	0
2	14887	878017.56	1
2	14889	878017.56	0
2	14904	879017.58	1
2	14906	879017.58	0
2	14926	880017.6	1
2	14932	880317.54	0
2	14943	881017.62	1
2	14949	881317.56	0
2	14960	882017.64	1
2	14966	882317.58	0
2	14972	883017.66	1
2	14974	883017.66	0
2	14989	884017.68	1
2	14991	884017.68	0
2	15006	885017.7	1
2	15008	885017.7	0
2	15028	886017.72	1
2	15034	886317.66	0
2	15045	887017.74	1
2	15051	887317.68	0
2	15062	888017.76	1
2	15068	888317.7	0
2	15074	889017.78	1
2	15076	889017.78	0
2	15091	890017.8	1
2	15093	890017.8	0
2	15108	891017.82	1
2	15110	891017.82	0
2	15130	892017.84	1
2	15136	892317.78	0
2	15147	893017.86	1
2	15153	893317.8	0
2	15164	894017.88	1
2	15170	894317.82	0
2	15176	895017.9	1
2	15178	895017.9	0
2	15193	896017.92	1
2	15195	896017.92	0
2	15210	897017.94	1
2	15212	897017.94	0
2	15232	898017.96	1
2	15238	898317.9	0
2	15249	899017.98	1
2	15255	899317.92	0
2	15266	900018	1
2	15272	900317.94	0
2	15278	901018.02	1
2	15280	901018.02	0
2	15295	902018.04	1
2	15297	902018.04	0
2	15312	903018.06	1
2	15314	903018.06	0
2	15334	904018.08	1
2	15340	904318.02	0
2	15351	905018.1	1
2	15357	905318.04	0
2	15368	906018.12	1
2	15374	906318.06	0
2	15380	907018.14	1
2	15382	907018.14	0
2	15397	908018.16	1
2	15399	908018.16	0
2	15414	909018.18	1
2	15416	909018.18	0
2	15436	910018.2	1
2	15442	910318.14	0
2	15453	911018.22	1
2	15459	911318.16	0
2	15470	912018.24	1
2	15476	912318.18	0
2	15482	913018.26	1
2	15484	913018.26	0
2	15499	914018.28	1
2	15501	914018.28	0
2	15516	915018.3	1
2	15518	915018.3	0
2	15538	916018.32	1
2	15544	916318.26	0
2	15555	917018.34	1
2	15561	917318.28	0
2	15572	918018.36	1
2	15578	918318.3	0
2	15584	919018.38	1
2	15586	919018.38	0
2	15601	920018.4	1
2	15603	920018.4	0
2	15618	921018.42	1
2	15620	921018.42	0
2	15640	922018.44	1
2	15646	922318.38	0
2	15657	923018.46	1
2	15663	923318.4	0
2	15674	924018.48	1
2	15680	924318.42	0
2	15686	925018.5	1
2	15688	925018.5	0
2	15703	926018.52	1
2	15705	926018.52	0
2	15720	927018.54	1
2	15722	927018.54	0
2	15742	928018.56	1
2	15748	928318.5	0
2	15759	929018.58	1
2	15765	929318.52	0
2	15776	930018.6	1
2	15782	930318.54	0
2	15788	931018.62	1
2	15790	931018.62	0
2	15805	932018.64	1
2	15807	932018.64	0
2	15822	933018.66	1
2	15824	933018.66	0
2	15844	934018.68	1
2	15850	934318.62	0
2	15861	935018.7	1
2	15867	935318.64	0
2	15878	936018.72	1
2	15884	936318.66	0
2	15890	937018.74	1
2	15892	937018.74	0
2	15907	938018.76	1
2	15909	938018.76	0
2	15924	939018.78	1
2	15926	939018.78	0
2	15946	940018.8	1
2	15952	940318.74	0
2	15963	941018.82	1
2	15969	941318.76	0
2	15980	942018.84	1
2	15986	942318.78	0
2	15992	943018.86	1
2	15994	943018.86	0
2	16009	944018.88	1
2	16011	944018.88	0
2	16026	945018.9	1
2	16028	945018.9	0
2	16048	946018.92	1
2	16054	946318.86	0
2	16065	947018.94	1
2	16071	947318.88	0
2	16082	948018.96	1
2	16088	948318.9	0
2	16094	949018.98	1
2	16096	949018.98	0
2	16111	950019	1
2	16113	950019	0
3	1145	69301.38	0.12
3	1153	70001.34	0
3	1170	71001.36	0
3	1187	72001.38	0
3	1213	73301.46	0.12
3	1230	74301.48	0.12
3	1247	75301.5	0.12
3	1255	76001.46	0
3	1272	77001.48	0
3	1289	78001.5	0
3	1315	79301.58	0.12
3	1332	80301.6	0.12
3	1349	81301.62	0.12
3	1357	82001.58	0
3	1374	83001.6	0
3	1391	84001.62	0
3	1417	85301.7	0.12
3	1434	86301.72	0.12
3	1451	87301.74	0.12
3	1459	88001.7	0
3	1476	89001.72	0
3	1493	90001.74	0
3	1519	91301.82	0.12
3	1536	92301.84	0.12
3	1553	93301.86	0.12
3	1561	94001.82	0
3	1578	95001.84	0
3	1595	96001.86	0
3	1621	97301.94	0.12
3	1638	98301.96	0.12
3	1655	99301.98	0.12
3	1663	100001.94	0
3	1680	101001.96	0
3	1697	102001.98	0
3	1723	103302.06	0.12
3	1740	104302.08	0.12
3	1757	105302.1	0.12
3	1765	106002.06	0
3	1782	107002.08	0
3	1799	108002.1	0
3	1825	109302.18	0.12
3	1842	110302.2	0.12
3	1859	111302.22	0.12
3	1867	112002.18	0
3	1884	113002.2	0
3	1901	114002.22	0
3	1927	115302.3	0.12
3	1944	116302.32	0.12
3	1961	117302.34	0.12
3	1969	118002.3	0
3	1986	119002.32	0
3	2003	120002.34	0
3	2029	121302.42	0.12
3	2046	122302.44	0.12
3	2063	123302.46	0.12
3	2071	124002.42	0
3	2088	125002.44	0
3	2105	126002.46	0
3	2131	127302.54	0.12
3	2148	128302.56	0.12
3	2165	129302.58	0.12
3	2173	130002.54	0
3	2190	131002.56	0
3	2207	132002.58	0
3	2233	133302.66	0.12
3	2250	134302.68	0.12
3	2267	135302.7	0.12
3	2275	136002.66	0
3	2292	137002.68	0
3	2309	138002.7	0
3	2335	139302.78	0.12
3	2352	140302.8	0.12
3	2369	141302.82	0.12
3	2377	142002.78	0
3	2394	143002.8	0
3	2411	144002.82	0
3	2437	145302.9	0.12
3	2454	146302.92	0.12
3	2471	147302.94	0.12
3	2479	148002.9	0
3	2496	149002.92	0
3	2513	150002.94	0
3	2539	151303.02	0.12
3	2556	152303.04	0.12
3	2573	153303.06	0.12
3	2581	154003.02	0
3	2598	155003.04	0
3	2615	156003.06	0
3	2641	157303.14	0.12
3	2658	158303.16	0.12
3	2675	159303.18	0.12
3	2683	160003.14	0
3	2700	161003.16	0
3	2717	162003.18	0
3	2743	163303.26	0.12
3	2760	164303.28	0.12
3	2777	165303.3	0.12
3	2785	166003.26	0
3	2802	167003.28	0
3	2819	168003.3	0
3	2845	169303.38	0.12
3	2862	170303.4	0.12
3	2879	171303.42	0.12
3	2887	172003.38	0
3	2904	173003.4	0
3	2921	174003.42	0
3	2947	175303.5	0.12
3	2964	176303.52	0.12
3	2981	177303.54	0.12
3	2989	178003.5	0
3	3006	179003.52	0
3	3023	180003.54	0
3	3049	181303.62	0.12
3	3066	182303.64	0.12
3	3083	183303.66	0.12
3	3091	184003.62	0
3	3108	185003.64	0
3	3125	186003.66	0
3	3151	187303.74	0.12
3	3168	188303.76	0.12
3	3185	189303.78	0.12
3	3193	190003.74	0
3	3210	191003.76	0
3	3227	192003.78	0
3	3253	193303.86	0.12
3	3270	194303.88	0.12
3	3287	195303.9	0.12
3	3295	196003.86	0
3	3312	197003.88	0
3	3329	198003.9	0
3	3355	199303.98	0.12
3	3372	200304	0.12
3	3389	201304.02	0.12
3	3397	202003.98	0
3	3414	203004	0
3	3431	204004.02	0
3	3457	205304.1	0.12
3	3474	206304.12	0.12
3	3491	207304.14	0.12
3	3499	208004.1	0
3	3516	209004.12	0
3	3533	210004.14	0
3	3559	211304.22	0.12
3	3576	212304.24	0.12
3	3593	213304.26	0.12
3	3601	214004.22	0
3	3618	215004.24	0
3	3635	216004.26	0
3	3661	217304.34	0.12
3	3678	218304.36	0.12
3	3695	219304.38	0.12
3	3703	220004.34	0
3	3720	221004.36	0
3	3737	222004.38	0
3	3763	223304.46	0.12
3	3780	224304.48	0.12
3	3797	225304.5	0.12
3	3805	226004.46	0
3	3822	227004.48	0
3	3839	228004.5	0
3	3865	229304.58	0.12
3	3882	230304.6	0.12
3	3899	231304.62	0.12
3	3907	232004.58	0
3	3924	233004.6	0
3	3941	234004.62	0
3	3967	235304.7	0.12
3	3984	236304.72	0.12
3	4001	237304.74	0.12
3	4009	238004.7	0
3	4026	239004.72	0
3	4043	240004.74	0
3	4069	241304.82	0.12
3	4086	242304.84	0.12
3	4103	243304.86	0.12
3	4111	244004.82	0
3	4128	245004.84	0
3	4145	246004.86	0
[...]
7	7406	438008.7	2
7	7421	438608.7	3
7	7429	439308.66	2
7	7433	439308.78	3
7	7446	440308.68	2
7	7450	440308.8	3
7	7463	441308.7	2
7	7467	441308.82	3
7	7474	442008.78	2
7	7489	442608.78	3
7	7491	443008.8	2
7	7506	443608.8	3
7	7508	444008.82	2
7	7523	444608.82	3
7	7531	445308.78	2
7	7535	445308.9	3
7	7548	446308.8	2
7	7552	446308.92	3
7	7565	447308.82	2
7	7569	447308.94	3
7	7576	448008.9	2
7	7591	448608.9	3
7	7593	449008.92	2
7	7608	449608.92	3
7	7610	450008.94	2
7	7625	450608.94	3
7	7633	451308.9	2
7	7637	451309.02	3
7	7650	452308.92	2
7	7654	452309.04	3
7	7667	453308.94	2
7	7671	453309.06	3
7	7678	454009.02	2
7	7693	454609.02	3
7	7695	455009.04	2
7	7710	455609.04	3
7	7712	456009.06	2
7	7727	456609.06	3
7	7735	457309.02	2
7	7739	457309.14	3
7	7752	458309.04	2
7	7756	458309.16	3
7	7769	459309.06	2
7	7773	459309.18	3
7	7780	460009.14	2
7	7795	460609.14	3
7	7797	461009.16	2
7	7812	461609.16	3
7	7814	462009.18	2
7	7829	462609.18	3
7	7837	463309.14	2
7	7841	463309.26	3
7	7854	464309.16	2
7	7858	464309.28	3
7	7871	465309.18	2
7	7875	465309.3	3
7	7882	466009.26	2
7	7897	466609.26	3
7	7899	467009.28	2
7	7914	467609.28	3
7	7916	468009.3	2
7	7931	468609.3	3
7	7939	469309.26	2
7	7943	469309.38	3
7	7956	470309.28	2
7	7960	470309.4	3
7	7973	471309.3	2
7	7977	471309.42	3
7	7984	472009.38	2
7	7999	472609.38	3
7	8001	473009.4	2
7	8016	473609.4	3
7	8018	474009.42	2
7	8033	474609.42	3
7	8041	475309.38	2
7	8045	475309.5	3
7	8058	476309.4	2
7	8062	476309.52	3
7	8075	477309.42	2
7	8079	477309.54	3
7	8086	478009.5	2
7	8101	478609.5	3
7	8103	479009.52	2
7	8118	479609.52	3
7	8120	480009.54	2
7	8135	480609.54	3
7	8143	481309.5	2
7	8147	481309.62	3
7	8160	482309.52	2
7	8164	482309.64	3
7	8177	483309.54	2
7	8181	483309.66	3
7	8188	484009.62	2
7	8203	484609.62	3
7	8205	485009.64	2
7	8220	485609.64	3
7	8222	486009.66	2
7	8237	486609.66	3
7	8245	487309.62	2
7	8249	487309.74	3
7	8262	488309.64	2
7	8266	488309.76	3
7	8279	489309.66	2
7	8283	489309.78	3
7	8290	490009.74	2
7	8305	490609.74	3
7	8307	491009.76	2
7	8322	491609.76	3
7	8324	492009.78	2
7	8339	492609.78	3
7	8347	493309.74	2
7	8351	493309.86	3
7	8364	494309.76	2
7	8368	494309.88	3
7	8381	495309.78	2
7	8385	495309.9	3
7	8392	496009.86	2
7	8407	496609.86	3
7	8409	497009.88	2
7	8424	497609.88	3
7	8426	498009.9	2
7	8441	498609.9	3
7	8449	499309.86	2
7	8453	499309.98	3
7	8466	500309.88	2
7	8470	500310	3
7	8483	501309.9	2
7	8487	501310.02	3
7	8494	502009.98	2
7	8509	502609.98	3
7	8511	503010	2
7	8526	503610	3
7	8528	504010.02	2
7	8543	504610.02	3
7	8551	505309.98	2
7	8555	505310.1	3
7	8568	506310	2
7	8572	506310.12	3
7	8585	507310.02	2
7	8589	507310.14	3
7	8596	508010.1	2
7	8611	508610.1	3
7	8613	509010.12	2
7	8628	509610.12	3
7	8630	510010.14	2
7	8645	510610.14	3
7	8653	511310.1	2
7	8657	511310.22	3
7	8670	512310.12	2
7	8674	512310.24	3
7	8687	513310.14	2
7	8691	513310.26	3
7	8698	514010.22	2
7	8713	514610.22	3
7	8715	515010.24	2
7	8730	515610.24	3
7	8732	516010.26	2
7	8747	516610.26	3
7	8755	517310.22	2
7	8759	517310.34	3
7	8772	518310.24	2
7	8776	518310.36	3
7	8789	519310.26	2
7	8793	519310.38	3
7	8800	520010.34	2
7	8815	520610.34	3
7	8817	521010.36	2
7	8832	521610.36	3
7	8834	522010.38	2
7	8849	522610.38	3
7	8857	523310.34	2
7	8861	523310.46	3
7	8874	524310.36	2
7	8878	524310.48	3
7	8891	525310.38	2
7	8895	525310.5	3
7	8902	526010.46	2
7	8917	526610.46	3
7	8919	527010.48	2
7	8934	527610.48	3
7	8936	528010.5	2
7	8951	528610.5	3
7	8959	529310.46	2
7	8963	529310.58	3
7	8976	530310.48	2
7	8980	530310.6	3
7	8993	531310.5	2
7	8997	531310.62	3
7	9004	532010.58	2
7	9019	532610.58	3
7	9021	533010.6	2
7	9036	533610.6	3
7	9038	534010.62	2
7	9053	534610.62	3
7	9061	535310.58	2
7	9065	535310.7	3
7	9078	536310.6	2
7	9082	536310.72	3
7	9095	537310.62	2
7	9099	537310.74	3
7	9106	538010.7	2
7	9121	538610.7	3
7	9123	539010.72	2
7	9138	539610.72	3
7	9140	540010.74	2
7	9155	540610.74	3
7	9163	541310.7	2
7	9167	541310.82	3
7	9180	542310.72	2
7	9184	542310.84	3
7	9197	543310.74	2
7	9201	543310.86	3
7	9208	544010.82	2
7	9223	544610.82	3
7	9225	545010.84	2
7	9240	545610.84	3
7	9242	546010.86	2
7	9257	546610.86	3
7	9265	547310.82	2
7	9269	547310.94	3
7	9282	548310.84	2
7	9286	548310.96	3
7	9299	549310.86	2
7	9303	549310.98	3
7	9310	550010.94	2
7	9325	550610.94	3
7	9327	551010.96	2
7	9342	551610.96	3
7	9344	552010.98	2
7	9359	552610.98	3
7	9367	553310.94	2
7	9371	553311.06	3
7	9384	554310.96	2
7	9388	554311.08	3
7	9401	555310.98	2
7	9405	555311.1	3
7	9412	556011.06	2
7	9427	556611.06	3
7	9429	557011.08	2
7	9444	557611.08	3
7	9446	558011.1	2
7	9461	558611.1	3
7	9469	559311.06	2
7	9473	559311.18	3
7	9486	560311.08	2
7	9490	560311.2	3
7	9503	561311.1	2
7	9507	561311.22	3
7	9514	562011.18	2
7	9529	562611.18	3
7	9531	563011.2	2
7	9546	563611.2	3
7	9548	564011.22	2
7	9563	564611.22	3
7	9571	565311.18	2
7	9575	565311.3	3
7	9588	566311.2	2
7	9592	566311.32	3
7	9605	567311.22	2
7	9609	567311.34	3
7	9616	568011.3	2
7	9631	568611.3	3
7	9633	569011.32	2
7	9648	569611.32	3
7	9650	570011.34	2
7	9665	570611.34	3
7	9673	571311.3	2
7	9677	571311.42	3
7	9690	572311.32	2
7	9694	572311.44	3
7	9707	573311.34	2
7	9711	573311.46	3
7	9718	574011.42	2
7	9733	574611.42	3
7	9735	575011.44	2
7	9750	575611.44	3
7	9752	576011.46	2
7	9767	576611.46	3
7	9775	577311.42	2
7	9779	577311.54	3
7	9792	578311.44	2
7	9796	578311.56	3
7	9809	579311.46	2
7	9813	579311.58	3
7	9820	580011.54	2
7	9835	580611.54	3
7	9837	581011.56	2
7	9852	581611.56	3
7	9854	582011.58	2
7	9869	582611.58	3
7	9877	583311.54	2
7	9881	583311.66	3
7	9894	584311.56	2
7	9898	584311.68	3
7	9911	585311.58	2
7	9915	585311.7	3
7	9922	586011.66	2
7	9937	586611.66	3
7	9939	587011.68	2
7	9954	587611.68	3
7	9956	588011.7	2
7	9971	588611.7	3
7	9979	589311.66	2
7	9983	589311.78	3
7	9996	590311.68	2
7	10000	590311.8	3
7	10013	591311.7	2
7	10017	591311.82	3
7	10024	592011.78	2
7	10039	592611.78	3
7	10041	593011.8	2
7	10056	593611.8	3
7	10058	594011.82	2
7	10073	594611.82	3
7	10081	595311.78	2
7	10085	595311.9	3
7	10098	596311.8	2
7	10102	596311.92	3
7	10115	597311.82	2
7	10119	597311.94	3
7	10126	598011.9	2
7	10141	598611.9	3
7	10143	599011.92	2
7	10158	599611.92	3
7	10160	600011.94	2
7	10175	600611.94	3
7	10183	601311.9	2
7	10187	601312.02	3
7	10200	602311.92	2
7	10204	602312.04	3
7	10217	603311.94	2
7	10221	603312.06	3
7	10228	604012.02	2
7	10243	604612.02	3
7	10245	605012.04	2
7	10260	605612.04	3
7	10262	606012.06	2
7	10277	606612.06	3
7	10285	607312.02	2
7	10289	607312.14	3
7	10302	608312.04	2
7	10306	608312.16	3
7	10319	609312.06	2
7	10323	609312.18	3
7	10330	610012.14	2
7	10345	610612.14	3
7	10347	611012.16	2
7	10362	611612.16	3
7	10364	612012.18	2
7	10379	612612.18	3
7	10387	613312.14	2
7	10391	613312.26	3
7	10404	614312.16	2
7	10408	614312.28	3
7	10421	615312.18	2
7	10425	615312.3	3
7	10432	616012.26	2
7	10447	616612.26	3
7	10449	617012.28	2
7	10464	617612.28	3
7	10466	618012.3	2
7	10481	618612.3	3
7	10489	619312.26	2
7	10493	619312.38	3
7	10506	620312.28	2
7	10510	620312.4	3
7	10523	621312.3	2
7	10527	621312.42	3
7	10534	622012.38	2
7	10549	622612.38	3
7	10551	623012.4	2
7	10566	623612.4	3
7	10568	624012.42	2
7	10583	624612.42	3
7	10591	625312.38	2
7	10595	625312.5	3
7	10608	626312.4	2
7	10612	626312.52	3
7	10625	627312.42	2
7	10629	627312.54	3
7	10636	628012.5	2
7	10651	628612.5	3
7	10653	629012.52	2
7	10668	629612.52	3
7	10670	630012.54	2
7	10685	630612.54	3
7	10693	631312.5	2
7	10697	631312.62	3
7	10710	632312.52	2
7	10714	632312.64	3
7	10727	633312.54	2
7	10731	633312.66	3
7	10738	634012.62	2
7	10753	634612.62	3
7	10755	635012.64	2
7	10770	635612.64	3
7	10772	636012.66	2
7	10787	636612.66	3
7	10795	637312.62	2
7	10799	637312.74	3
7	10812	638312.64	2
7	10816	638312.76	3
7	10829	639312.66	2
7	10833	639312.78	3
7	10840	640012.74	2
7	10855	640612.74	3
7	10857	641012.76	2
7	10872	641612.76	3
7	10874	642012.78	2
7	10889	642612.78	3
7	10897	643312.74	2
7	10901	643312.86	3
7	10914	644312.76	2
7	10918	644312.88	3
7	10931	645312.78	2
7	10935	645312.9	3
7	10942	646012.86	2
7	10957	646612.86	3
7	10959	647012.88	2
7	10974	647612.88	3
7	10976	648012.9	2
7	10991	648612.9	3
7	10999	649312.86	2
7	11003	649312.98	3
7	11016	650312.88	2
7	11020	650313	3
7	11033	651312.9	2
7	11037	651313.02	3
7	11044	652012.98	2
7	11059	652612.98	3
7	11061	653013	2
7	11076	653613	3
7	11078	654013.02	2
7	11093	654613.02	3
7	11101	655312.98	2
7	11105	655313.1	3
7	11118	656313	2
7	11122	656313.12	3
7	11135	657313.02	2
7	11139	657313.14	3
7	11146	658013.1	2
7	11161	658613.1	3
7	11163	659013.12	2
7	11178	659613.12	3
7	11180	660013.14	2
7	11195	660613.14	3
7	11203	661313.1	2
7	11207	661313.22	3
7	11220	662313.12	2
7	11224	662313.24	3
7	11237	663313.14	2
7	11241	663313.26	3
7	11248	664013.22	2
7	11263	664613.22	3
7	11265	665013.24	2
7	11280	665613.24	3
7	11282	666013.26	2
7	11297	666613.26	3
7	11305	667313.22	2
7	11309	667313.34	3
7	11322	668313.24	2
7	11326	668313.36	3
7	11339	669313.26	2
7	11343	669313.38	3
7	11350	670013.34	2
7	11365	670613.34	3
7	11367	671013.36	2
7	11382	671613.36	3
7	11384	672013.38	2
7	11399	672613.38	3
7	11407	673313.34	2
7	11411	673313.46	3
7	11424	674313.36	2
7	11428	674313.48	3
7	11441	675313.38	2
7	11445	675313.5	3
7	11452	676013.46	2
7	11467	676613.46	3
7	11469	677013.48	2
7	11484	677613.48	3
7	11486	678013.5	2
7	11501	678613.5	3
7	11509	679313.46	2
7	11513	679313.58	3
7	11526	680313.48	2
7	11530	680313.6	3
7	11543	681313.5	2
7	11547	681313.62	3
7	11554	682013.58	2
7	11569	682613.58	3
7	11571	683013.6	2
7	11586	683613.6	3
7	11588	684013.62	2
7	11603	684613.62	3
7	11611	685313.58	2
7	11615	685313.7	3
7	11628	686313.6	2
7	11632	686313.72	3
7	11645	687313.62	2
7	11649	687313.74	3
7	11656	688013.7	2
7	11671	688613.7	3
7	11673	689013.72	2
7	11688	689613.72	3
7	11690	690013.74	2
7	11705	690613.74	3
7	11713	691313.7	2
7	11717	691313.82	3
7	11730	692313.72	2
7	11734	692313.84	3
7	11747	693313.74	2
7	11751	693313.86	3
7	11758	694013.82	2
7	11773	694613.82	3
7	11775	695013.84	2
7	11790	695613.84	3
7	11792	696013.86	2
7	11807	696613.86	3
7	11815	697313.82	2
7	11819	697313.94	3
7	11832	698313.84	2
7	11836	698313.96	3
7	11849	699313.86	2
7	11853	699313.98	3
7	11860	700013.94	2
7	11875	700613.94	3
7	11877	701013.96	2
7	11892	701613.96	3
7	11894	702013.98	2
7	11909	702613.98	3
7	11917	703313.94	2
7	11921	703314.06	3
7	11934	704313.96	2
7	11938	704314.08	3
7	11951	705313.98	2
7	11955	705314.1	3
7	11962	706014.06	2
7	11977	706614.06	3
7	11979	707014.08	2
7	11994	707614.08	3
7	11996	708014.1	2
7	12011	708614.1	3
7	12019	709314.06	2
7	12023	709314.18	3
7	12036	710314.08	2
7	12040	710314.2	3
7	12053	711314.1	2
7	12057	711314.22	3
7	12064	712014.18	2
7	12079	712614.18	3
7	12081	713014.2	2
7	12096	713614.2	3
7	12098	714014.22	2
7	12113	714614.22	3
7	12121	715314.18	2
7	12125	715314.3	3
7	12138	716314.2	2
7	12142	716314.32	3
7	12155	717314.22	2
7	12159	717314.34	3
7	12166	718014.3	2
7	12181	718614.3	3
7	12183	719014.32	2
7	12198	719614.32	3
7	12200	720014.34	2
7	12215	720614.34	3
7	12223	721314.3	2
7	12227	721314.42	3
7	12240	722314.32	2
7	12244	722314.44	3
7	12257	723314.34	2
7	12261	723314.46	3
7	12268	724014.42	2
7	12283	724614.42	3
7	12285	725014.44	2
7	12300	725614.44	3
7	12302	726014.46	2
7	12317	726614.46	3
7	12325	727314.42	2
7	12329	727314.54	3
7	12342	728314.44	2
7	12346	728314.56	3
7	12359	729314.46	2
7	12363	729314.58	3
7	12370	730014.54	2
7	12385	730614.54	3
7	12387	731014.56	2
7	12402	731614.56	3
7	12404	732014.58	2
7	12419	732614.58	3
7	12427	733314.54	2
7	12431	733314.66	3
7	12444	734314.56	2
7	12448	734314.68	3
7	12461	735314.58	2
7	12465	735314.7	3
7	12472	736014.66	2
7	12487	736614.66	3
7	12489	737014.68	2
7	12504	737614.68	3
7	12506	738014.7	2
7	12521	738614.7	3
7	12529	739314.66	2
7	12533	739314.78	3
7	12546	740314.68	2
7	12550	740314.8	3
7	12563	741314.7	2
7	12567	741314.82	3
7	12574	742014.78	2
7	12589	742614.78	3
7	12591	743014.8	2
7	12606	743614.8	3
7	12608	744014.82	2
7	12623	744614.82	3
7	12631	745314.78	2
7	12635	745314.9	3
7	12648	746314.8	2
7	12652	746314.92	3
7	12665	747314.82	2
7	12669	747314.94	3
7	12676	748014.9	2
7	12691	748614.9	3
7	12693	749014.92	2
7	12708	749614.92	3
7	12710	750014.94	2
7	12725	750614.94	3
7	12733	751314.9	2
7	12737	751315.02	3
7	12750	752314.92	2
7	12754	752315.04	3
7	12767	753314.94	2
7	12771	753315.06	3
7	12778	754015.02	2
7	12793	754615.02	3
7	12795	755015.04	2
7	12810	755615.04	3
7	12812	756015.06	2
7	12827	756615.06	3
7	12835	757315.02	2
7	12839	757315.14	3
7	12852	758315.04	2
7	12856	758315.16	3
7	12869	759315.06	2
7	12873	759315.18	3
7	12880	760015.14	2
7	12895	760615.14	3
7	12897	761015.16	2
7	12912	761615.16	3
7	12914	762015.18	2
7	12929	762615.18	3
7	12937	763315.14	2
7	12941	763315.26	3
7	12954	764315.16	2
7	12958	764315.28	3
7	12971	765315.18	2
7	12975	765315.3	3
7	12982	766015.26	2
7	12997	766615.26	3
7	12999	767015.28	2
7	13014	767615.28	3
7	13016	768015.3	2
7	13031	768615.3	3
7	13039	769315.26	2
7	13043	769315.38	3
7	13056	770315.28	2
7	13060	770315.4	3
7	13073	771315.3	2
7	13077	771315.42	3
7	13084	772015.38	2
7	13099	772615.38	3
7	13101	773015.4	2
7	13116	773615.4	3
7	13118	774015.42	2
7	13133	774615.42	3
7	13141	775315.38	2
7	13145	775315.5	3
7	13158	776315.4	2
7	13162	776315.52	3
7	13175	777315.42	2
7	13179	777315.54	3
7	13186	778015.5	2
7	13201	778615.5	3
7	13203	779015.52	2
7	13218	779615.52	3
7	13220	780015.54	2
7	13235	780615.54	3
7	13243	781315.5	2
7	13247	781315.62	3
7	13260	782315.52	2
7	13264	782315.64	3
7	13277	783315.54	2
7	13281	783315.66	3
7	13288	784015.62	2
7	13303	784615.62	3
7	13305	785015.64	2
7	13320	785615.64	3
7	13322	786015.66	2
7	13337	786615.66	3
7	13345	787315.62	2
7	13349	787315.74	3
7	13362	788315.64	2
7	13366	788315.76	3
7	13379	789315.66	2
7	13383	789315.78	3
7	13390	790015.74	2
7	13405	790615.74	3
7	13407	791015.76	2
7	13422	791615.76	3
7	13424	792015.78	2
7	13439	792615.78	3
7	13447	793315.74	2
7	13451	793315.86	3
7	13464	794315.76	2
7	13468	794315.88	3
7	13481	795315.78	2
7	13485	795315.9	3
7	13492	796015.86	2
7	13507	796615.86	3
7	13509	797015.88	2
7	13524	797615.88	3
7	13526	798015.9	2
7	13541	798615.9	3
7	13549	799315.86	2
7	13553	799315.98	3
7	13566	800315.88	2
7	13570	800316	3
7	13583	801315.9	2
7	13587	801316.02	3
7	13594	802015.98	2
7	13609	802615.98	3
7	13611	803016	2
7	13626	803616	3
7	13628	804016.02	2
7	13643	804616.02	3
7	13651	805315.98	2
7	13655	805316.1	3
7	13668	806316	2
7	13672	806316.12	3
7	13685	807316.02	2
7	13689	807316.14	3
7	13696	808016.1	2
7	13711	808616.1	3
7	13713	809016.12	2
7	13728	809616.12	3
7	13730	810016.14	2
7	13745	810616.14	3
7	13753	811316.1	2
7	13757	811316.22	3
7	13770	812316.12	2
7	13774	812316.24	3
7	13787	813316.14	2
7	13791	813316.26	3
7	13798	814016.22	2
7	13813	814616.22	3
7	13815	815016.24	2
7	13830	815616.24	3
7	13832	816016.26	2
7	13847	816616.26	3
7	13855	817316.22	2
7	13859	817316.34	3
7	13872	818316.24	2
7	13876	818316.36	3
7	13889	819316.26	2
7	13893	819316.38	3
7	13900	820016.34	2
7	13915	820616.34	3
7	13917	821016.36	2
7	13932	821616.36	3
7	13934	822016.38	2
7	13949	822616.38	3
7	13957	823316.34	2
7	13961	823316.46	3
7	13974	824316.36	2
7	13978	824316.48	3
7	13991	825316.38	2
7	13995	825316.5	3
7	14002	826016.46	2
7	14017	826616.46	3
7	14019	827016.48	2
7	14034	827616.48	3
7	14036	828016.5	2
7	14051	828616.5	3
7	14059	829316.46	2
7	14063	829316.58	3
7	14076	830316.48	2
7	14080	830316.6	3
7	14093	831316.5	2
7	14097	831316.62	3
7	14104	832016.58	2
7	14119	832616.58	3
7	14121	833016.6	2
7	14136	833616.6	3
7	14138	834016.62	2
7	14153	834616.62	3
7	14161	835316.58	2
7	14165	835316.7	3
7	14178	836316.6	2
7	14182	836316.72	3
7	14195	837316.62	2
7	14199	837316.74	3
7	14206	838016.7	2
7	14221	838616.7	3
7	14223	839016.72	2
7	14238	839616.72	3
7	14240	840016.74	2
7	14255	840616.74	3
7	14263	841316.7	2
7	14267	841316.82	3
7	14280	842316.72	2
7	14284	842316.84	3
7	14297	843316.74	2
7	14301	843316.86	3
7	14308	844016.82	2
7	14323	844616.82	3
7	14325	845016.84	2
7	14340	845616.84	3
7	14342	846016.86	2
7	14357	846616.86	3
7	14365	847316.82	2
7	14369	847316.94	3
7	14382	848316.84	2
7	14386	848316.96	3
7	14399	849316.86	2
7	14403	849316.98	3
7	14410	850016.94	2
7	14425	850616.94	3
7	14427	851016.96	2
7	14442	851616.96	3
7	14444	852016.98	2
7	14459	852616.98	3
7	14467	853316.94	2
7	14471	853317.06	3
7	14484	854316.96	2
7	14488	854317.08	3
7	14501	855316.98	2
7	14505	855317.1	3
7	14512	856017.06	2
7	14527	856617.06	3
7	14529	857017.08	2
7	14544	857617.08	3
7	14546	858017.1	2
7	14561	858617.1	3
7	14569	859317.06	2
7	14573	859317.18	3
7	14586	860317.08	2
7	14590	860317.2	3
7	14603	861317.1	2
7	14607	861317.22	3
7	14614	862017.18	2
7	14629	862617.18	3
7	14631	863017.2	2
7	14646	863617.2	3
7	14648	864017.22	2
7	14663	864617.22	3
7	14671	865317.18	2
7	14675	865317.3	3
7	14688	866317.2	2
7	14692	866317.32	3
7	14705	867317.22	2
7	14709	867317.34	3
7	14716	868017.3	2
7	14731	868617.3	3
7	14733	869017.32	2
7	14748	869617.32	3
7	14750	870017.34	2
7	14765	870617.34	3
7	14773	871317.3	2
7	14777	871317.42	3
7	14790	872317.32	2
7	14794	872317.44	3
7	14807	873317.34	2
7	14811	873317.46	3
7	14818	874017.42	2
7	14833	874617.42	3
7	14835	875017.44	2
7	14850	875617.44	3
7	14852	876017.46	2
7	14867	876617.46	3
7	14875	877317.42	2
7	14879	877317.54	3
7	14892	878317.44	2
7	14896	878317.56	3
7	14909	879317.46	2
7	14913	879317.58	3
7	14920	880017.54	2
7	14935	880617.54	3
7	14937	881017.56	2
7	14952	881617.56	3
7	14954	882017.58	2
7	14969	882617.58	3
7	14977	883317.54	2
7	14981	883317.66	3
7	14994	884317.56	2
7	14998	884317.68	3
7	15011	885317.58	2
7	15015	885317.7	3
7	15022	886017.66	2
7	15037	886617.66	3
7	15039	887017.68	2
7	15054	887617.68	3
7	15056	888017.7	2
7	15071	888617.7	3
7	15079	889317.66	2
7	15083	889317.78	3
7	15096	890317.68	2
7	15100	890317.8	3
7	15113	891317.7	2
7	15117	891317.82	3
7	15124	892017.78	2
7	15139	892617.78	3
7	15141	893017.8	2
7	15156	893617.8	3
7	15158	894017.82	2
7	15173	894617.82	3
7	15181	895317.78	2
7	15185	895317.9	3
7	15198	896317.8	2
7	15202	896317.92	3
7	15215	897317.82	2
7	15219	897317.94	3
7	15226	898017.9	2
7	15241	898617.9	3
7	15243	899017.92	2
7	15258	899617.92	3
7	15260	900017.94	2
7	15275	900617.94	3
7	15283	901317.9	2
7	15287	901318.02	3
7	15300	902317.92	2
7	15304	902318.04	3
7	15317	903317.94	2
7	15321	903318.06	3
7	15328	904018.02	2
7	15343	904618.02	3
7	15345	905018.04	2
7	15360	905618.04	3
7	15362	906018.06	2
7	15377	906618.06	3
7	15385	907318.02	2
7	15389	907318.14	3
7	15402	908318.04	2
7	15406	908318.16	3
7	15419	909318.06	2
7	15423	909318.18	3
7	15430	910018.14	2
7	15445	910618.14	3
7	15447	911018.16	2
7	15462	911618.16	3
7	15464	912018.18	2
7	15479	912618.18	3
7	15487	913318.14	2
7	15491	913318.26	3
7	15504	914318.16	2
7	15508	914318.28	3
7	15521	915318.18	2
7	15525	915318.3	3
7	15532	916018.26	2
7	15547	916618.26	3
7	15549	917018.28	2
7	15564	917618.28	3
7	15566	918018.3	2
7	15581	918618.3	3
7	15589	919318.26	2
7	15593	919318.38	3
7	15606	920318.28	2
7	15610	920318.4	3
7	15623	921318.3	2
7	15627	921318.42	3
7	15634	922018.38	2
7	15649	922618.38	3
7	15651	923018.4	2
7	15666	923618.4	3
7	15668	924018.42	2
7	15683	924618.42	3
7	15691	925318.38	2
7	15695	925318.5	3
7	15708	926318.4	2
7	15712	926318.52	3
7	15725	927318.42	2
7	15729	927318.54	3
7	15736	928018.5	2
7	15751	928618.5	3
7	15753	929018.52	2
7	15768	929618.52	3
7	15770	930018.54	2
7	15785	930618.54	3
7	15793	931318.5	2
7	15797	931318.62	3
7	15810	932318.52	2
7	15814	932318.64	3
7	15827	933318.54	2
7	15831	933318.66	3
7	15838	934018.62	2
7	15853	934618.62	3
7	15855	935018.64	2
7	15870	935618.64	3
7	15872	936018.66	2
7	15887	936618.66	3
7	15895	937318.62	2
7	15899	937318.74	3
7	15912	938318.64	2
7	15916	938318.76	3
7	15929	939318.66	2
7	15933	939318.78	3
7	15940	940018.74	2
7	15955	940618.74	3
7	15957	941018.76	2
7	15972	941618.76	3
7	15974	942018.78	2
7	15989	942618.78	3
7	15997	943318.74	2
7	16001	943318.86	3
7	16014	944318.76	2
7	16018	944318.88	3
7	16031	945318.78	2
7	16035	945318.9	3
7	16042	946018.86	2
7	16057	946618.86	3
7	16059	947018.88	2
7	16074	947618.88	3
7	16076	948018.9	2
7	16091	948618.9	3
7	16099	949318.86	2
7	16103	949318.98	3
7	16116	950318.88	2
7	16120	950319	3
