version 2
run QueueMeasurement-114-20170109-14:25:52-7001
attr configname QueueMeasurement
attr datetime 20170109-14:25:52
attr experiment QueueMeasurement
attr inifile queueStudy.ini
attr iterationvars ""
attr iterationvars2 $repetition=114
attr measurement ""
attr network controltower.SimNetwork
attr processid 7001
attr repetition 114
attr replication #114
attr resultdir results
attr runnumber 114
attr seedset 114
param SimNetwork.a.parkingLot.parkingDelay exponential(45min)
param SimNetwork.a.runway.landingTime exponential(5min)
param SimNetwork.a.runway.takeoffTime exponential(5min)
param SimNetwork.a.runway.throughputCheckInterval 100min
param SimNetwork.wg.interArrivalTime exponential(100min)

vector 7  SimNetwork.a.parkingLot  parkingOccupancy:vector  ETV
attr source  parkingOccupancy
vector 4  SimNetwork.a.takeoffQueue  queueLength:vector  ETV
attr source  queueLengthSignal
vector 3  SimNetwork.a.takeoffQueue  queueTime:vector  ETV
attr source  queueTimeSignal
vector 0  SimNetwork.wg  responseTime:vector  ETV
attr source  responseTimeSignal
vector 5  SimNetwork.a.runway  landedThroughput:vector  ETV
attr source  landedThroughputSignal
vector 6  SimNetwork.a.runway  tookoffThroughput:vector  ETV
attr source  tookoffThroughputSignal
vector 2  SimNetwork.a.landingQueue  queueLength:vector  ETV
attr source  queueLengthSignal
vector 1  SimNetwork.a.landingQueue  queueTime:vector  ETV
attr source  queueTimeSignal
0	371	121590.65185171389	3333.8848347257
0	396	127519.515594170652	7218.6720425486
0	412	130315.518203279562	4251.5219550716
0	420	130769.560345139845	3582.2511142935
0	438	139183.484385481014	9876.435333667
0	469	182211.606271374566	43665.017683479
0	477	184092.708073217884	21066.061396454
0	494	186411.016755172205	6116.8071109491
0	511	192577.932816833309	8077.6050183041
0	529	209878.688145103666	19040.018760966
0	548	222633.483717628829	14616.532205208
0	575	243964.518647088479	3095.7184892839
0	591	245267.225663525702	24925.015693474
0	600	247092.263053855076	3799.8322381714
0	625	253787.565070365211	3904.1222041705
0	644	256876.518984701432	5104.2179266773
0	649	257341.762219445975	12634.236122204
0	677	261528.832215090464	6867.4757938753
0	682	261911.658470020931	3633.0291862877
0	699	265109.168799147322	4614.0552969912
0	732	270828.180982988675	4359.4858945023
0	740	272440.134069500719	5121.3629659249
0	756	275772.99472503522	5975.9654880152
0	774	282341.568155747655	18036.294399705
0	782	282693.347931130435	8031.4222301139
0	814	286177.338071961077	4660.2051553862
0	822	287018.231047021246	1956.5181845849
0	831	290620.453065498218	6119.1754067517
0	856	294334.208483816628	2862.7048239657
0	872	295175.283500587894	9574.6779804249
0	888	299753.221733527758	7878.7923192619
0	897	303046.103152625142	8592.8025198285
0	914	306835.215196909898	8241.7987295293
0	940	318369.713805197228	12960.43220139
0	951	319362.573047136813	2907.9668123872
0	964	323922.509706773015	6613.6066718488
0	983	338118.766325965126	19090.11557587
0	999	338436.904970233349	3862.6869133055
0	1016	347596.318662181182	9452.594696126
0	1042	357004.410504229712	11126.036280414
0	1050	357793.03722289054	3709.3697511915
0	1076	368009.54386053182	12347.250259075
0	1096	372139.576433534909	4938.8505440672
0	1101	372170.119938023805	6958.5367492847
0	1119	385610.354909143198	15300.499454045
0	1135	388518.523334713735	9387.479750132
0	1153	396345.7373806284	10516.637136869
0	1169	397065.841043538793	1909.4278489137
0	1185	398822.175697738676	2337.0640947661
0	1210	405169.943346208967	7277.3762600892
0	1227	408689.589902210367	3935.8767592623
0	1243	410264.435186742559	7041.465381334
0	1259	411662.060478754671	3357.6299751324
0	1267	411978.380285505417	2672.346939289
0	1287	415455.121788578381	4944.4895190205
0	1309	420770.000658649588	5662.7049912592
0	1341	425252.825411187752	12371.431548554
0	1349	425916.200675034493	3144.7868337811
0	1358	426912.647093576697	2591.8035226518
0	1366	428747.775419723384	10732.990128489
0	1396	444540.745600905436	20163.200334802
0	1409	445818.793965692385	3914.9566556089
0	1417	447203.174445287248	5129.9294195598
0	1434	453679.909142188908	9884.6647444529
0	1451	459805.132454632401	7544.9138110466
0	1478	474872.695448208783	6629.75331215
0	1494	475891.375887888919	17870.448773165
0	1502	479172.991588430076	9494.4312292631
0	1521	493140.148603991535	17989.76805819
0	1539	507594.802625364827	16338.627474209
0	1557	518771.699728930465	14559.347750754
0	1583	528169.462965783103	17203.667279695
0	1599	529876.099164532851	3034.7195340025
0	1615	531767.909347767154	7806.638023752
0	1623	532670.333871885876	4038.2511935435
0	1641	545319.820659510093	15228.349261351
0	1666	549989.070877208629	3577.8964303893
0	1683	555721.260434066882	8579.2630274566
0	1692	558397.477046873237	20576.132477401
0	1708	563796.913114260485	9352.4121401281
0	1725	567065.98241570743	8013.4563591257
0	1742	572776.266844616657	7969.8822791688
0	1760	582579.279395689558	12477.736681793
0	1785	593060.864257311837	2555.7576986645
0	1794	596147.176538949406	18073.647431638
0	1822	618202.176857843883	1614.4274749538
0	1838	619772.385205655352	28184.370573067
0	1854	621123.041989538002	4166.547734902
0	1862	621635.381384841765	2981.523611679
0	1879	626982.944803585531	7138.8316159346
0	1897	640606.808236084785	14170.723456706
0	1916	654154.21758059441	14481.751228305
0	1952	660770.83113104216	8546.978444444
0	1957	660776.45151351478	2461.4296118774
0	1965	664052.46076027145	9247.1517907037
0	1982	669138.824746529337	10489.829356267
0	1999	676484.675739190234	10473.481441022
0	2028	703617.381470193889	29812.775690866
0	2036	703816.281903880527	5360.8975314806
0	2054	716545.425341725322	14469.033928979
0	2072	729047.090367918054	16154.226239702
0	2088	731816.613340282083	3385.2613514196
0	2113	735949.990095263087	3730.4989172212
0	2130	740308.844019543891	5747.283468494
0	2146	742246.865104219141	11210.762407015
0	2154	742664.760740255459	3778.3495289801
0	2171	747202.69947069877	6277.6887581937
0	2188	753045.460585380788	6780.1480611746
0	2206	764260.120755277949	12551.900185574
0	2222	767862.849535968854	8975.2917161717
0	2241	780525.169452319906	14482.322154387
0	2258	791427.804069592073	12500.301139769
0	2276	799827.889002434928	9309.6812208078
0	2294	812695.386268004282	19595.084863866
0	2314	834168.870619617327	24600.285003511
0	2331	841339.807538764995	14344.260926062
0	2356	848743.030227659693	9038.1495231871
0	2364	849404.587477666725	4186.755774782
0	2392	873723.394251658728	2490.6444060639
0	2401	879718.172766577912	33115.014313025
0	2418	885823.759673433631	12646.333974609
0	2437	900579.951610334809	18985.593715781
0	2465	910878.513860416356	9543.0905892745
0	2479	912193.431264612257	2879.7156726998
0	2487	913541.377924507704	15952.971603787
0	2520	921498.216256885162	4225.1973479982
0	2540	924632.430004247246	7428.6089374242
0	2545	924648.302989723912	4430.2112506855
0	2562	930582.771127243098	19720.467325028
0	2570	932052.943686551554	8125.6501472252
0	2595	937199.078302062459	1831.9234082338
0	2603	939601.261656096577	10327.501681028
0	2636	945702.822415403169	9440.6097657678
0	2644	946355.288043384408	4302.6080942569
0	2661	949897.64180137466	4519.3194240738
0	2669	951984.85138500816	9086.5051439059
0	2695	965765.798167487848	10884.840038831
0	2705	972553.616163743831	23668.197698967
0	2740	976968.494366528902	3241.4215236045
0	2745	977884.935120511255	2840.9138881056
0	2762	980335.286278096994	4980.999001915
0	2778	981210.379389414051	18224.899770269
0	2795	988979.711598310952	9509.1322321665
0	2804	990209.415733403136	9624.6408750823
0	2821	999558.431840754803	11973.212041581
0	2837	1001048.626666061974	3429.4073447635
0	2864	1016126.570430707337	16529.239372574
0	2872	1016281.999989797604	1371.2893022339
0	2890	1031462.471466456428	16408.386044236
1	377	126063.99624820793	0
1	385	127187.309230846349	0
1	401	129307.049051814062	0
1	427	138546.588587895248	0
1	447	163026.646676764176	0
1	458	180294.209644223062	0
1	482	184500.32779852917	0
1	499	190838.669384137256	0
1	518	208016.95151242057	0
1	536	220342.209970051722	0
1	556	240868.800157804554	0
1	564	243292.430815683659	0
1	580	244707.526097242129	0
1	605	249883.442866194749	0
1	613	251772.301058024161	0
1	630	254661.356421215143	0
1	655	258278.629283733278	0
1	663	260495.113502156122	0
1	688	264305.273756042203	0
1	704	266468.695088486355	0
1	712	267318.771103575846	0
1	720	269797.029237020061	0
1	745	274661.925701016529	0
1	762	281517.132916574833	0
1	787	284501.277658746478	0
1	795	285061.712862436321	0
1	803	285600.605520162966	0
1	836	291471.503659850926	0
1	844	291874.42941426584	0
1	861	294453.300632796658	0
1	877	298593.416467380646	0
1	902	305409.28160380696	0
1	920	316454.606234749614	0
1	928	317308.903034924251	0
1	953	319362.573047136813	333.9222970421
1	971	334574.218056927877	0
1	988	338143.72396605515	0
1	1005	345878.374223816152	0
1	1023	354083.66747169904	0
1	1031	355662.293601456445	0
1	1056	365211.583188739055	0
1	1065	367200.72588946767	0
1	1081	370309.855455098448	0
1	1107	379131.043584581692	0
1	1124	385829.1002437597	0
1	1141	395156.413194625072	0
1	1158	396485.11160297256	0
1	1174	397892.56708611981	0
1	1191	403222.969805408554	0
1	1199	404753.71314294807	0
1	1216	408304.430503622314	0
1	1232	409306.03334621637	0
1	1248	410510.632269557889	0
1	1272	412881.393862634184	0
1	1289	415455.121788578381	347.82612118796
1	1297	418014.785291234869	0
1	1314	422771.413841253421	0
1	1322	424320.843570924873	0
1	1330	424536.660475339742	159.11520923678
1	1373	441903.837310083439	0
1	1381	442073.245025727405	0
1	1398	444540.745600905436	745.50120316943
1	1423	452260.218643585845	0
1	1440	458020.927114724105	0
1	1458	468242.942136058741	0
1	1466	469678.56035916695	0
1	1483	475150.38054580132	0
1	1509	491256.175151156322	0
1	1528	504212.351978176396	0
1	1545	510965.795686087816	0
1	1563	523961.271324015194	0
1	1571	526841.379630530335	0
1	1588	528632.082678342343	0
1	1604	530091.471398158955	0
1	1629	537821.344569472589	0
1	1647	546411.174446819321	0
1	1655	547141.997406610233	0
1	1672	554444.500974132425	0
1	1697	559052.526056581719	0
1	1714	564806.384565447865	0
1	1731	570101.542713896361	0
1	1748	578073.529107311515	0
1	1766	590505.106558647341	0
1	1774	591588.01463258878	0
1	1802	616587.749382890104	0
1	1810	616956.494254635957	0
1	1827	618653.85777316277	0
1	1843	619844.11318765096	0
1	1868	626436.084779379048	0
1	1886	639672.466352289356	0
1	1904	652223.852686598138	0
1	1921	654805.308969567799	0
1	1929	658315.021901637344	0
1	1937	658648.995390262411	0
1	1971	666011.194298168629	0
1	1988	673804.605779327611	0
1	2008	698455.384372399963	0
1	2017	702076.391412746587	0
1	2042	712892.864128215983	0
1	2061	728431.351988862489	0
1	2077	731036.102697203748	0
1	2094	732219.491178041908	0
1	2102	734561.560551049897	0
1	2119	738886.411211275345	0
1	2135	740925.010712505091	0
1	2160	746265.312524206189	0
1	2177	751708.220569703891	0
1	2194	758887.557819797127	0
1	2211	766042.847297932567	0
1	2229	778927.502929822683	0
1	2247	790518.207781627155	0
1	2264	793100.30140413874	0
1	2282	809568.58561610672	0
1	2301	826995.546612703382	0
1	2319	839704.880704472544	0
1	2336	845217.83170288473	0
1	2345	846603.158453552612	0
1	2373	871232.74984559478	0
1	2381	873177.425698824256	0
1	2406	881594.357894553384	0
1	2425	897588.406320720364	0
1	2442	901335.423271141889	0
1	2451	909313.715591912481	0
1	2467	910878.513860416356	16.210058200963
1	2492	917203.821066823001	0
1	2500	917484.592203855459	211.57329496852
1	2509	920218.09173903837	0
1	2525	923927.293539326317	0
1	2550	929273.759975068149	0
1	2575	935367.154893828621	0
1	2584	936262.212649635339	0
1	2609	942052.679949127543	0
1	2617	942981.74060960777	83.394368505535
1	2625	945378.32237730083	0
1	2650	948885.418464777138	0
1	2675	954880.958128656784	0
1	2684	962985.479619145178	0
1	2710	973727.072842924368	0
1	2718	975044.021232405666	0
1	2726	975910.028842550683	555.74156636874
1	2751	979470.579366144404	0
1	2767	980584.774858320818	0
1	2784	987585.219799173698	0
1	2810	997619.219321298478	0
1	2826	999597.331058133829	0
1	2845	1014910.710687563657	0
1	2853	1015241.912864465591	187.8274422449
1	2879	1028690.263729639144	0
2	375	126063.99624820793	1
2	377	126063.99624820793	0
2	383	127187.309230846349	1
2	385	127187.309230846349	0
2	399	129307.049051814062	1
2	401	129307.049051814062	0
2	425	138546.588587895248	1
2	427	138546.588587895248	0
2	445	163026.646676764176	1
2	447	163026.646676764176	0
2	456	180294.209644223062	1
2	458	180294.209644223062	0
2	480	184500.32779852917	1
2	482	184500.32779852917	0
2	497	190838.669384137256	1
2	499	190838.669384137256	0
2	516	208016.95151242057	1
2	518	208016.95151242057	0
2	534	220342.209970051722	1
2	536	220342.209970051722	0
2	554	240868.800157804554	1
2	556	240868.800157804554	0
2	562	243292.430815683659	1
2	564	243292.430815683659	0
2	578	244707.526097242129	1
2	580	244707.526097242129	0
2	603	249883.442866194749	1
2	605	249883.442866194749	0
2	611	251772.301058024161	1
2	613	251772.301058024161	0
2	628	254661.356421215143	1
2	630	254661.356421215143	0
2	653	258278.629283733278	1
2	655	258278.629283733278	0
2	661	260495.113502156122	1
2	663	260495.113502156122	0
2	686	264305.273756042203	1
2	688	264305.273756042203	0
2	702	266468.695088486355	1
2	704	266468.695088486355	0
2	710	267318.771103575846	1
2	712	267318.771103575846	0
2	718	269797.029237020061	1
2	720	269797.029237020061	0
2	743	274661.925701016529	1
2	745	274661.925701016529	0
2	760	281517.132916574833	1
2	762	281517.132916574833	0
2	785	284501.277658746478	1
2	787	284501.277658746478	0
2	793	285061.712862436321	1
2	795	285061.712862436321	0
2	801	285600.605520162966	1
2	803	285600.605520162966	0
2	834	291471.503659850926	1
2	836	291471.503659850926	0
2	842	291874.42941426584	1
2	844	291874.42941426584	0
2	859	294453.300632796658	1
2	861	294453.300632796658	0
2	875	298593.416467380646	1
2	877	298593.416467380646	0
2	900	305409.28160380696	1
2	902	305409.28160380696	0
2	918	316454.606234749614	1
2	920	316454.606234749614	0
2	926	317308.903034924251	1
2	928	317308.903034924251	0
2	948	319028.650750094713	1
2	953	319362.573047136813	0
2	969	334574.218056927877	1
2	971	334574.218056927877	0
2	986	338143.72396605515	1
2	988	338143.72396605515	0
2	1003	345878.374223816152	1
2	1005	345878.374223816152	0
2	1021	354083.66747169904	1
2	1023	354083.66747169904	0
2	1029	355662.293601456445	1
2	1031	355662.293601456445	0
2	1054	365211.583188739055	1
2	1056	365211.583188739055	0
2	1063	367200.72588946767	1
2	1065	367200.72588946767	0
2	1079	370309.855455098448	1
2	1081	370309.855455098448	0
2	1105	379131.043584581692	1
2	1107	379131.043584581692	0
2	1122	385829.1002437597	1
2	1124	385829.1002437597	0
2	1139	395156.413194625072	1
2	1141	395156.413194625072	0
2	1156	396485.11160297256	1
2	1158	396485.11160297256	0
2	1172	397892.56708611981	1
2	1174	397892.56708611981	0
2	1189	403222.969805408554	1
2	1191	403222.969805408554	0
2	1197	404753.71314294807	1
2	1199	404753.71314294807	0
2	1214	408304.430503622314	1
2	1216	408304.430503622314	0
2	1230	409306.03334621637	1
2	1232	409306.03334621637	0
2	1246	410510.632269557889	1
2	1248	410510.632269557889	0
2	1270	412881.393862634184	1
2	1272	412881.393862634184	0
2	1284	415107.295667390418	1
2	1289	415455.121788578381	0
2	1295	418014.785291234869	1
2	1297	418014.785291234869	0
2	1312	422771.413841253421	1
2	1314	422771.413841253421	0
2	1320	424320.843570924873	1
2	1322	424320.843570924873	0
2	1325	424377.545266102963	1
2	1330	424536.660475339742	0
2	1371	441903.837310083439	1
2	1373	441903.837310083439	0
2	1379	442073.245025727405	1
2	1381	442073.245025727405	0
2	1392	443795.244397736005	1
2	1398	444540.745600905436	0
2	1421	452260.218643585845	1
2	1423	452260.218643585845	0
2	1438	458020.927114724105	1
2	1440	458020.927114724105	0
2	1456	468242.942136058741	1
2	1458	468242.942136058741	0
2	1464	469678.56035916695	1
2	1466	469678.56035916695	0
2	1481	475150.38054580132	1
2	1483	475150.38054580132	0
2	1507	491256.175151156322	1
2	1509	491256.175151156322	0
2	1526	504212.351978176396	1
2	1528	504212.351978176396	0
2	1543	510965.795686087816	1
2	1545	510965.795686087816	0
2	1561	523961.271324015194	1
2	1563	523961.271324015194	0
2	1569	526841.379630530335	1
2	1571	526841.379630530335	0
2	1586	528632.082678342343	1
2	1588	528632.082678342343	0
2	1602	530091.471398158955	1
2	1604	530091.471398158955	0
2	1627	537821.344569472589	1
2	1629	537821.344569472589	0
2	1645	546411.174446819321	1
2	1647	546411.174446819321	0
2	1653	547141.997406610233	1
2	1655	547141.997406610233	0
2	1670	554444.500974132425	1
2	1672	554444.500974132425	0
2	1695	559052.526056581719	1
2	1697	559052.526056581719	0
2	1712	564806.384565447865	1
2	1714	564806.384565447865	0
2	1729	570101.542713896361	1
2	1731	570101.542713896361	0
2	1746	578073.529107311515	1
2	1748	578073.529107311515	0
2	1764	590505.106558647341	1
2	1766	590505.106558647341	0
2	1772	591588.01463258878	1
2	1774	591588.01463258878	0
2	1800	616587.749382890104	1
2	1802	616587.749382890104	0
2	1808	616956.494254635957	1
2	1810	616956.494254635957	0
2	1825	618653.85777316277	1
2	1827	618653.85777316277	0
2	1841	619844.11318765096	1
2	1843	619844.11318765096	0
2	1866	626436.084779379048	1
2	1868	626436.084779379048	0
2	1884	639672.466352289356	1
2	1886	639672.466352289356	0
2	1902	652223.852686598138	1
2	1904	652223.852686598138	0
2	1919	654805.308969567799	1
2	1921	654805.308969567799	0
2	1927	658315.021901637344	1
2	1929	658315.021901637344	0
2	1935	658648.995390262411	1
2	1937	658648.995390262411	0
2	1969	666011.194298168629	1
2	1971	666011.194298168629	0
2	1986	673804.605779327611	1
2	1988	673804.605779327611	0
2	2006	698455.384372399963	1
2	2008	698455.384372399963	0
2	2015	702076.391412746587	1
2	2017	702076.391412746587	0
2	2040	712892.864128215983	1
2	2042	712892.864128215983	0
2	2059	728431.351988862489	1
2	2061	728431.351988862489	0
2	2075	731036.102697203748	1
2	2077	731036.102697203748	0
2	2092	732219.491178041908	1
2	2094	732219.491178041908	0
2	2100	734561.560551049897	1
2	2102	734561.560551049897	0
2	2117	738886.411211275345	1
2	2119	738886.411211275345	0
2	2133	740925.010712505091	1
2	2135	740925.010712505091	0
2	2158	746265.312524206189	1
2	2160	746265.312524206189	0
2	2175	751708.220569703891	1
2	2177	751708.220569703891	0
2	2192	758887.557819797127	1
2	2194	758887.557819797127	0
2	2209	766042.847297932567	1
2	2211	766042.847297932567	0
2	2227	778927.502929822683	1
2	2229	778927.502929822683	0
2	2245	790518.207781627155	1
2	2247	790518.207781627155	0
2	2262	793100.30140413874	1
2	2264	793100.30140413874	0
2	2280	809568.58561610672	1
2	2282	809568.58561610672	0
2	2299	826995.546612703382	1
2	2301	826995.546612703382	0
2	2317	839704.880704472544	1
2	2319	839704.880704472544	0
2	2334	845217.83170288473	1
2	2336	845217.83170288473	0
2	2343	846603.158453552612	1
2	2345	846603.158453552612	0
2	2371	871232.74984559478	1
2	2373	871232.74984559478	0
2	2379	873177.425698824256	1
2	2381	873177.425698824256	0
2	2404	881594.357894553384	1
2	2406	881594.357894553384	0
2	2423	897588.406320720364	1
2	2425	897588.406320720364	0
2	2440	901335.423271141889	1
2	2442	901335.423271141889	0
2	2449	909313.715591912481	1
2	2451	909313.715591912481	0
2	2462	910862.303802215393	1
2	2467	910878.513860416356	0
2	2490	917203.821066823001	1
2	2492	917203.821066823001	0
2	2495	917273.018908886936	1
2	2500	917484.592203855459	0
2	2507	920218.09173903837	1
2	2509	920218.09173903837	0
2	2523	923927.293539326317	1
2	2525	923927.293539326317	0
2	2548	929273.759975068149	1
2	2550	929273.759975068149	0
2	2573	935367.154893828621	1
2	2575	935367.154893828621	0
2	2582	936262.212649635339	1
2	2584	936262.212649635339	0
2	2607	942052.679949127543	1
2	2609	942052.679949127543	0
2	2612	942898.346241102235	1
2	2617	942981.74060960777	0
2	2623	945378.32237730083	1
2	2625	945378.32237730083	0
2	2648	948885.418464777138	1
2	2650	948885.418464777138	0
2	2673	954880.958128656784	1
2	2675	954880.958128656784	0
2	2682	962985.479619145178	1
2	2684	962985.479619145178	0
2	2708	973727.072842924368	1
2	2710	973727.072842924368	0
2	2716	975044.021232405666	1
2	2718	975044.021232405666	0
2	2721	975354.287276181945	1
2	2726	975910.028842550683	0
2	2749	979470.579366144404	1
2	2751	979470.579366144404	0
2	2765	980584.774858320818	1
2	2767	980584.774858320818	0
2	2782	987585.219799173698	1
2	2784	987585.219799173698	0
2	2808	997619.219321298478	1
2	2810	997619.219321298478	0
2	2824	999597.331058133829	1
2	2826	999597.331058133829	0
2	2843	1014910.710687563657	1
2	2845	1014910.710687563657	0
2	2848	1015054.085422220688	1
2	2853	1015241.912864465591	0
2	2877	1028690.263729639144	1
2	2879	1028690.263729639144	0
3	368	121449.379499180525	0
3	393	127324.637902552953	0
3	409	130014.757033668673	0
3	417	130341.19982978933	0
3	435	138972.768606939596	0
3	466	182189.607721832988	1161.8594877997
3	474	183375.743434480021	0
3	491	186196.329977424132	0
3	508	192392.662775581183	0
3	526	209265.891328939985	0
3	545	222444.657300735859	0
3	572	243786.575810453591	0
3	588	245142.046250937917	425.79456296623
3	597	246873.945163762208	0
3	622	253559.93094811447	0
3	638	256078.14770529775	0
3	646	256876.518984701432	403.97582046503
3	671	261410.538725654058	792.29960268149
3	679	261528.832215090464	1.293924697119
3	696	264724.975921588694	0
3	729	270623.811935239908	0
3	737	272351.435427870594	0
3	753	275639.596817575644	0
3	771	282172.672048207535	0
3	779	282564.959519827142	0
3	811	285925.833803508796	7.548290943403
3	819	286688.947644248605	0
3	828	290312.538971888341	0
3	852	293493.623300958239	0
3	869	295029.972168418299	0
3	885	299737.127067432304	0
3	894	302773.007605938387	0
3	910	305776.760871684239	0
3	936	317858.447277423193	0
3	945	318698.29219564865	0
3	961	323284.168201415597	0
3	980	337567.656089353019	0
3	996	338311.380620515212	0
3	1013	346590.846912788288	0
3	1039	356929.809257028399	0
3	1047	357578.674611131662	0
3	1073	367879.587998228688	0
3	1089	371462.972539404467	0
3	1098	372139.576433534909	340.31549559834
3	1116	385590.665699389706	0
3	1132	387781.114090521958	0
3	1149	395902.027737927299	0
3	1166	396922.884038686814	0
3	1182	398645.883595162424	0
3	1207	404874.795051880362	51.423625219009
3	1224	408644.769796753449	0
3	1240	410152.036031617738	337.94336250197
3	1256	411165.727541480673	0
3	1264	411824.042827869055	0
3	1281	415051.514242720943	0
3	1306	420665.298287533833	0
3	1338	425197.199799137063	341.28723018044
3	1346	425714.233876034825	0
3	1355	426655.08366904419	0
3	1363	428380.685948471338	0
3	1389	443555.304360613356	975.46190051065
3	1406	445594.51343039742	0
3	1414	446882.737926350238	0
3	1431	452715.707674424415	0
3	1448	459667.205810465409	0
3	1475	474811.571006898138	0
3	1491	475515.070506603834	0
3	1499	478863.42312998358	0
3	1518	492383.958524893125	0
3	1536	507477.732568404827	0
3	1554	518767.975032541664	0
3	1580	528049.817157510252	0
3	1596	529852.749129765681	0
3	1612	531207.248183802994	0
3	1620	532250.141747540122	0
3	1638	545130.526149041843	0
3	1663	549622.395198043431	0
3	1680	555421.171314804275	0
3	1689	558281.226580881717	0
3	1705	563795.97001789963	0
3	1722	567007.375049875138	0
3	1739	572684.047168160292	0
3	1757	582274.529708842281	0
3	1782	593012.371355194681	0
3	1791	596082.4930108112	0
3	1819	618151.527690623088	0
3	1835	619060.225967787936	0
3	1851	620689.367248482858	0
3	1859	621585.760524325466	0
3	1876	626833.731726927995	0
3	1894	640415.384274320386	0
3	1912	653879.682072759519	0
3	1945	659536.060402701207	0
3	1954	660770.83113104216	1028.3802713476
3	1962	663558.910909157529	0
3	1979	668384.767361995393	0
3	1996	676449.633657756843	0
3	2025	703277.002653466093	0
3	2033	703684.99844456775	0
3	2051	715297.653091279804	0
3	2069	729024.470348002628	0
3	2085	731688.123957710048	0
3	2110	735932.284167198039	0
3	2127	740253.402169325987	0
3	2143	741267.258540285291	184.0135136027
3	2151	742276.477955552253	0
3	2168	747073.093341369844	0
3	2185	752270.493859778399	0
3	2203	764216.953314317829	0
3	2219	767726.034170511046	0
3	2238	780095.386521726279	0
3	2255	791166.157544861036	0
3	2273	799291.696001923999	0
3	2291	812351.708925743753	0
3	2310	833257.73230631096	0
3	2328	840858.156651948538	0
3	2353	848372.271586694786	0
3	2361	848904.063806069394	0
3	2389	873478.930406885073	0
3	2398	879687.850665818601	0
3	2415	885456.549213957956	0
3	2434	900556.536527691317	0
3	2459	910677.626283925004	0
3	2475	911108.838439039218	0
3	2484	913306.260528859641	0
3	2517	920534.061744521958	0
3	2534	924337.245060127285	0
3	2542	924632.430004247246	251.44041736432
3	2559	930290.821774947877	0
3	2567	932045.234927992758	0
3	2592	936975.974025991807	0
3	2600	939559.439208948702	0
3	2633	945510.889664518174	49.709037125377
3	2641	945719.555857009679	0
3	2658	949713.620107342276	0
3	2666	951794.504575277652	0
3	2692	965481.689336956879	0
3	2702	972169.958925724617	0
3	2734	976596.193294605813	0
3	2742	976968.494366528902	221.54348946114
3	2759	979892.677504956688	0
3	2775	981101.243145768743	0
3	2792	988895.394185523325	0
3	2800	989841.014183775035	0
3	2818	999103.448847061849	0
3	2834	1000711.251553123377	0
3	2861	1015647.120005653395	218.50874068906
3	2869	1016237.719966848175	0
3	2887	1031028.917175605546	0
4	366	121449.379499180525	1
4	368	121449.379499180525	0
4	391	127324.637902552953	1
4	393	127324.637902552953	0
4	407	130014.757033668673	1
4	409	130014.757033668673	0
4	415	130341.19982978933	1
4	417	130341.19982978933	0
4	433	138972.768606939596	1
4	435	138972.768606939596	0
4	461	181027.748234033325	1
4	466	182189.607721832988	0
4	472	183375.743434480021	1
4	474	183375.743434480021	0
4	489	186196.329977424132	1
4	491	186196.329977424132	0
4	506	192392.662775581183	1
4	508	192392.662775581183	0
4	524	209265.891328939985	1
4	526	209265.891328939985	0
4	543	222444.657300735859	1
4	545	222444.657300735859	0
4	570	243786.575810453591	1
4	572	243786.575810453591	0
4	583	244716.251687971688	1
4	588	245142.046250937917	0
4	595	246873.945163762208	1
4	597	246873.945163762208	0
4	620	253559.93094811447	1
4	622	253559.93094811447	0
4	636	256078.14770529775	1
4	638	256078.14770529775	0
4	641	256472.543164236402	1
4	646	256876.518984701432	0
4	666	260618.239122972572	1
4	671	261410.538725654058	0
4	674	261527.538290393345	1
4	679	261528.832215090464	0
4	694	264724.975921588694	1
4	696	264724.975921588694	0
4	727	270623.811935239908	1
4	729	270623.811935239908	0
4	735	272351.435427870594	1
4	737	272351.435427870594	0
4	751	275639.596817575644	1
4	753	275639.596817575644	0
4	769	282172.672048207535	1
4	771	282172.672048207535	0
4	777	282564.959519827142	1
4	779	282564.959519827142	0
4	806	285918.285512565393	1
4	811	285925.833803508796	0
4	817	286688.947644248605	1
4	819	286688.947644248605	0
4	826	290312.538971888341	1
4	828	290312.538971888341	0
4	850	293493.623300958239	1
4	852	293493.623300958239	0
4	867	295029.972168418299	1
4	869	295029.972168418299	0
4	883	299737.127067432304	1
4	885	299737.127067432304	0
4	892	302773.007605938387	1
4	894	302773.007605938387	0
4	908	305776.760871684239	1
4	910	305776.760871684239	0
4	934	317858.447277423193	1
4	936	317858.447277423193	0
4	943	318698.29219564865	1
4	945	318698.29219564865	0
4	959	323284.168201415597	1
4	961	323284.168201415597	0
4	978	337567.656089353019	1
4	980	337567.656089353019	0
4	994	338311.380620515212	1
4	996	338311.380620515212	0
4	1011	346590.846912788288	1
4	1013	346590.846912788288	0
4	1037	356929.809257028399	1
4	1039	356929.809257028399	0
4	1045	357578.674611131662	1
4	1047	357578.674611131662	0
4	1071	367879.587998228688	1
4	1073	367879.587998228688	0
4	1087	371462.972539404467	1
4	1089	371462.972539404467	0
4	1092	371799.260937936574	1
4	1098	372139.576433534909	0
4	1114	385590.665699389706	1
4	1116	385590.665699389706	0
4	1130	387781.114090521958	1
4	1132	387781.114090521958	0
4	1147	395902.027737927299	1
4	1149	395902.027737927299	0
4	1164	396922.884038686814	1
4	1166	396922.884038686814	0
4	1180	398645.883595162424	1
4	1182	398645.883595162424	0
4	1202	404823.371426661353	1
4	1207	404874.795051880362	0
4	1222	408644.769796753449	1
4	1224	408644.769796753449	0
4	1235	409814.092669115764	1
4	1240	410152.036031617738	0
4	1254	411165.727541480673	1
4	1256	411165.727541480673	0
4	1262	411824.042827869055	1
4	1264	411824.042827869055	0
4	1279	415051.514242720943	1
4	1281	415051.514242720943	0
4	1304	420665.298287533833	1
4	1306	420665.298287533833	0
4	1333	424855.912568956623	1
4	1338	425197.199799137063	0
4	1344	425714.233876034825	1
4	1346	425714.233876034825	0
4	1353	426655.08366904419	1
4	1355	426655.08366904419	0
4	1361	428380.685948471338	1
4	1363	428380.685948471338	0
4	1384	442579.842460102704	1
4	1389	443555.304360613356	0
4	1404	445594.51343039742	1
4	1406	445594.51343039742	0
4	1412	446882.737926350238	1
4	1414	446882.737926350238	0
4	1429	452715.707674424415	1
4	1431	452715.707674424415	0
4	1446	459667.205810465409	1
4	1448	459667.205810465409	0
4	1473	474811.571006898138	1
4	1475	474811.571006898138	0
4	1489	475515.070506603834	1
4	1491	475515.070506603834	0
4	1497	478863.42312998358	1
4	1499	478863.42312998358	0
4	1516	492383.958524893125	1
4	1518	492383.958524893125	0
4	1534	507477.732568404827	1
4	1536	507477.732568404827	0
4	1552	518767.975032541664	1
4	1554	518767.975032541664	0
4	1578	528049.817157510252	1
4	1580	528049.817157510252	0
4	1594	529852.749129765681	1
4	1596	529852.749129765681	0
4	1610	531207.248183802994	1
4	1612	531207.248183802994	0
4	1618	532250.141747540122	1
4	1620	532250.141747540122	0
4	1636	545130.526149041843	1
4	1638	545130.526149041843	0
4	1661	549622.395198043431	1
4	1663	549622.395198043431	0
4	1678	555421.171314804275	1
4	1680	555421.171314804275	0
4	1687	558281.226580881717	1
4	1689	558281.226580881717	0
4	1703	563795.97001789963	1
4	1705	563795.97001789963	0
4	1720	567007.375049875138	1
4	1722	567007.375049875138	0
4	1737	572684.047168160292	1
4	1739	572684.047168160292	0
4	1755	582274.529708842281	1
4	1757	582274.529708842281	0
4	1780	593012.371355194681	1
4	1782	593012.371355194681	0
4	1789	596082.4930108112	1
4	1791	596082.4930108112	0
4	1817	618151.527690623088	1
4	1819	618151.527690623088	0
4	1833	619060.225967787936	1
4	1835	619060.225967787936	0
4	1849	620689.367248482858	1
4	1851	620689.367248482858	0
4	1857	621585.760524325466	1
4	1859	621585.760524325466	0
4	1874	626833.731726927995	1
4	1876	626833.731726927995	0
4	1892	640415.384274320386	1
4	1894	640415.384274320386	0
4	1910	653879.682072759519	1
4	1912	653879.682072759519	0
4	1943	659536.060402701207	1
4	1945	659536.060402701207	0
4	1948	659742.450859694556	1
4	1954	660770.83113104216	0
4	1960	663558.910909157529	1
4	1962	663558.910909157529	0
4	1977	668384.767361995393	1
4	1979	668384.767361995393	0
4	1994	676449.633657756843	1
4	1996	676449.633657756843	0
4	2023	703277.002653466093	1
4	2025	703277.002653466093	0
4	2031	703684.99844456775	1
4	2033	703684.99844456775	0
4	2049	715297.653091279804	1
4	2051	715297.653091279804	0
4	2067	729024.470348002628	1
4	2069	729024.470348002628	0
4	2083	731688.123957710048	1
4	2085	731688.123957710048	0
4	2108	735932.284167198039	1
4	2110	735932.284167198039	0
4	2125	740253.402169325987	1
4	2127	740253.402169325987	0
4	2138	741083.245026682588	1
4	2143	741267.258540285291	0
4	2149	742276.477955552253	1
4	2151	742276.477955552253	0
4	2166	747073.093341369844	1
4	2168	747073.093341369844	0
4	2183	752270.493859778399	1
4	2185	752270.493859778399	0
4	2201	764216.953314317829	1
4	2203	764216.953314317829	0
4	2217	767726.034170511046	1
4	2219	767726.034170511046	0
4	2236	780095.386521726279	1
4	2238	780095.386521726279	0
4	2253	791166.157544861036	1
4	2255	791166.157544861036	0
4	2271	799291.696001923999	1
4	2273	799291.696001923999	0
4	2289	812351.708925743753	1
4	2291	812351.708925743753	0
4	2308	833257.73230631096	1
4	2310	833257.73230631096	0
4	2326	840858.156651948538	1
4	2328	840858.156651948538	0
4	2351	848372.271586694786	1
4	2353	848372.271586694786	0
4	2359	848904.063806069394	1
4	2361	848904.063806069394	0
4	2387	873478.930406885073	1
4	2389	873478.930406885073	0
4	2396	879687.850665818601	1
4	2398	879687.850665818601	0
4	2413	885456.549213957956	1
4	2415	885456.549213957956	0
4	2432	900556.536527691317	1
4	2434	900556.536527691317	0
4	2457	910677.626283925004	1
4	2459	910677.626283925004	0
4	2473	911108.838439039218	1
4	2475	911108.838439039218	0
4	2482	913306.260528859641	1
4	2484	913306.260528859641	0
4	2515	920534.061744521958	1
4	2517	920534.061744521958	0
4	2532	924337.245060127285	1
4	2534	924337.245060127285	0
4	2537	924380.98958688293	1
4	2542	924632.430004247246	0
4	2557	930290.821774947877	1
4	2559	930290.821774947877	0
4	2565	932045.234927992758	1
4	2567	932045.234927992758	0
4	2590	936975.974025991807	1
4	2592	936975.974025991807	0
4	2598	939559.439208948702	1
4	2600	939559.439208948702	0
4	2628	945461.180627392797	1
4	2633	945510.889664518174	0
4	2639	945719.555857009679	1
4	2641	945719.555857009679	0
4	2656	949713.620107342276	1
4	2658	949713.620107342276	0
4	2664	951794.504575277652	1
4	2666	951794.504575277652	0
4	2690	965481.689336956879	1
4	2692	965481.689336956879	0
4	2700	972169.958925724617	1
4	2702	972169.958925724617	0
4	2732	976596.193294605813	1
4	2734	976596.193294605813	0
4	2737	976746.950877067765	1
4	2742	976968.494366528902	0
4	2757	979892.677504956688	1
4	2759	979892.677504956688	0
4	2773	981101.243145768743	1
4	2775	981101.243145768743	0
4	2790	988895.394185523325	1
4	2792	988895.394185523325	0
4	2798	989841.014183775035	1
4	2800	989841.014183775035	0
4	2816	999103.448847061849	1
4	2818	999103.448847061849	0
4	2832	1000711.251553123377	1
4	2834	1000711.251553123377	0
4	2856	1015428.611264964334	1
4	2861	1015647.120005653395	0
4	2867	1016237.719966848175	1
4	2869	1016237.719966848175	0
4	2885	1031028.917175605546	1
4	2887	1031028.917175605546	0
5	373	126000	1
5	422	132000	3
5	423	138000	0
5	440	144000	1
5	441	150000	0
5	442	156000	0
5	443	162000	0
5	452	168000	1
5	453	174000	0
5	454	180000	0
5	487	186000	2
5	504	192000	1
5	513	198000	0
5	514	204000	0
5	531	210000	1
5	532	216000	0
5	541	222000	1
5	550	228000	0
5	551	234000	0
5	552	240000	0
5	593	246000	3
5	615	252000	1
5	651	258000	2
5	684	264000	2
5	725	270000	4
5	758	276000	1
5	767	282000	1
5	824	288000	3
5	854	294000	2
5	890	300000	2
5	912	306000	1
5	916	312000	0
5	938	318000	2
5	966	324000	1
5	967	330000	0
5	976	336000	1
5	1001	342000	1
5	1018	348000	1
5	1019	354000	0
5	1052	360000	2
5	1061	366000	1
5	1094	372000	2
5	1103	378000	0
5	1112	384000	1
5	1137	390000	1
5	1151	396000	1
5	1187	402000	2
5	1212	408000	2
5	1277	414000	4
5	1302	420000	2
5	1351	426000	3
5	1368	432000	0
5	1369	438000	0
5	1394	444000	2
5	1419	450000	1
5	1436	456000	1
5	1453	462000	1
5	1454	468000	0
5	1471	474000	2
5	1504	480000	1
5	1505	486000	0
5	1514	492000	1
5	1523	498000	0
5	1524	504000	0
5	1541	510000	1
5	1550	516000	1
5	1559	522000	0
5	1576	528000	2
5	1625	534000	2
5	1634	540000	1
5	1643	546000	0
5	1668	552000	2
5	1685	558000	1
5	1710	564000	1
5	1727	570000	1
5	1744	576000	1
5	1753	582000	1
5	1762	588000	0
5	1787	594000	2
5	1796	600000	0
5	1797	606000	0
5	1798	612000	0
5	1815	618000	2
5	1864	624000	2
5	1881	630000	1
5	1882	636000	0
5	1899	642000	1
5	1900	648000	0
5	1914	654000	1
5	1950	660000	3
5	1967	666000	0
5	1984	672000	1
5	2001	678000	1
5	2002	684000	0
5	2003	690000	0
5	2004	696000	0
5	2013	702000	1
5	2038	708000	1
5	2047	714000	1
5	2056	720000	0
5	2057	726000	0
5	2090	732000	2
5	2115	738000	2
5	2156	744000	2
5	2173	750000	1
5	2190	756000	1
5	2199	762000	1
5	2224	768000	1
5	2225	774000	0
5	2234	780000	1
5	2243	786000	0
5	2260	792000	1
5	2269	798000	1
5	2278	804000	0
5	2287	810000	1
5	2296	816000	0
5	2297	822000	0
5	2303	828000	0
5	2312	834000	1
5	2324	840000	1
5	2341	846000	1
5	2366	852000	1
5	2367	858000	0
5	2368	864000	0
5	2369	870000	0
5	2394	876000	2
5	2408	882000	0
5	2420	888000	1
5	2421	894000	0
5	2430	900000	1
5	2447	906000	1
5	2477	912000	2
5	2505	918000	2
5	2530	924000	2
5	2555	930000	1
5	2580	936000	1
5	2605	942000	1
5	2646	948000	3
5	2671	954000	1
5	2680	960000	1
5	2697	966000	1
5	2698	972000	0
5	2747	978000	3
5	2780	984000	2
5	2802	990000	1
5	2806	996000	0
5	2839	1002000	2
5	2840	1008000	0
5	2841	1014000	0
5	2874	1020000	2
5	2875	1026000	0
5	2892	1032000	1
6	373	126000	1
6	422	132000	3
6	423	138000	0
6	440	144000	1
6	441	150000	0
6	442	156000	0
6	443	162000	0
6	452	168000	0
6	453	174000	0
6	454	180000	0
6	487	186000	2
6	504	192000	1
6	513	198000	1
6	514	204000	0
6	531	210000	1
6	532	216000	0
6	541	222000	0
6	550	228000	1
6	551	234000	0
6	552	240000	0
6	593	246000	2
6	615	252000	1
6	651	258000	3
6	684	264000	2
6	725	270000	1
6	758	276000	3
6	767	282000	0
6	824	288000	4
6	854	294000	1
6	890	300000	3
6	912	306000	1
6	916	312000	1
6	938	318000	0
6	966	324000	3
6	967	330000	0
6	976	336000	0
6	1001	342000	2
6	1018	348000	1
6	1019	354000	0
6	1052	360000	2
6	1061	366000	0
6	1094	372000	1
6	1103	378000	2
6	1112	384000	0
6	1137	390000	2
6	1151	396000	0
6	1187	402000	3
6	1212	408000	1
6	1277	414000	4
6	1302	420000	1
6	1351	426000	3
6	1368	432000	2
6	1369	438000	0
6	1394	444000	0
6	1419	450000	3
6	1436	456000	1
6	1453	462000	1
6	1454	468000	0
6	1471	474000	0
6	1504	480000	3
6	1505	486000	0
6	1514	492000	0
6	1523	498000	1
6	1524	504000	0
6	1541	510000	1
6	1550	516000	0
6	1559	522000	1
6	1576	528000	0
6	1625	534000	4
6	1634	540000	0
6	1643	546000	1
6	1668	552000	1
6	1685	558000	1
6	1710	564000	2
6	1727	570000	1
6	1744	576000	1
6	1753	582000	0
6	1762	588000	1
6	1787	594000	1
6	1796	600000	1
6	1797	606000	0
6	1798	612000	0
6	1815	618000	0
6	1864	624000	4
6	1881	630000	1
6	1882	636000	0
6	1899	642000	1
6	1900	648000	0
6	1914	654000	0
6	1950	660000	1
6	1967	666000	3
6	1984	672000	1
6	2001	678000	1
6	2002	684000	0
6	2003	690000	0
6	2004	696000	0
6	2013	702000	0
6	2038	708000	2
6	2047	714000	0
6	2056	720000	1
6	2057	726000	0
6	2090	732000	2
6	2115	738000	1
6	2156	744000	3
6	2173	750000	1
6	2190	756000	1
6	2199	762000	0
6	2224	768000	2
6	2225	774000	0
6	2234	780000	0
6	2243	786000	1
6	2260	792000	1
6	2269	798000	0
6	2278	804000	1
6	2287	810000	0
6	2296	816000	1
6	2297	822000	0
6	2303	828000	0
6	2312	834000	0
6	2324	840000	1
6	2341	846000	1
6	2366	852000	2
6	2367	858000	0
6	2368	864000	0
6	2369	870000	0
6	2394	876000	1
6	2408	882000	1
6	2420	888000	1
6	2421	894000	0
6	2430	900000	0
6	2447	906000	1
6	2477	912000	1
6	2505	918000	2
6	2530	924000	1
6	2555	930000	2
6	2580	936000	2
6	2605	942000	2
6	2646	948000	2
6	2671	954000	2
6	2680	960000	0
6	2697	966000	1
6	2698	972000	0
6	2747	978000	3
6	2780	984000	2
6	2802	990000	1
6	2806	996000	1
6	2839	1002000	2
6	2840	1008000	0
6	2841	1014000	0
6	2874	1020000	2
6	2875	1026000	0
6	2892	1032000	1
7	365	121449.379499180525	0
7	380	126624.105013707573	1
7	388	127215.677614147434	2
7	390	127324.637902552953	1
7	404	129484.067659513872	2
7	406	130014.757033668673	1
7	414	130341.19982978933	0
7	430	138667.555426013412	1
7	432	138972.768606939596	0
7	450	163539.271032713731	1
7	460	181027.748234033325	0
7	464	182189.607721832988	1
7	471	183375.743434480021	0
7	485	185276.50857477808	1
7	488	186196.329977424132	0
7	502	191173.989063168737	1
7	505	192392.662775581183	0
7	521	208254.019759894523	1
7	523	209265.891328939985	0
7	539	220400.768703982463	1
7	542	222444.657300735859	0
7	559	240916.70829847381	1
7	567	243719.750949910487	2
7	569	243786.575810453591	1
7	582	244716.251687971688	0
7	586	245142.046250937917	1
7	594	246873.945163762208	0
7	608	249886.194420459632	1
7	617	252191.730020054759	2
7	619	253559.93094811447	1
7	633	254666.305039173749	2
7	635	256078.14770529775	1
7	640	256472.543164236402	0
7	658	258694.594677483216	1
7	665	260618.239122972572	0
7	669	261410.538725654058	1
7	673	261527.538290393345	0
7	691	264396.513637456026	1
7	693	264724.975921588694	0
7	707	266511.664260462641	1
7	715	267379.272383106602	2
7	723	269910.072362344332	3
7	726	270623.811935239908	2
7	734	272351.435427870594	1
7	748	274977.233979846385	2
7	750	275639.596817575644	1
7	765	281653.955797582995	2
7	768	282172.672048207535	1
7	776	282564.959519827142	0
7	790	284517.879813245308	1
7	798	285147.307380509117	2
7	805	285918.285512565393	1
7	809	285925.833803508796	2
7	816	286688.947644248605	1
7	825	290312.538971888341	0
7	839	291858.121791392388	1
7	847	292181.213793790799	2
7	849	293493.623300958239	1
7	864	294561.975177504094	2
7	866	295029.972168418299	1
7	880	298819.306148471093	2
7	882	299737.127067432304	1
7	891	302773.007605938387	0
7	905	305647.003246845854	1
7	907	305776.760871684239	0
7	923	316584.814012876938	1
7	931	317339.288461670227	2
7	933	317858.447277423193	1
7	942	318698.29219564865	0
7	956	319891.68799183303	1
7	958	323284.168201415597	0
7	974	334678.77790178157	1
7	977	337567.656089353019	0
7	991	338146.682426511718	1
7	993	338311.380620515212	0
7	1008	346504.169446013812	1
7	1010	346590.846912788288	0
7	1026	354126.254432169365	1
7	1034	355669.683409600303	2
7	1036	356929.809257028399	1
7	1044	357578.674611131662	0
7	1059	365229.823834075027	1
7	1068	367448.556326265139	2
7	1070	367879.587998228688	1
7	1084	370516.738415918373	2
7	1086	371462.972539404467	1
7	1091	371799.260937936574	0
7	1110	379248.424378034774	1
7	1113	385590.665699389706	0
7	1127	386054.401976162481	1
7	1129	387781.114090521958	0
7	1144	395704.153222803051	1
7	1146	395902.027737927299	0
7	1161	396677.337004345368	1
7	1163	396922.884038686814	0
7	1177	397964.443198101154	1
7	1179	398645.883595162424	0
7	1194	403418.628261229167	1
7	1201	404823.371426661353	0
7	1205	404874.795051880362	1
7	1219	408552.28854165274	2
7	1221	408644.769796753449	1
7	1234	409814.092669115764	0
7	1238	410152.036031617738	1
7	1251	410597.956780368501	2
7	1253	411165.727541480673	1
7	1261	411824.042827869055	0
7	1275	413058.333854615	1
7	1278	415051.514242720943	0
7	1292	415790.868133670279	1
7	1300	418114.264740766408	2
7	1303	420665.298287533833	1
7	1317	422995.647455943418	2
7	1328	424536.660475339742	3
7	1332	424855.912568956623	2
7	1336	425197.199799137063	3
7	1343	425714.233876034825	2
7	1352	426655.08366904419	1
7	1360	428380.685948471338	0
7	1376	441968.285384819306	1
7	1383	442579.842460102704	0
7	1387	443555.304360613356	1
7	1401	444657.657930373742	2
7	1403	445594.51343039742	1
7	1411	446882.737926350238	0
7	1426	452339.625387502705	1
7	1428	452715.707674424415	0
7	1443	458184.106817839296	1
7	1445	459667.205810465409	0
7	1461	468613.327757676336	1
7	1469	470116.124680546438	2
7	1472	474811.571006898138	1
7	1486	475240.022120287074	2
7	1488	475515.070506603834	1
7	1496	478863.42312998358	0
7	1512	491516.589549320748	1
7	1515	492383.958524893125	0
7	1531	504816.245161490203	1
7	1533	507477.732568404827	0
7	1548	511624.23990139207	1
7	1551	518767.975032541664	0
7	1566	523966.963771336055	1
7	1574	526949.48784444679	2
7	1577	528049.817157510252	1
7	1591	529048.915556386177	2
7	1593	529852.749129765681	1
7	1607	530115.156575389632	2
7	1609	531207.248183802994	1
7	1617	532250.141747540122	0
7	1632	538200.669011356667	1
7	1635	545130.526149041843	0
7	1650	546726.312744629147	1
7	1658	547879.112809713086	2
7	1660	549622.395198043431	1
7	1675	554745.968847493022	2
7	1677	555421.171314804275	1
7	1686	558281.226580881717	0
7	1700	560021.07725388896	1
7	1702	563795.97001789963	0
7	1717	564906.127523111556	1
7	1719	567007.375049875138	0
7	1734	570688.089202884933	1
7	1736	572684.047168160292	0
7	1751	578145.988683782066	1
7	1754	582274.529708842281	0
7	1769	591068.69557623111	1
7	1777	591885.751054357725	2
7	1779	593012.371355194681	1
7	1788	596082.4930108112	0
7	1805	616712.716139318137	1
7	1813	616981.745490584861	2
7	1816	618151.527690623088	1
7	1830	618819.430241905482	2
7	1832	619060.225967787936	1
7	1846	619906.124381034245	2
7	1848	620689.367248482858	1
7	1856	621585.760524325466	0
7	1871	626448.20259147649	1
7	1873	626833.731726927995	0
7	1889	639903.081019217402	1
7	1891	640415.384274320386	0
7	1907	652602.788157288661	1
7	1909	653879.682072759519	0
7	1924	655035.127046655282	1
7	1932	658331.396548045247	2
7	1940	658803.53185994379	3
7	1942	659536.060402701207	2
7	1947	659742.450859694556	1
7	1959	663558.910909157529	0
7	1974	666170.143236614783	1
7	1976	668384.767361995393	0
7	1991	673930.579489293213	1
7	1993	676449.633657756843	0
7	2011	699170.143866805844	1
7	2020	702199.266907759059	2
7	2022	703277.002653466093	1
7	2030	703684.99844456775	0
7	2045	713097.256029380786	1
7	2048	715297.653091279804	0
7	2064	728585.653631998712	1
7	2066	729024.470348002628	0
7	2080	731091.788098852633	1
7	2082	731688.123957710048	0
7	2097	732838.14456953741	1
7	2105	735283.113713750117	2
7	2107	735932.284167198039	1
7	2122	738930.547828872406	2
7	2124	740253.402169325987	1
7	2137	741083.245026682588	0
7	2141	741267.258540285291	1
7	2148	742276.477955552253	0
7	2163	746298.000236844697	1
7	2165	747073.093341369844	0
7	2180	751943.059139758979	1
7	2182	752270.493859778399	0
7	2197	759258.026196124635	1
7	2200	764216.953314317829	0
7	2214	766348.667756364043	1
7	2216	767726.034170511046	0
7	2232	778972.785228015889	1
7	2235	780095.386521726279	0
7	2250	790928.044919402501	1
7	2252	791166.157544861036	0
7	2267	793264.432390949309	1
7	2270	799291.696001923999	0
7	2285	809749.356069501049	1
7	2288	812351.708925743753	0
7	2305	828030.963211911406	1
7	2307	833257.73230631096	0
7	2322	839742.755846421519	1
7	2325	840858.156651948538	0
7	2339	845476.154414541957	1
7	2348	847321.479118885296	2
7	2350	848372.271586694786	1
7	2358	848904.063806069394	0
7	2376	871382.081197782641	1
7	2384	873238.470088764303	2
7	2386	873478.930406885073	1
7	2395	879687.850665818601	0
7	2410	882451.641659519588	1
7	2412	885456.549213957956	0
7	2428	897821.969318524674	1
7	2431	900556.536527691317	0
7	2445	901341.003881047275	1
7	2454	909393.4430899032	2
7	2456	910677.626283925004	1
7	2470	910908.723750767632	2
7	2472	911108.838439039218	1
7	2481	913306.260528859641	0
7	2498	917484.592203855459	1
7	2503	917489.940572917557	2
7	2512	920533.11740012238	3
7	2514	920534.061744521958	2
7	2528	923999.61726579313	3
7	2531	924337.245060127285	2
7	2536	924380.98958688293	1
7	2553	929471.338596162248	2
7	2556	930290.821774947877	1
7	2564	932045.234927992758	0
7	2578	935545.418377414212	1
7	2587	936517.89420708835	2
7	2589	936975.974025991807	1
7	2597	939559.439208948702	0
7	2615	942981.74060960777	1
7	2620	944155.542376645289	2
7	2627	945461.180627392797	1
7	2631	945510.889664518174	2
7	2638	945719.555857009679	1
7	2653	949029.996943685933	2
7	2655	949713.620107342276	1
7	2663	951794.504575277652	0
7	2678	955300.304179926569	1
7	2687	963393.991793150139	2
7	2689	965481.689336956879	1
7	2699	972169.958925724617	0
7	2713	974056.154990829243	1
7	2724	975910.028842550683	2
7	2729	976040.638175892144	3
7	2731	976596.193294605813	2
7	2736	976746.950877067765	1
7	2754	979744.397302841539	2
7	2756	979892.677504956688	1
7	2770	980600.451064745741	2
7	2772	981101.243145768743	1
7	2787	987662.755022656121	2
7	2789	988895.394185523325	1
7	2797	989841.014183775035	0
7	2813	997655.084572257689	1
7	2815	999103.448847061849	0
7	2829	1000027.141109333526	1
7	2831	1000711.251553123377	0
7	2851	1015241.912864465591	1
7	2855	1015428.611264964334	0
7	2859	1015647.120005653395	1
7	2866	1016237.719966848175	0
7	2882	1028806.233824913609	1
7	2884	1031028.917175605546	0
