file 50489 1483635549                                           
version 2
run QueueMeasurement-53-20170105-15:39:52-5573
attr configname QueueMeasurement
attr datetime 20170105-15:39:52
attr experiment QueueMeasurement
attr inifile queueStudy.ini
attr iterationvars ""
attr iterationvars2 $repetition=53
attr measurement ""
attr network SimNetwork
attr processid 5573
attr repetition 53
attr replication #53
attr resultdir results
attr runnumber 53
attr seedset 53
param SimNetwork.a.parkingLot.parkingDelay exponential(45min)
param SimNetwork.a.runway.landingTime exponential(5min)
param SimNetwork.a.runway.takeoffTime exponential(5min)
param SimNetwork.a.runway.throughputCheckInterval 100min
param SimNetwork.wg.interArrivalTime exponential(100min)
vector 5  SimNetwork.a.runway  landedThroughput:vector  ETV
attr source landedThroughputSignal
5	36417 2396 261 3004 126000 1032000 152 0 4 162 292
vector 6  SimNetwork.a.runway  tookoffThroughput:vector  ETV
attr source tookoffThroughputSignal
6	38813 2396 261 3004 126000 1032000 152 0 4 163 327
vector 2  SimNetwork.a.landingQueue  queueLength:vector  ETV
attr source queueLengthSignal
2	13106 9264 263 2990 127630.947344179998 1023145.66301130533 324 0 1 162 162
vector 1  SimNetwork.a.landingQueue  queueTime:vector  ETV
attr source queueTimeSignal
1	8308 4798 265 2990 127630.947344179998 1023145.66301130533 162 0 1201.0912034169 4562.6712539588 3121801.2248556
vector 7  SimNetwork.a.parkingLot  parkingOccupancy:vector  ETV
attr source parkingOccupancy
7	41209 9280 268 2995 127821.728735887236 1024776.826712204532 324 0 4 304 494
vector 4  SimNetwork.a.takeoffQueue  queueLength:vector  ETV
attr source queueLengthSignal
4	27135 9282 285 2998 132098.513454934711 1024776.826712204532 324 0 1 162 162
vector 3  SimNetwork.a.takeoffQueue  queueTime:vector  ETV
attr source queueTimeSignal
3	22370 4765 290 2998 132395.323999484638 1024776.826712204532 162 0 1380.2365759892 2678.7256642342 2210027.2570986
vector 0  SimNetwork.wg  responseTime:vector  ETV
attr source responseTimeSignal
0	1420 6888 293 3001 132761.472170249319 1025012.764466995115 162 866.91074006367 34863.853018017 1444514.0043406 18431426478.431
