version 2
run QueueMeasurement-134-20170109-14:26:00-7021
attr configname QueueMeasurement
attr datetime 20170109-14:26:00
attr experiment QueueMeasurement
attr inifile queueStudy.ini
attr iterationvars ""
attr iterationvars2 $repetition=134
attr measurement ""
attr network controltower.SimNetwork
attr processid 7021
attr repetition 134
attr replication #134
attr resultdir results
attr runnumber 134
attr seedset 134
param SimNetwork.a.parkingLot.parkingDelay exponential(45min)
param SimNetwork.a.runway.landingTime exponential(5min)
param SimNetwork.a.runway.takeoffTime exponential(5min)
param SimNetwork.a.runway.throughputCheckInterval 100min
param SimNetwork.wg.interArrivalTime exponential(100min)

statistic SimNetwork.wg 	responseTime:stats
field count 159
field mean 9244.4298780636
field stddev 6506.818189834
field sum 1469864.3506121
field sqrsum 20277569826.477
field min 1108.5871211591
field max 37975.62886723
attr source  responseTimeSignal
scalar SimNetwork.a.landingQueue 	queueLength:timeavg 	0.010940604450109
attr source  queueLengthSignal
statistic SimNetwork.a.landingQueue 	queueLength:stats
field count 318
field mean 0.5377358490566
field stddev 0.55897373800864
field sum 171
field sqrsum 191
field min 0
field max 3
attr source  queueLengthSignal
statistic SimNetwork.a.landingQueue 	queueTime:stats
field count 159
field mean 62.562475521979
field stddev 209.3853882196
field sum 9947.4336079946
field sqrsum 7549410.1179866
field min 0
field max 1574.1004803947
attr source  queueTimeSignal
scalar SimNetwork.a.takeoffQueue 	queueLength:timeavg 	0.0093160785012173
attr source  queueLengthSignal
statistic SimNetwork.a.takeoffQueue 	queueLength:stats
field count 318
field mean 0.5062893081761
field stddev 0.50700898573925
field sum 161
field sqrsum 163
field min 0
field max 2
attr source  queueLengthSignal
statistic SimNetwork.a.takeoffQueue 	queueTime:stats
field count 159
field mean 53.64706469674
field stddev 198.03945349078
field sum 8529.8832867817
field sqrsum 6654303.9724923
field min 0
field max 1522.7047131201
attr source  queueTimeSignal
scalar SimNetwork.a.parkingLot 	parkingOccupancy:timeavg 	0.47160748574522
attr source  parkingOccupancy
statistic SimNetwork.a.parkingLot 	parkingOccupancy:stats
field count 318
field mean 0.97798742138365
field stddev 0.82325412620172
field sum 311
field sqrsum 519
field min 0
field max 3
attr source  parkingOccupancy
