version 2
run QueueMeasurement-55-20170105-15:39:52-5577
attr configname QueueMeasurement
attr datetime 20170105-15:39:52
attr experiment QueueMeasurement
attr inifile queueStudy.ini
attr iterationvars ""
attr iterationvars2 $repetition=55
attr measurement ""
attr network SimNetwork
attr processid 5577
attr repetition 55
attr replication #55
attr resultdir results
attr runnumber 55
attr seedset 55
param SimNetwork.a.parkingLot.parkingDelay exponential(45min)
param SimNetwork.a.runway.landingTime exponential(5min)
param SimNetwork.a.runway.takeoffTime exponential(5min)
param SimNetwork.a.runway.throughputCheckInterval 100min
param SimNetwork.wg.interArrivalTime exponential(100min)

statistic SimNetwork.wg 	responseTime:stats
field count 148
field mean 9394.6118309785
field stddev 6607.9357620921
field sum 1390402.5509848
field sqrsum 19481020065.587
field min 1232.864265615
field max 39232.699970486
attr source  responseTimeSignal
scalar SimNetwork.a.landingQueue 	queueLength:timeavg 	0.0043075501084779
attr source  queueLengthSignal
statistic SimNetwork.a.landingQueue 	queueLength:stats
field count 294
field mean 0.50680272108844
field stddev 0.50757535985422
field sum 149
field sqrsum 151
field min 0
field max 2
attr source  queueLengthSignal
statistic SimNetwork.a.landingQueue 	queueTime:stats
field count 147
field mean 26.795502638068
field stddev 118.39354523048
field sum 3938.938887796
field sqrsum 2152032.4539864
field min 0
field max 1029.0766794268
attr source  queueTimeSignal
scalar SimNetwork.a.takeoffQueue 	queueLength:timeavg 	0.0075974998024775
attr source  queueLengthSignal
statistic SimNetwork.a.takeoffQueue 	queueLength:stats
field count 296
field mean 0.5
field stddev 0.50084674065738
field sum 148
field sqrsum 148
field min 0
field max 1
attr source  queueLengthSignal
statistic SimNetwork.a.takeoffQueue 	queueTime:stats
field count 148
field mean 46.978917923766
field stddev 236.19152092039
field sum 6952.8798527173
field sqrsum 8527244.6514736
field min 0
field max 2485.7457262678
attr source  queueTimeSignal
scalar SimNetwork.a.parkingLot 	parkingOccupancy:timeavg 	0.41267169589899
attr source  parkingOccupancy
statistic SimNetwork.a.parkingLot 	parkingOccupancy:stats
field count 295
field mean 0.93220338983051
field stddev 0.87022568774285
field sum 275
field sqrsum 479
field min 0
field max 4
attr source  parkingOccupancy
