version 2
run QueueMeasurement-104-20170109-14:25:48-6991
attr configname QueueMeasurement
attr datetime 20170109-14:25:48
attr experiment QueueMeasurement
attr inifile queueStudy.ini
attr iterationvars ""
attr iterationvars2 $repetition=104
attr measurement ""
attr network controltower.SimNetwork
attr processid 6991
attr repetition 104
attr replication #104
attr resultdir results
attr runnumber 104
attr seedset 104
param SimNetwork.a.parkingLot.parkingDelay exponential(45min)
param SimNetwork.a.runway.landingTime exponential(5min)
param SimNetwork.a.runway.takeoffTime exponential(5min)
param SimNetwork.a.runway.throughputCheckInterval 100min
param SimNetwork.wg.interArrivalTime exponential(100min)

statistic SimNetwork.wg 	responseTime:stats
field count 168
field mean 8436.532860215
field stddev 5855.7935050863
field sum 1417337.5205161
field sqrsum 17683897600.743
field min 272.15056804984
field max 30806.267012699
attr source  responseTimeSignal
scalar SimNetwork.a.landingQueue 	queueLength:timeavg 	0.0039853270836197
attr source  queueLengthSignal
statistic SimNetwork.a.landingQueue 	queueLength:stats
field count 336
field mean 0.51190476190476
field stddev 0.51239088668064
field sum 172
field sqrsum 176
field min 0
field max 2
attr source  queueLengthSignal
statistic SimNetwork.a.landingQueue 	queueTime:stats
field count 168
field mean 21.40068461635
field stddev 93.775112547023
field sum 3595.3150155468
field sqrsum 1545502.0821897
field min 0
field max 626.59100084187
attr source  queueTimeSignal
scalar SimNetwork.a.takeoffQueue 	queueLength:timeavg 	0.0064168807253005
attr source  queueLengthSignal
statistic SimNetwork.a.takeoffQueue 	queueLength:stats
field count 336
field mean 0.50595238095238
field stddev 0.50663683374558
field sum 170
field sqrsum 172
field min 0
field max 2
attr source  queueLengthSignal
statistic SimNetwork.a.takeoffQueue 	queueTime:stats
field count 168
field mean 34.363270187361
field stddev 157.40969399335
field sum 5773.0293914767
field sqrsum 4336274.7332134
field min 0
field max 1507.1285674989
attr source  queueTimeSignal
scalar SimNetwork.a.parkingLot 	parkingOccupancy:timeavg 	0.45049925262378
attr source  parkingOccupancy
statistic SimNetwork.a.parkingLot 	parkingOccupancy:stats
field count 336
field mean 0.94047619047619
field stddev 0.7857110551074
field sum 316
field sqrsum 504
field min 0
field max 4
attr source  parkingOccupancy
