version 2
run QueueMeasurement-121-20170109-14:25:55-7008
attr configname QueueMeasurement
attr datetime 20170109-14:25:55
attr experiment QueueMeasurement
attr inifile queueStudy.ini
attr iterationvars ""
attr iterationvars2 $repetition=121
attr measurement ""
attr network controltower.SimNetwork
attr processid 7008
attr repetition 121
attr replication #121
attr resultdir results
attr runnumber 121
attr seedset 121
param SimNetwork.a.parkingLot.parkingDelay exponential(45min)
param SimNetwork.a.runway.landingTime exponential(5min)
param SimNetwork.a.runway.takeoffTime exponential(5min)
param SimNetwork.a.runway.throughputCheckInterval 100min
param SimNetwork.wg.interArrivalTime exponential(100min)

vector 2  SimNetwork.a.landingQueue  queueLength:vector  ETV
attr source  queueLengthSignal
vector 1  SimNetwork.a.landingQueue  queueTime:vector  ETV
attr source  queueTimeSignal
vector 7  SimNetwork.a.parkingLot  parkingOccupancy:vector  ETV
attr source  parkingOccupancy
vector 4  SimNetwork.a.takeoffQueue  queueLength:vector  ETV
attr source  queueLengthSignal
vector 3  SimNetwork.a.takeoffQueue  queueTime:vector  ETV
attr source  queueTimeSignal
vector 0  SimNetwork.wg  responseTime:vector  ETV
attr source  responseTimeSignal
vector 5  SimNetwork.a.runway  landedThroughput:vector  ETV
attr source  landedThroughputSignal
vector 6  SimNetwork.a.runway  tookoffThroughput:vector  ETV
attr source  tookoffThroughputSignal
0	371	122669.467771307983	9444.2075884927
0	388	129338.982837501444	7621.7538610648
0	404	130264.073135321772	6158.5780126707
0	421	132826.919435846111	3301.2962147924
0	446	143467.087902530473	4370.7497862818
0	463	148864.668434787903	18094.695396829
0	473	157693.481605006974	16499.846422902
0	500	175588.182949390054	31130.640128147
0	516	179538.31787635324	5775.1982328454
0	525	182081.539052755462	9177.6019005683
0	557	185862.060683549483	2301.71208228
0	566	188014.995371065919	9950.7530592796
0	574	189007.289726475199	5151.4436243571
0	591	195490.590195022722	11422.249195641
0	618	215501.983220331715	8904.9448926381
0	638	220855.137386157081	10344.430261328
0	643	221348.130598618449	26890.026420466
0	671	241430.378764762298	22231.129221839
0	679	241989.656407086503	4178.0601187376
0	696	248458.43053164028	9602.036419624
0	712	249613.730417514946	1530.4137214322
0	740	270779.0804041735	21920.370661281
0	748	272014.548819107862	10542.600004398
0	765	278622.409371087908	11165.507917106
0	800	294425.937627571231	18090.317306013
0	808	295847.867499568885	5670.6572660147
0	824	297586.21076638577	5900.1499211362
0	857	300727.77670859264	3370.3797954278
0	865	301349.603129365343	7228.6582846636
0	876	302321.624112037356	3129.5907743289
0	881	302322.413719290254	3295.525944947
0	898	309283.175393653641	9424.4042362124
0	915	316623.681768702855	9711.5383664928
0	932	321988.068421241088	7430.6319609536
0	950	331185.58090103437	12229.42843445
0	983	338912.700326851085	8970.0633671326
0	995	343876.136848630603	10054.20206451
0	1000	344204.318965520462	8753.2993221693
0	1026	355603.008503812642	4153.8813912579
0	1034	356547.068129100028	18790.776243554
0	1051	360447.040812640791	6705.6120498795
0	1068	368213.117256056379	9802.102194893
0	1084	371454.59038008461	5065.6008684878
0	1101	375266.130880437552	4588.9958520003
0	1119	385923.227606433589	13401.147359434
0	1136	393541.796812148337	8572.4617083582
0	1153	401249.548552664883	11463.471719504
0	1179	408296.307682177933	8805.2394047188
0	1203	412431.303342200978	6284.8882466216
0	1214	413364.485985147382	2211.3716444642
0	1219	413668.335524567063	11640.778768951
0	1257	429197.322917721656	16871.917436661
0	1278	431543.782556642642	4570.8479713381
0	1287	432704.162633170896	4146.8844797572
0	1295	435753.18686987921	7847.5438366542
0	1305	444317.045583634184	15392.360794889
0	1321	448611.354705873813	18273.249971004
0	1338	452901.743078793081	4909.4940165695
0	1355	460535.068944769816	9539.7598474125
0	1397	469209.252928676085	1811.8645390623
0	1405	470578.698711668741	11308.799406301
0	1416	471340.21018080723	2942.7562890967
0	1421	471379.060414051714	3629.0852003781
0	1439	484741.43212460061	16058.338197568
0	1460	510021.607963059695	27755.871789517
0	1479	528060.555325003657	20351.508279635
0	1495	532609.253375300313	8352.1549736638
0	1536	539135.787057433639	9123.7058356406
0	1545	541717.173126571337	5785.6328564405
0	1553	544410.858294018368	8794.9975933961
0	1578	547228.677193039013	1246.1471002061
0	1586	547687.283803454731	11198.756599323
0	1594	550206.160341323363	12528.28218822
0	1619	554847.221051917068	8191.4625763408
0	1627	556397.025288673005	5469.947824255
0	1644	560556.441295547717	6789.8458810908
0	1668	563489.353181287552	5011.9059498448
0	1680	565504.246156770273	2656.5049535915
0	1709	567285.040953184842	576.31021048997
0	1720	567846.282972145331	3471.075131726
0	1725	567873.2460122864	4988.3517320872
0	1741	569492.623712259752	2523.9647737896
0	1759	581692.483977506952	12687.60339458
0	1777	590343.306687817582	10339.570857533
0	1796	608019.721608669566	18105.764616871
0	1814	620141.526448099274	13469.40222228
0	1830	623083.885499658489	4020.3145426466
0	1848	633203.318882229219	10937.233537308
0	1865	636616.322967314958	4874.4387217852
0	1881	640402.581079535541	5824.3823512951
0	1899	652005.542088679508	13313.820744233
0	1933	662645.613723471364	20313.066836242
0	1941	663610.082659589367	2536.4318677753
0	1950	666103.14667243031	6230.0876147461
0	1966	669969.387667096931	8139.9305932806
0	1985	685011.284919866623	15833.931287754
0	2002	691419.612978637618	6811.8129804839
0	2027	699437.910885351824	8987.0149059967
0	2035	699933.338332419097	3823.9815830319
0	2052	703020.01361722851	4649.0307780223
0	2069	710571.577540326945	10511.862298325
0	2094	716720.495340434192	8552.757892434
0	2102	719071.217248506152	4457.9218453057
0	2119	722607.998220790298	6377.8597903062
0	2136	730433.035074175279	10967.485038547
0	2153	737683.061327643959	8779.7783518155
0	2182	749465.324371030922	13577.037496196
0	2196	750405.810971245684	1649.1374444146
0	2204	755885.910511124081	8487.9933888855
0	2229	761003.624641778471	11689.844057332
0	2238	765742.843683544802	6513.4908175673
0	2259	796417.44149598624	35735.538292825
0	2276	799210.107532892371	8394.405204695
0	2296	827553.270198583464	28722.113962901
0	2313	830785.430857965369	9346.2943516315
0	2331	842407.702805110567	13137.385191267
0	2350	860721.769528570268	20609.726579662
0	2370	882138.604146167954	22839.499825697
0	2387	889797.133065612435	8589.9985585568
0	2412	898570.579586620483	10057.577393207
0	2420	899216.325026810568	3324.1056436569
0	2438	907837.152563786182	10103.068742959
0	2454	909736.147294642828	3747.3526087248
0	2479	917392.677718158071	9377.1651747011
0	2488	918441.437895772711	5530.2335304532
0	2514	930652.218812015301	13864.01892455
0	2528	932193.880556966245	3914.2392117919
0	2546	933455.18988471077	1374.9247837728
0	2554	934175.767411162152	4062.9149102351
0	2580	942040.283544363562	836.82376319476
0	2588	942274.52325427438	10151.06764503
0	2604	947022.669886174826	5089.4775611168
0	2622	954792.361937510615	8145.6850630378
0	2638	959167.898619773877	5255.9887427254
0	2656	966535.917036218814	8080.7066208038
0	2682	978757.614467937092	5397.9922209839
0	2690	981060.39612045973	16711.960111162
0	2707	989115.82788667979	15686.810492106
0	2725	997979.918910680538	10191.149092726
0	2749	1000640.662003087042	6298.3882292742
0	2766	1003291.355764065833	3780.2837306707
0	2774	1004039.28988378299	4239.9633801437
0	2793	1022915.347107234005	21636.458803895
0	2818	1028912.480864019787	12547.430630282
1	360	121717.228976436641	0
1	376	124105.495122651076	0
1	393	129525.623221053692	0
1	409	130769.973037958679	0
1	427	139096.338116248629	0
1	435	141193.635182105241	0
1	452	144457.542821242761	0
1	480	172903.937152187149	0
1	488	173763.119643507889	0
1	505	178064.242311786349	0
1	530	183560.348601269489	0
1	541	184516.449029637809	660.60292751968
1	546	185090.405825136741	1022.0648257554
1	580	194458.104178152708	0
1	598	206597.038327693566	0
1	607	210510.707124829189	0
1	624	219199.249542922887	0
1	651	237811.596288348855	0
1	659	238856.394112016312	0
1	685	248083.316696082716	0
1	701	248858.709742892897	0
1	719	261471.948814709647	0
1	728	267456.901453981541	0
1	754	276335.620321557999	0
1	772	290177.210233554169	0
1	780	291686.060845249597	0
1	792	294271.936195651205	150.99135094947
1	813	297357.396913164883	0
1	829	299026.887774343233	0
1	837	299511.041258358515	319.00792065007
1	849	300695.701404411003	836.93024696974
1	887	306912.143402210096	0
1	904	314557.43646028747	0
1	921	318956.152466584763	0
1	938	329942.636959718445	0
1	955	333821.934784120614	0
1	963	335451.019643351173	0
1	972	337756.291885545789	0
1	1006	351449.127112554727	0
1	1014	353741.428762761289	0
1	1039	358411.015061163387	0
1	1057	366388.989511596799	0
1	1073	370677.135028437289	0
1	1090	372522.080246999842	0
1	1108	384969.335103790126	0
1	1124	389786.07683316132	0
1	1142	399491.06827745913	0
1	1159	402027.556755616282	0
1	1167	406146.415095579357	0
1	1184	411153.114340683199	0
1	1192	412325.405481060674	0
1	1227	426972.934585304512	0
1	1235	427905.643033225025	0
1	1243	428557.278153413697	0
1	1259	429197.322917721656	272.6381289765
1	1267	430338.104734869333	0
1	1310	447992.249062223539	0
1	1327	450995.309097357359	0
1	1344	459269.899305367343	0
1	1361	467397.388389613823	0
1	1369	467953.583174263258	203.60796058969
1	1378	468397.453891710502	0
1	1386	468786.684621114091	103.59069408174
1	1428	482265.736173543018	0
1	1448	507709.047045369158	0
1	1467	524257.098401636484	0
1	1484	530012.081221793082	0
1	1501	535615.860700622272	0
1	1509	535931.540270130856	0
1	1517	536488.527204131816	0
1	1525	537677.878153103298	0
1	1558	545982.53009283294	0
1	1567	546655.758475576266	0
1	1599	550927.077464418023	0
1	1608	553766.595414456961	0
1	1633	558477.447231442797	0
1	1649	562847.741203178789	0
1	1657	563053.37331717654	168.47903697736
1	1682	565504.246156770273	1129.0383163509
1	1690	566708.730742694875	0
1	1698	566968.658938470108	0
1	1730	569004.880582926488	0
1	1748	580003.73583028427	0
1	1766	589913.95699179825	0
1	1785	606672.124225818874	0
1	1803	619063.570957011844	0
1	1819	622266.085344921694	0
1	1837	631741.884245529792	0
1	1853	634578.198728240461	0
1	1870	638691.721344446065	0
1	1887	642332.546887229263	0
1	1905	659873.059057684227	0
1	1914	661073.650791814026	0
1	1922	661829.457073816315	0
1	1955	669177.353632112757	0
1	1974	684607.799998153761	0
1	1991	690450.895979355163	0
1	2008	696109.356749387213	0
1	2016	698370.982839206249	0
1	2040	700059.715242001742	0
1	2058	708167.737448000198	0
1	2075	714613.29540320041	0
1	2083	716230.138430484084	0
1	2107	719465.550035628358	0
1	2125	728903.28297582848	0
1	2142	735888.28687483484	0
1	2160	747397.91712223861	0
1	2168	748876.367418511402	119.69389168036
1	2184	749465.324371030922	151.54378658454
1	2210	759229.352865977494	0
1	2218	760681.90320316085	0
1	2247	790815.702328197386	0
1	2265	798831.15623568274	0
1	2284	821439.136506333832	0
1	2302	829270.317613843958	0
1	2320	840112.04294890822	0
1	2339	859299.104320470832	0
1	2358	881207.134507055644	0
1	2376	888513.002193413824	0
1	2393	895892.219383153638	0
1	2401	897734.083820827465	0
1	2426	905988.794685918047	0
1	2443	908015.512543456964	0
1	2460	912911.20436531948	0
1	2468	916788.199887464981	0
1	2494	928279.641345174337	0
1	2503	930112.852500927025	0
1	2530	932193.880556966245	113.61545602829
1	2535	932201.104453013585	77.648843769003
1	2560	941203.459781168798	0
1	2568	941933.19232505807	0
1	2593	946646.676874472828	0
1	2610	953911.90987704843	0
1	2627	958455.210415415026	0
1	2644	964348.436009297752	0
1	2662	973359.622246953182	0
1	2670	973468.924033108646	39.906638534417
1	2696	987788.769817954657	0
1	2713	994342.273773812847	0
1	2730	999511.072033395099	0
1	2738	999799.32650363928	0
1	2754	1001278.888303338572	0
1	2781	1016365.050233738128	0
1	2799	1026668.340601811616	0
1	2807	1027597.082509897119	0
1	2824	1036096.133376033561	0
2	358	121717.228976436641	1
2	360	121717.228976436641	0
2	374	124105.495122651076	1
2	376	124105.495122651076	0
2	391	129525.623221053692	1
2	393	129525.623221053692	0
2	407	130769.973037958679	1
2	409	130769.973037958679	0
2	425	139096.338116248629	1
2	427	139096.338116248629	0
2	433	141193.635182105241	1
2	435	141193.635182105241	0
2	450	144457.542821242761	1
2	452	144457.542821242761	0
2	478	172903.937152187149	1
2	480	172903.937152187149	0
2	486	173763.119643507889	1
2	488	173763.119643507889	0
2	503	178064.242311786349	1
2	505	178064.242311786349	0
2	528	183560.348601269489	1
2	530	183560.348601269489	0
2	533	183855.846102118126	1
2	536	184068.340999381344	2
2	541	184516.449029637809	1
2	546	185090.405825136741	0
2	578	194458.104178152708	1
2	580	194458.104178152708	0
2	596	206597.038327693566	1
2	598	206597.038327693566	0
2	605	210510.707124829189	1
2	607	210510.707124829189	0
2	622	219199.249542922887	1
2	624	219199.249542922887	0
2	649	237811.596288348855	1
2	651	237811.596288348855	0
2	657	238856.394112016312	1
2	659	238856.394112016312	0
2	683	248083.316696082716	1
2	685	248083.316696082716	0
2	699	248858.709742892897	1
2	701	248858.709742892897	0
2	717	261471.948814709647	1
2	719	261471.948814709647	0
2	726	267456.901453981541	1
2	728	267456.901453981541	0
2	752	276335.620321557999	1
2	754	276335.620321557999	0
2	770	290177.210233554169	1
2	772	290177.210233554169	0
2	778	291686.060845249597	1
2	780	291686.060845249597	0
2	787	294120.944844701734	1
2	792	294271.936195651205	0
2	811	297357.396913164883	1
2	813	297357.396913164883	0
2	827	299026.887774343233	1
2	829	299026.887774343233	0
2	832	299192.033337708443	1
2	837	299511.041258358515	0
2	843	299858.771157441266	1
2	849	300695.701404411003	0
2	885	306912.143402210096	1
2	887	306912.143402210096	0
2	902	314557.43646028747	1
2	904	314557.43646028747	0
2	919	318956.152466584763	1
2	921	318956.152466584763	0
2	936	329942.636959718445	1
2	938	329942.636959718445	0
2	953	333821.934784120614	1
2	955	333821.934784120614	0
2	961	335451.019643351173	1
2	963	335451.019643351173	0
2	970	337756.291885545789	1
2	972	337756.291885545789	0
2	1004	351449.127112554727	1
2	1006	351449.127112554727	0
2	1012	353741.428762761289	1
2	1014	353741.428762761289	0
2	1037	358411.015061163387	1
2	1039	358411.015061163387	0
2	1055	366388.989511596799	1
2	1057	366388.989511596799	0
2	1071	370677.135028437289	1
2	1073	370677.135028437289	0
2	1088	372522.080246999842	1
2	1090	372522.080246999842	0
2	1106	384969.335103790126	1
2	1108	384969.335103790126	0
2	1122	389786.07683316132	1
2	1124	389786.07683316132	0
2	1140	399491.06827745913	1
2	1142	399491.06827745913	0
2	1157	402027.556755616282	1
2	1159	402027.556755616282	0
2	1165	406146.415095579357	1
2	1167	406146.415095579357	0
2	1182	411153.114340683199	1
2	1184	411153.114340683199	0
2	1190	412325.405481060674	1
2	1192	412325.405481060674	0
2	1225	426972.934585304512	1
2	1227	426972.934585304512	0
2	1233	427905.643033225025	1
2	1235	427905.643033225025	0
2	1241	428557.278153413697	1
2	1243	428557.278153413697	0
2	1254	428924.684788745152	1
2	1259	429197.322917721656	0
2	1265	430338.104734869333	1
2	1267	430338.104734869333	0
2	1308	447992.249062223539	1
2	1310	447992.249062223539	0
2	1325	450995.309097357359	1
2	1327	450995.309097357359	0
2	1342	459269.899305367343	1
2	1344	459269.899305367343	0
2	1359	467397.388389613823	1
2	1361	467397.388389613823	0
2	1364	467749.975213673566	1
2	1369	467953.583174263258	0
2	1376	468397.453891710502	1
2	1378	468397.453891710502	0
2	1381	468683.093927032346	1
2	1386	468786.684621114091	0
2	1426	482265.736173543018	1
2	1428	482265.736173543018	0
2	1446	507709.047045369158	1
2	1448	507709.047045369158	0
2	1465	524257.098401636484	1
2	1467	524257.098401636484	0
2	1482	530012.081221793082	1
2	1484	530012.081221793082	0
2	1499	535615.860700622272	1
2	1501	535615.860700622272	0
2	1507	535931.540270130856	1
2	1509	535931.540270130856	0
2	1515	536488.527204131816	1
2	1517	536488.527204131816	0
2	1523	537677.878153103298	1
2	1525	537677.878153103298	0
2	1556	545982.53009283294	1
2	1558	545982.53009283294	0
2	1565	546655.758475576266	1
2	1567	546655.758475576266	0
2	1597	550927.077464418023	1
2	1599	550927.077464418023	0
2	1606	553766.595414456961	1
2	1608	553766.595414456961	0
2	1631	558477.447231442797	1
2	1633	558477.447231442797	0
2	1647	562847.741203178789	1
2	1649	562847.741203178789	0
2	1652	562884.894280199185	1
2	1657	563053.37331717654	0
2	1677	564375.207840419361	1
2	1682	565504.246156770273	0
2	1688	566708.730742694875	1
2	1690	566708.730742694875	0
2	1696	566968.658938470108	1
2	1698	566968.658938470108	0
2	1728	569004.880582926488	1
2	1730	569004.880582926488	0
2	1746	580003.73583028427	1
2	1748	580003.73583028427	0
2	1764	589913.95699179825	1
2	1766	589913.95699179825	0
2	1783	606672.124225818874	1
2	1785	606672.124225818874	0
2	1801	619063.570957011844	1
2	1803	619063.570957011844	0
2	1817	622266.085344921694	1
2	1819	622266.085344921694	0
2	1835	631741.884245529792	1
2	1837	631741.884245529792	0
2	1851	634578.198728240461	1
2	1853	634578.198728240461	0
2	1868	638691.721344446065	1
2	1870	638691.721344446065	0
2	1885	642332.546887229263	1
2	1887	642332.546887229263	0
2	1903	659873.059057684227	1
2	1905	659873.059057684227	0
2	1912	661073.650791814026	1
2	1914	661073.650791814026	0
2	1920	661829.457073816315	1
2	1922	661829.457073816315	0
2	1953	669177.353632112757	1
2	1955	669177.353632112757	0
2	1972	684607.799998153761	1
2	1974	684607.799998153761	0
2	1989	690450.895979355163	1
2	1991	690450.895979355163	0
2	2006	696109.356749387213	1
2	2008	696109.356749387213	0
2	2014	698370.982839206249	1
2	2016	698370.982839206249	0
2	2038	700059.715242001742	1
2	2040	700059.715242001742	0
2	2056	708167.737448000198	1
2	2058	708167.737448000198	0
2	2073	714613.29540320041	1
2	2075	714613.29540320041	0
2	2081	716230.138430484084	1
2	2083	716230.138430484084	0
2	2105	719465.550035628358	1
2	2107	719465.550035628358	0
2	2123	728903.28297582848	1
2	2125	728903.28297582848	0
2	2140	735888.28687483484	1
2	2142	735888.28687483484	0
2	2158	747397.91712223861	1
2	2160	747397.91712223861	0
2	2163	748756.673526831042	1
2	2168	748876.367418511402	0
2	2179	749313.780584446386	1
2	2184	749465.324371030922	0
2	2208	759229.352865977494	1
2	2210	759229.352865977494	0
2	2216	760681.90320316085	1
2	2218	760681.90320316085	0
2	2245	790815.702328197386	1
2	2247	790815.702328197386	0
2	2263	798831.15623568274	1
2	2265	798831.15623568274	0
2	2282	821439.136506333832	1
2	2284	821439.136506333832	0
2	2300	829270.317613843958	1
2	2302	829270.317613843958	0
2	2318	840112.04294890822	1
2	2320	840112.04294890822	0
2	2337	859299.104320470832	1
2	2339	859299.104320470832	0
2	2356	881207.134507055644	1
2	2358	881207.134507055644	0
2	2374	888513.002193413824	1
2	2376	888513.002193413824	0
2	2391	895892.219383153638	1
2	2393	895892.219383153638	0
2	2399	897734.083820827465	1
2	2401	897734.083820827465	0
2	2424	905988.794685918047	1
2	2426	905988.794685918047	0
2	2441	908015.512543456964	1
2	2443	908015.512543456964	0
2	2458	912911.20436531948	1
2	2460	912911.20436531948	0
2	2466	916788.199887464981	1
2	2468	916788.199887464981	0
2	2492	928279.641345174337	1
2	2494	928279.641345174337	0
2	2501	930112.852500927025	1
2	2503	930112.852500927025	0
2	2522	932080.265100937953	1
2	2525	932123.455609244582	2
2	2530	932193.880556966245	1
2	2535	932201.104453013585	0
2	2558	941203.459781168798	1
2	2560	941203.459781168798	0
2	2566	941933.19232505807	1
2	2568	941933.19232505807	0
2	2591	946646.676874472828	1
2	2593	946646.676874472828	0
2	2608	953911.90987704843	1
2	2610	953911.90987704843	0
2	2625	958455.210415415026	1
2	2627	958455.210415415026	0
2	2642	964348.436009297752	1
2	2644	964348.436009297752	0
2	2660	973359.622246953182	1
2	2662	973359.622246953182	0
2	2665	973429.017394574229	1
2	2670	973468.924033108646	0
2	2694	987788.769817954657	1
2	2696	987788.769817954657	0
2	2711	994342.273773812847	1
2	2713	994342.273773812847	0
2	2728	999511.072033395099	1
2	2730	999511.072033395099	0
2	2736	999799.32650363928	1
2	2738	999799.32650363928	0
2	2752	1001278.888303338572	1
2	2754	1001278.888303338572	0
2	2779	1016365.050233738128	1
2	2781	1016365.050233738128	0
2	2797	1026668.340601811616	1
2	2799	1026668.340601811616	0
2	2805	1027597.082509897119	1
2	2807	1027597.082509897119	0
2	2822	1036096.133376033561	1
2	2824	1036096.133376033561	0
3	368	122646.605178525937	0
3	385	129333.588064378094	0
3	401	130058.479825886385	0
3	418	132807.592157593273	0
3	443	143111.467448654043	0
3	460	147602.660533445378	0
3	470	157436.605608471174	0
3	497	175499.709005076545	0
3	513	179124.090986302498	0
3	522	181569.341201910416	0
3	554	185770.02586957822	0
3	563	187426.157184082108	0
3	571	188526.653590338502	0
3	588	195080.586338134901	0
3	615	215075.380523744879	0
3	632	220180.638558764179	0
3	640	220855.137386157081	632.66392688731
3	668	241033.357966503687	0
3	676	241972.116733836601	0
3	693	248321.241314144302	0
3	709	249242.01168893846	0
3	737	270546.644181671486	0
3	745	271536.473065129732	0
3	762	278603.415345934149	0
3	797	294331.017057080338	2512.1932440343
3	805	294511.128590332352	0
3	821	297563.136188314286	30.343522812714
3	854	300708.398722675229	967.89609135903
3	862	301142.218608494288	0
3	870	301923.509035445776	0
3	878	302321.624112037356	351.07858248609
3	895	309119.257495807907	0
3	912	316244.847755892201	0
3	929	321977.032710813863	0
3	947	330712.938059734493	0
3	980	338562.573821609408	0
3	989	343715.309943667648	0
3	997	343876.136848630603	73.999569335689
3	1023	355460.331034453812	0
3	1031	356218.637530200788	0
3	1048	360152.449847713048	0
3	1065	367693.690496313109	0
3	1081	371182.175845535156	0
3	1098	375117.754762028575	0
3	1116	385548.390422562424	0
3	1133	392918.750481147774	0
3	1150	401180.994367786375	0
3	1175	407985.086149569703	1547.6021008774
3	1200	412419.867445323374	22.146016023313
3	1208	412855.784706514729	0
3	1216	413364.485985147382	413.07467026512
3	1251	428820.37487551775	0
3	1275	430813.749054504936	0
3	1284	432455.273728790481	0
3	1292	435625.762670239126	0
3	1302	444298.205822958718	0
3	1318	448319.814725349868	0
3	1335	452771.918645107804	0
3	1352	460387.20732317451	0
3	1394	469118.119216248243	0
3	1402	470499.187178458455	0
3	1410	470918.039668273743	0
3	1418	471340.21018080723	167.66429478399
3	1436	484416.414971717366	0
3	1456	509637.597815886774	0
3	1475	527429.239081431513	0
3	1492	532502.241179111847	0
3	1533	538510.203961742803	0
3	1542	541533.075157441591	0
3	1550	544168.554664704802	0
3	1575	547142.707386437292	0
3	1583	547645.262022428377	0
3	1591	549944.990237063231	0
3	1616	554438.314297665075	0
3	1624	555698.306532282488	0
3	1641	559862.990741024626	0
3	1665	563242.073723848194	136.84065369928
3	1673	563968.879400932075	0
3	1706	567261.722864137091	0
3	1714	567427.84822952493	0
3	1722	567846.282972145331	309.48173664067
3	1738	569406.486059897795	0
3	1756	580734.073298075192	0
3	1774	590123.699867431107	0
3	1793	607986.996296171874	0
3	1811	619796.046100613713	0
3	1827	623032.918310216883	0
3	1845	633194.542445749929	0
3	1862	636400.027849518136	0
3	1878	640223.390997686396	0
3	1896	651154.600430983211	0
3	1930	662280.94876949484	180.88200061282
3	1938	663499.591577196402	0
3	1946	664909.602037854229	0
3	1963	669864.493463061051	0
3	1982	684971.301909600679	0
3	1999	691278.752703294765	0
3	2024	699376.253872277696	0
3	2032	699676.625993703171	0
3	2049	702815.242623629192	0
3	2066	710549.435740999583	0
3	2091	716394.855045309554	0
3	2099	718823.600038385139	0
3	2116	722184.106584844427	0
3	2133	730427.507976250174	0
3	2150	736863.573545067176	0
3	2176	749271.00769981708	52.178145220452
3	2193	750045.289559343975	0
3	2201	755719.846398788758	0
3	2226	760950.329264445457	0
3	2235	765186.203760884918	0
3	2256	796214.260592660061	0
3	2273	799150.762550850522	0
3	2293	827356.907969159811	0
3	2310	830591.556289724329	0
3	2328	842104.240889508745	0
3	2347	860643.143292121038	0
3	2366	881878.522219604979	0
3	2384	889695.117559915864	0
3	2409	898554.946567348581	0
3	2417	898573.754794543484	0
3	2435	907182.49968530323	0
3	2451	909727.979608055265	0
3	2476	917311.263826277255	0
3	2484	917809.698082222715	0
3	2511	930557.419195597681	420.37902618406
3	2519	931854.491130878384	0
3	2543	932710.87702952069	0
3	2551	933973.989957307887	0
3	2577	942027.702265054464	0
3	2585	942048.075957095358	0
3	2601	946841.428331956749	0
3	2619	954707.782555923201	0
3	2635	959049.384685223238	0
3	2653	966415.957678314061	0
3	2679	978720.513473862913	0
3	2687	980983.990201006582	0
3	2704	989111.326814987251	0
3	2722	997552.237515171065	0
3	2746	1000381.40159939148	126.83103543844
3	2763	1003227.245556429052	0
3	2771	1003860.792316870714	0
3	2790	1022516.101285322714	0
3	2815	1028595.231969355166	0
4	366	122646.605178525937	1
4	368	122646.605178525937	0
4	383	129333.588064378094	1
4	385	129333.588064378094	0
4	399	130058.479825886385	1
4	401	130058.479825886385	0
4	416	132807.592157593273	1
4	418	132807.592157593273	0
4	441	143111.467448654043	1
4	443	143111.467448654043	0
4	458	147602.660533445378	1
4	460	147602.660533445378	0
4	468	157436.605608471174	1
4	470	157436.605608471174	0
4	495	175499.709005076545	1
4	497	175499.709005076545	0
4	511	179124.090986302498	1
4	513	179124.090986302498	0
4	520	181569.341201910416	1
4	522	181569.341201910416	0
4	552	185770.02586957822	1
4	554	185770.02586957822	0
4	561	187426.157184082108	1
4	563	187426.157184082108	0
4	569	188526.653590338502	1
4	571	188526.653590338502	0
4	586	195080.586338134901	1
4	588	195080.586338134901	0
4	613	215075.380523744879	1
4	615	215075.380523744879	0
4	630	220180.638558764179	1
4	632	220180.638558764179	0
4	635	220222.473459269775	1
4	640	220855.137386157081	0
4	666	241033.357966503687	1
4	668	241033.357966503687	0
4	674	241972.116733836601	1
4	676	241972.116733836601	0
4	691	248321.241314144302	1
4	693	248321.241314144302	0
4	707	249242.01168893846	1
4	709	249242.01168893846	0
4	735	270546.644181671486	1
4	737	270546.644181671486	0
4	743	271536.473065129732	1
4	745	271536.473065129732	0
4	760	278603.415345934149	1
4	762	278603.415345934149	0
4	783	291818.823813046043	1
4	797	294331.017057080338	0
4	803	294511.128590332352	1
4	805	294511.128590332352	0
4	816	297532.792665501572	1
4	821	297563.136188314286	0
4	840	299740.502631316197	1
4	854	300708.398722675229	0
4	860	301142.218608494288	1
4	862	301142.218608494288	0
4	868	301923.509035445776	1
4	870	301923.509035445776	0
4	873	301970.545529551266	1
4	878	302321.624112037356	0
4	893	309119.257495807907	1
4	895	309119.257495807907	0
4	910	316244.847755892201	1
4	912	316244.847755892201	0
4	927	321977.032710813863	1
4	929	321977.032710813863	0
4	945	330712.938059734493	1
4	947	330712.938059734493	0
4	978	338562.573821609408	1
4	980	338562.573821609408	0
4	987	343715.309943667648	1
4	989	343715.309943667648	0
4	992	343802.137279294914	1
4	997	343876.136848630603	0
4	1021	355460.331034453812	1
4	1023	355460.331034453812	0
4	1029	356218.637530200788	1
4	1031	356218.637530200788	0
4	1046	360152.449847713048	1
4	1048	360152.449847713048	0
4	1063	367693.690496313109	1
4	1065	367693.690496313109	0
4	1079	371182.175845535156	1
4	1081	371182.175845535156	0
4	1096	375117.754762028575	1
4	1098	375117.754762028575	0
4	1114	385548.390422562424	1
4	1116	385548.390422562424	0
4	1131	392918.750481147774	1
4	1133	392918.750481147774	0
4	1148	401180.994367786375	1
4	1150	401180.994367786375	0
4	1170	406437.48404869232	1
4	1175	407985.086149569703	0
4	1195	412397.721429300061	1
4	1200	412419.867445323374	0
4	1206	412855.784706514729	1
4	1208	412855.784706514729	0
4	1211	412951.411314882265	1
4	1216	413364.485985147382	0
4	1249	428820.37487551775	1
4	1251	428820.37487551775	0
4	1273	430813.749054504936	1
4	1275	430813.749054504936	0
4	1282	432455.273728790481	1
4	1284	432455.273728790481	0
4	1290	435625.762670239126	1
4	1292	435625.762670239126	0
4	1300	444298.205822958718	1
4	1302	444298.205822958718	0
4	1316	448319.814725349868	1
4	1318	448319.814725349868	0
4	1333	452771.918645107804	1
4	1335	452771.918645107804	0
4	1350	460387.20732317451	1
4	1352	460387.20732317451	0
4	1392	469118.119216248243	1
4	1394	469118.119216248243	0
4	1400	470499.187178458455	1
4	1402	470499.187178458455	0
4	1408	470918.039668273743	1
4	1410	470918.039668273743	0
4	1413	471172.545886023238	1
4	1418	471340.21018080723	0
4	1434	484416.414971717366	1
4	1436	484416.414971717366	0
4	1454	509637.597815886774	1
4	1456	509637.597815886774	0
4	1473	527429.239081431513	1
4	1475	527429.239081431513	0
4	1490	532502.241179111847	1
4	1492	532502.241179111847	0
4	1531	538510.203961742803	1
4	1533	538510.203961742803	0
4	1540	541533.075157441591	1
4	1542	541533.075157441591	0
4	1548	544168.554664704802	1
4	1550	544168.554664704802	0
4	1573	547142.707386437292	1
4	1575	547142.707386437292	0
4	1581	547645.262022428377	1
4	1583	547645.262022428377	0
4	1589	549944.990237063231	1
4	1591	549944.990237063231	0
4	1614	554438.314297665075	1
4	1616	554438.314297665075	0
4	1622	555698.306532282488	1
4	1624	555698.306532282488	0
4	1639	559862.990741024626	1
4	1641	559862.990741024626	0
4	1660	563105.233070148919	1
4	1665	563242.073723848194	0
4	1671	563968.879400932075	1
4	1673	563968.879400932075	0
4	1704	567261.722864137091	1
4	1706	567261.722864137091	0
4	1712	567427.84822952493	1
4	1714	567427.84822952493	0
4	1717	567536.801235504666	1
4	1722	567846.282972145331	0
4	1736	569406.486059897795	1
4	1738	569406.486059897795	0
4	1754	580734.073298075192	1
4	1756	580734.073298075192	0
4	1772	590123.699867431107	1
4	1774	590123.699867431107	0
4	1791	607986.996296171874	1
4	1793	607986.996296171874	0
4	1809	619796.046100613713	1
4	1811	619796.046100613713	0
4	1825	623032.918310216883	1
4	1827	623032.918310216883	0
4	1843	633194.542445749929	1
4	1845	633194.542445749929	0
4	1860	636400.027849518136	1
4	1862	636400.027849518136	0
4	1876	640223.390997686396	1
4	1878	640223.390997686396	0
4	1894	651154.600430983211	1
4	1896	651154.600430983211	0
4	1925	662100.066768882016	1
4	1930	662280.94876949484	0
4	1936	663499.591577196402	1
4	1938	663499.591577196402	0
4	1944	664909.602037854229	1
4	1946	664909.602037854229	0
4	1961	669864.493463061051	1
4	1963	669864.493463061051	0
4	1980	684971.301909600679	1
4	1982	684971.301909600679	0
4	1997	691278.752703294765	1
4	1999	691278.752703294765	0
4	2022	699376.253872277696	1
4	2024	699376.253872277696	0
4	2030	699676.625993703171	1
4	2032	699676.625993703171	0
4	2047	702815.242623629192	1
4	2049	702815.242623629192	0
4	2064	710549.435740999583	1
4	2066	710549.435740999583	0
4	2089	716394.855045309554	1
4	2091	716394.855045309554	0
4	2097	718823.600038385139	1
4	2099	718823.600038385139	0
4	2114	722184.106584844427	1
4	2116	722184.106584844427	0
4	2131	730427.507976250174	1
4	2133	730427.507976250174	0
4	2148	736863.573545067176	1
4	2150	736863.573545067176	0
4	2171	749218.829554596628	1
4	2176	749271.00769981708	0
4	2191	750045.289559343975	1
4	2193	750045.289559343975	0
4	2199	755719.846398788758	1
4	2201	755719.846398788758	0
4	2224	760950.329264445457	1
4	2226	760950.329264445457	0
4	2233	765186.203760884918	1
4	2235	765186.203760884918	0
4	2254	796214.260592660061	1
4	2256	796214.260592660061	0
4	2271	799150.762550850522	1
4	2273	799150.762550850522	0
4	2291	827356.907969159811	1
4	2293	827356.907969159811	0
4	2308	830591.556289724329	1
4	2310	830591.556289724329	0
4	2326	842104.240889508745	1
4	2328	842104.240889508745	0
4	2345	860643.143292121038	1
4	2347	860643.143292121038	0
4	2364	881878.522219604979	1
4	2366	881878.522219604979	0
4	2382	889695.117559915864	1
4	2384	889695.117559915864	0
4	2407	898554.946567348581	1
4	2409	898554.946567348581	0
4	2415	898573.754794543484	1
4	2417	898573.754794543484	0
4	2433	907182.49968530323	1
4	2435	907182.49968530323	0
4	2449	909727.979608055265	1
4	2451	909727.979608055265	0
4	2474	917311.263826277255	1
4	2476	917311.263826277255	0
4	2482	917809.698082222715	1
4	2484	917809.698082222715	0
4	2506	930137.040169413624	1
4	2511	930557.419195597681	0
4	2517	931854.491130878384	1
4	2519	931854.491130878384	0
4	2541	932710.87702952069	1
4	2543	932710.87702952069	0
4	2549	933973.989957307887	1
4	2551	933973.989957307887	0
4	2575	942027.702265054464	1
4	2577	942027.702265054464	0
4	2583	942048.075957095358	1
4	2585	942048.075957095358	0
4	2599	946841.428331956749	1
4	2601	946841.428331956749	0
4	2617	954707.782555923201	1
4	2619	954707.782555923201	0
4	2633	959049.384685223238	1
4	2635	959049.384685223238	0
4	2651	966415.957678314061	1
4	2653	966415.957678314061	0
4	2677	978720.513473862913	1
4	2679	978720.513473862913	0
4	2685	980983.990201006582	1
4	2687	980983.990201006582	0
4	2702	989111.326814987251	1
4	2704	989111.326814987251	0
4	2720	997552.237515171065	1
4	2722	997552.237515171065	0
4	2741	1000254.57056395304	1
4	2746	1000381.40159939148	0
4	2761	1003227.245556429052	1
4	2763	1003227.245556429052	0
4	2769	1003860.792316870714	1
4	2771	1003860.792316870714	0
4	2788	1022516.101285322714	1
4	2790	1022516.101285322714	0
4	2813	1028595.231969355166	1
4	2815	1028595.231969355166	0
5	381	126000	2
5	414	132000	2
5	423	138000	0
5	448	144000	2
5	465	150000	1
5	466	156000	0
5	475	162000	0
5	476	168000	0
5	490	174000	1
5	518	180000	2
5	559	186000	3
5	576	192000	0
5	593	198000	1
5	594	204000	0
5	603	210000	1
5	620	216000	1
5	645	222000	1
5	646	228000	0
5	647	234000	0
5	664	240000	2
5	681	246000	0
5	714	252000	2
5	715	258000	0
5	724	264000	1
5	733	270000	1
5	750	276000	0
5	767	282000	1
5	768	288000	0
5	785	294000	1
5	845	300000	4
5	883	306000	2
5	900	312000	1
5	917	318000	1
5	934	324000	1
5	943	330000	1
5	968	336000	2
5	985	342000	1
5	1002	348000	0
5	1016	354000	1
5	1044	360000	2
5	1053	366000	0
5	1086	372000	2
5	1103	378000	1
5	1104	384000	0
5	1126	390000	1
5	1138	396000	1
5	1155	402000	1
5	1177	408000	2
5	1221	414000	2
5	1222	420000	0
5	1223	426000	0
5	1280	432000	5
5	1297	438000	0
5	1298	444000	0
5	1323	450000	1
5	1340	456000	1
5	1357	462000	1
5	1371	468000	1
5	1423	474000	3
5	1424	480000	0
5	1441	486000	1
5	1442	492000	0
5	1443	498000	0
5	1444	504000	0
5	1458	510000	1
5	1462	516000	0
5	1463	522000	0
5	1477	528000	1
5	1497	534000	1
5	1538	540000	4
5	1560	546000	0
5	1604	552000	3
5	1629	558000	1
5	1675	564000	3
5	1743	570000	4
5	1744	576000	0
5	1761	582000	1
5	1762	588000	0
5	1779	594000	1
5	1780	600000	0
5	1781	606000	0
5	1798	612000	1
5	1799	618000	0
5	1832	624000	2
5	1833	630000	0
5	1858	636000	2
5	1883	642000	1
5	1892	648000	1
5	1901	654000	0
5	1907	660000	0
5	1948	666000	3
5	1968	672000	1
5	1969	678000	0
5	1970	684000	0
5	1987	690000	1
5	2004	696000	1
5	2045	702000	3
5	2054	708000	0
5	2071	714000	1
5	2112	720000	3
5	2121	726000	0
5	2138	732000	1
5	2155	738000	1
5	2156	744000	0
5	2189	750000	3
5	2206	756000	0
5	2231	762000	2
5	2240	768000	0
5	2241	774000	0
5	2242	780000	0
5	2243	786000	0
5	2252	792000	1
5	2261	798000	0
5	2278	804000	1
5	2279	810000	0
5	2280	816000	0
5	2289	822000	1
5	2298	828000	0
5	2315	834000	1
5	2316	840000	0
5	2333	846000	1
5	2334	852000	0
5	2335	858000	0
5	2352	864000	1
5	2353	870000	0
5	2354	876000	0
5	2368	882000	1
5	2372	888000	0
5	2389	894000	1
5	2422	900000	2
5	2428	906000	0
5	2456	912000	2
5	2486	918000	2
5	2490	924000	0
5	2499	930000	1
5	2556	936000	3
5	2573	942000	2
5	2606	948000	1
5	2612	954000	0
5	2640	960000	2
5	2646	966000	0
5	2658	972000	1
5	2675	978000	2
5	2692	984000	0
5	2709	990000	1
5	2718	996000	1
5	2756	1002000	2
5	2776	1008000	1
5	2777	1014000	0
5	2786	1020000	1
5	2795	1026000	0
5	2820	1032000	2
6	381	126000	1
6	414	132000	2
6	423	138000	1
6	448	144000	1
6	465	150000	1
6	466	156000	0
6	475	162000	1
6	476	168000	0
6	490	174000	0
6	518	180000	2
6	559	186000	2
6	576	192000	2
6	593	198000	1
6	594	204000	0
6	603	210000	0
6	620	216000	1
6	645	222000	2
6	646	228000	0
6	647	234000	0
6	664	240000	0
6	681	246000	2
6	714	252000	2
6	715	258000	0
6	724	264000	0
6	733	270000	0
6	750	276000	2
6	767	282000	1
6	768	288000	0
6	785	294000	0
6	845	300000	3
6	883	306000	4
6	900	312000	1
6	917	318000	1
6	934	324000	1
6	943	330000	0
6	968	336000	1
6	985	342000	1
6	1002	348000	2
6	1016	354000	0
6	1044	360000	2
6	1053	366000	1
6	1086	372000	2
6	1103	378000	1
6	1104	384000	0
6	1126	390000	1
6	1138	396000	1
6	1155	402000	1
6	1177	408000	0
6	1221	414000	4
6	1222	420000	0
6	1223	426000	0
6	1280	432000	2
6	1297	438000	2
6	1298	444000	0
6	1323	450000	2
6	1340	456000	1
6	1357	462000	1
6	1371	468000	0
6	1423	474000	4
6	1424	480000	0
6	1441	486000	1
6	1442	492000	0
6	1443	498000	0
6	1444	504000	0
6	1458	510000	0
6	1462	516000	1
6	1463	522000	0
6	1477	528000	0
6	1497	534000	2
6	1538	540000	1
6	1560	546000	2
6	1604	552000	3
6	1629	558000	2
6	1675	564000	2
6	1743	570000	5
6	1744	576000	0
6	1761	582000	1
6	1762	588000	0
6	1779	594000	1
6	1780	600000	0
6	1781	606000	0
6	1798	612000	1
6	1799	618000	0
6	1832	624000	2
6	1833	630000	0
6	1858	636000	1
6	1883	642000	2
6	1892	648000	0
6	1901	654000	1
6	1907	660000	0
6	1948	666000	2
6	1968	672000	2
6	1969	678000	0
6	1970	684000	0
6	1987	690000	1
6	2004	696000	1
6	2045	702000	2
6	2054	708000	1
6	2071	714000	1
6	2112	720000	2
6	2121	726000	1
6	2138	732000	1
6	2155	738000	1
6	2156	744000	0
6	2189	750000	1
6	2206	756000	2
6	2231	762000	1
6	2240	768000	1
6	2241	774000	0
6	2242	780000	0
6	2243	786000	0
6	2252	792000	0
6	2261	798000	1
6	2278	804000	1
6	2279	810000	0
6	2280	816000	0
6	2289	822000	0
6	2298	828000	1
6	2315	834000	1
6	2316	840000	0
6	2333	846000	1
6	2334	852000	0
6	2335	858000	0
6	2352	864000	1
6	2353	870000	0
6	2354	876000	0
6	2368	882000	0
6	2372	888000	1
6	2389	894000	1
6	2422	900000	2
6	2428	906000	0
6	2456	912000	2
6	2486	918000	1
6	2490	924000	1
6	2499	930000	0
6	2556	936000	4
6	2573	942000	0
6	2606	948000	3
6	2612	954000	0
6	2640	960000	2
6	2646	966000	0
6	2658	972000	1
6	2675	978000	0
6	2692	984000	2
6	2709	990000	1
6	2718	996000	0
6	2756	1002000	2
6	2776	1008000	2
6	2777	1014000	0
6	2786	1020000	0
6	2795	1026000	1
6	2820	1032000	1
7	363	122037.137512869722	1
7	365	122646.605178525937	0
7	379	124128.13254608559	1
7	382	129333.588064378094	0
7	396	129609.936386398227	1
7	398	130058.479825886385	0
7	412	130917.266871635989	1
7	415	132807.592157593273	0
7	430	139703.327814661144	1
7	438	141401.311089489601	2
7	440	143111.467448654043	1
7	455	144569.477081150874	2
7	457	147602.660533445378	1
7	467	157436.605608471174	0
7	483	173504.220145226569	1
7	492	174058.001196525322	2
7	494	175499.709005076545	1
7	508	178439.123563825268	2
7	510	179124.090986302498	1
7	519	181569.341201910416	0
7	539	184516.449029637809	1
7	544	185090.405825136741	2
7	549	185185.83650951861	3
7	551	185770.02586957822	2
7	560	187426.157184082108	1
7	568	188526.653590338502	0
7	583	194464.08386371715	1
7	585	195080.586338134901	0
7	601	206981.847890723519	1
7	610	210743.988493797116	2
7	612	215075.380523744879	1
7	627	219272.442257004099	2
7	629	220180.638558764179	1
7	634	220222.473459269775	0
7	654	238016.153745911564	1
7	662	238949.954205156947	2
7	665	241033.357966503687	1
7	673	241972.116733836601	0
7	688	248279.757996944953	1
7	690	248321.241314144302	0
7	704	248995.008699257847	1
7	706	249242.01168893846	0
7	722	262570.490818852676	1
7	731	267524.738317963089	2
7	734	270546.644181671486	1
7	742	271536.473065129732	0
7	757	276430.532642811921	1
7	759	278603.415345934149	0
7	775	291183.184635172458	1
7	782	291818.823813046043	0
7	790	294271.936195651205	1
7	795	294331.017057080338	2
7	802	294511.128590332352	1
7	815	297532.792665501572	0
7	819	297563.136188314286	1
7	835	299511.041258358515	2
7	839	299740.502631316197	1
7	847	300695.701404411003	2
7	852	300708.398722675229	3
7	859	301142.218608494288	2
7	867	301923.509035445776	1
7	872	301970.545529551266	0
7	890	307125.872539932352	1
7	892	309119.257495807907	0
7	907	314900.273911539076	1
7	909	316244.847755892201	0
7	924	319242.686793398795	1
7	926	321977.032710813863	0
7	941	329973.396017893799	1
7	944	330712.938059734493	0
7	958	333893.162513674614	1
7	966	335690.082312921398	2
7	975	338327.847641411228	3
7	977	338562.573821609408	2
7	986	343715.309943667648	1
7	991	343802.137279294914	0
7	1009	351761.983285720696	1
7	1018	354612.011595360792	2
7	1020	355460.331034453812	1
7	1028	356218.637530200788	0
7	1042	358792.377105922587	1
7	1045	360152.449847713048	0
7	1060	366483.34789161274	1
7	1062	367693.690496313109	0
7	1076	370890.152562612995	1
7	1078	371182.175845535156	0
7	1093	372574.364241385731	1
7	1095	375117.754762028575	0
7	1111	385004.267226356999	1
7	1113	385548.390422562424	0
7	1128	390794.043486593555	1
7	1130	392918.750481147774	0
7	1145	399613.765497873432	1
7	1147	401180.994367786375	0
7	1162	402244.267323197659	1
7	1169	406437.48404869232	0
7	1173	407985.086149569703	1
7	1187	411394.564022599799	2
7	1194	412397.721429300061	1
7	1198	412419.867445323374	2
7	1205	412855.784706514729	1
7	1210	412951.411314882265	0
7	1230	426988.778657310051	1
7	1238	427966.200642278725	2
7	1246	428661.648129319048	3
7	1248	428820.37487551775	2
7	1262	429433.556890548114	3
7	1270	430709.576560827578	4
7	1272	430813.749054504936	3
7	1281	432455.273728790481	2
7	1289	435625.762670239126	1
7	1299	444298.205822958718	0
7	1313	448215.668709920732	1
7	1315	448319.814725349868	0
7	1330	451038.675927393071	1
7	1332	452771.918645107804	0
7	1347	460092.695424868834	1
7	1349	460387.20732317451	0
7	1367	467953.583174263258	1
7	1373	468123.922935267166	2
7	1384	468786.684621114091	3
7	1389	468799.144974410946	4
7	1391	469118.119216248243	3
7	1399	470499.187178458455	2
7	1407	470918.039668273743	1
7	1412	471172.545886023238	0
7	1431	482383.018555917689	1
7	1433	484416.414971717366	0
7	1451	507726.951980684784	1
7	1453	509637.597815886774	0
7	1470	524486.518270438043	1
7	1472	527429.239081431513	0
7	1487	530220.279759571775	1
7	1489	532502.241179111847	0
7	1504	535813.410126380181	1
7	1512	536085.733948050694	2
7	1520	536566.916966018919	3
7	1528	538327.142079707165	4
7	1530	538510.203961742803	3
7	1539	541533.075157441591	2
7	1547	544168.554664704802	1
7	1562	546285.469312616811	2
7	1570	546672.974509623672	3
7	1572	547142.707386437292	2
7	1580	547645.262022428377	1
7	1588	549944.990237063231	0
7	1602	551429.691083484385	1
7	1611	553769.371775453976	2
7	1613	554438.314297665075	1
7	1621	555698.306532282488	0
7	1636	559086.521082558348	1
7	1638	559862.990741024626	0
7	1655	563053.37331717654	1
7	1659	563105.233070148919	0
7	1663	563242.073723848194	1
7	1670	563968.879400932075	0
7	1685	565772.135473101568	1
7	1693	566844.310854399258	2
7	1701	567011.851781466741	3
7	1703	567261.722864137091	2
7	1711	567427.84822952493	1
7	1716	567536.801235504666	0
7	1733	569060.581783479292	1
7	1735	569406.486059897795	0
7	1751	580328.08327810484	1
7	1753	580734.073298075192	0
7	1769	590079.097758006407	1
7	1771	590123.699867431107	0
7	1788	607237.057622023874	1
7	1790	607986.996296171874	0
7	1806	619337.114283124076	1
7	1808	619796.046100613713	0
7	1822	622511.855674746134	1
7	1824	623032.918310216883	0
7	1840	632066.776743761066	1
7	1842	633194.542445749929	0
7	1856	634901.272540557095	1
7	1859	636400.027849518136	0
7	1873	639551.719687152087	1
7	1875	640223.390997686396	0
7	1890	642445.019595770897	1
7	1893	651154.600430983211	0
7	1909	660217.493394820293	1
7	1917	661222.903293598511	2
7	1924	662100.066768882016	1
7	1928	662280.94876949484	2
7	1935	663499.591577196402	1
7	1943	664909.602037854229	0
7	1958	669337.484646701232	1
7	1960	669864.493463061051	0
7	1977	684724.583375290651	1
7	1979	684971.301909600679	0
7	1994	690534.646738430242	1
7	1996	691278.752703294765	0
7	2011	696321.935760491256	1
7	2019	698441.552499236443	2
7	2021	699376.253872277696	1
7	2029	699676.625993703171	0
7	2043	700092.469411829055	1
7	2046	702815.242623629192	0
7	2061	708569.457426719248	1
7	2063	710549.435740999583	0
7	2078	714707.811010226174	1
7	2086	716370.071903751083	2
7	2088	716394.855045309554	1
7	2096	718823.600038385139	0
7	2110	719698.437711685681	1
7	2113	722184.106584844427	0
7	2128	728912.111088687023	1
7	2130	730427.507976250174	0
7	2145	736112.041506667302	1
7	2147	736863.573545067176	0
7	2166	748876.367418511402	1
7	2170	749218.829554596628	0
7	2174	749271.00769981708	1
7	2187	749674.027575126439	2
7	2190	750045.289559343975	1
7	2198	755719.846398788758	0
7	2213	759661.675671458814	1
7	2221	760852.584561996023	2
7	2223	760950.329264445457	1
7	2232	765186.203760884918	0
7	2250	791857.629441531239	1
7	2253	796214.260592660061	0
7	2268	798978.190086960469	1
7	2270	799150.762550850522	0
7	2287	821655.529421883555	1
7	2290	827356.907969159811	0
7	2305	829427.604898094474	1
7	2307	830591.556289724329	0
7	2323	840177.530192651739	1
7	2325	842104.240889508745	0
7	2342	860078.352986121212	1
7	2344	860643.143292121038	0
7	2361	881305.927171201065	1
7	2363	881878.522219604979	0
7	2379	888618.325493205952	1
7	2381	889695.117559915864	0
7	2396	896799.750929581857	1
7	2404	898390.140308154732	2
7	2406	898554.946567348581	1
7	2414	898573.754794543484	0
7	2430	906310.092048345433	1
7	2432	907182.49968530323	0
7	2446	908800.227901147971	1
7	2448	909727.979608055265	0
7	2463	912982.585288163757	1
7	2471	916904.735008499633	2
7	2473	917311.263826277255	1
7	2481	917809.698082222715	0
7	2497	928404.372595392079	1
7	2505	930137.040169413624	0
7	2509	930557.419195597681	1
7	2516	931854.491130878384	0
7	2533	932201.104453013585	1
7	2538	932338.258267110612	2
7	2540	932710.87702952069	1
7	2548	933973.989957307887	0
7	2563	941416.157252864138	1
7	2571	941948.091484803965	2
7	2574	942027.702265054464	1
7	2582	942048.075957095358	0
7	2596	946655.778637172602	1
7	2598	946841.428331956749	0
7	2614	954319.13283939596	1
7	2616	954707.782555923201	0
7	2630	958626.295985667094	1
7	2632	959049.384685223238	0
7	2648	966265.40073830526	1
7	2650	966415.957678314061	0
7	2668	973468.924033108646	1
7	2673	973674.603031136823	2
7	2676	978720.513473862913	1
7	2684	980983.990201006582	0
7	2699	988481.761909428987	1
7	2701	989111.326814987251	0
7	2716	994422.653450984648	1
7	2719	997552.237515171065	0
7	2733	999611.358504062484	1
7	2740	1000254.57056395304	0
7	2744	1000381.40159939148	1
7	2758	1002626.583733454391	2
7	2760	1003227.245556429052	1
7	2768	1003860.792316870714	0
7	2784	1016454.970248969888	1
7	2787	1022516.101285322714	0
7	2802	1026731.897968696565	1
7	2810	1027653.458707875186	2
7	2812	1028595.231969355166	1
7	2827	1036159.334745727023	2
