version 2
run QueueMeasurement-87-20170109-14:25:41-6974
attr configname QueueMeasurement
attr datetime 20170109-14:25:41
attr experiment QueueMeasurement
attr inifile queueStudy.ini
attr iterationvars ""
attr iterationvars2 $repetition=87
attr measurement ""
attr network controltower.SimNetwork
attr processid 6974
attr repetition 87
attr replication #87
attr resultdir results
attr runnumber 87
attr seedset 87
param SimNetwork.a.parkingLot.parkingDelay exponential(45min)
param SimNetwork.a.runway.landingTime exponential(5min)
param SimNetwork.a.runway.takeoffTime exponential(5min)
param SimNetwork.a.runway.throughputCheckInterval 100min
param SimNetwork.wg.interArrivalTime exponential(100min)

vector 5  SimNetwork.a.runway  landedThroughput:vector  ETV
attr source  landedThroughputSignal
vector 6  SimNetwork.a.runway  tookoffThroughput:vector  ETV
attr source  tookoffThroughputSignal
vector 2  SimNetwork.a.landingQueue  queueLength:vector  ETV
attr source  queueLengthSignal
vector 1  SimNetwork.a.landingQueue  queueTime:vector  ETV
attr source  queueTimeSignal
vector 7  SimNetwork.a.parkingLot  parkingOccupancy:vector  ETV
attr source  parkingOccupancy
vector 4  SimNetwork.a.takeoffQueue  queueLength:vector  ETV
attr source  queueLengthSignal
vector 3  SimNetwork.a.takeoffQueue  queueTime:vector  ETV
attr source  queueTimeSignal
vector 0  SimNetwork.wg  responseTime:vector  ETV
attr source  responseTimeSignal
0	372	131050.535773547937	17510.969588843
0	398	141777.586863084538	14234.884429062
0	407	144509.77398438144	12410.816277355
0	431	148638.154371962842	1517.0842049395
0	439	149496.501250754513	9598.289224432
0	457	157774.95924934265	9954.6029672278
0	473	161950.998105262129	6935.6723848874
0	493	184197.53728702	24992.747177791
0	510	190909.287343035744	8064.3092997471
0	527	193354.280015207545	8284.0081886805
0	543	195201.079853496161	3197.0873478902
0	563	203159.689409427782	9695.38556639
0	576	203982.183028418038	3460.8627825123
0	594	212999.967086517541	9992.6843069048
0	613	229777.496604502094	17541.786020763
0	630	238320.620186379269	10956.812940126
0	648	247597.572458888225	13186.146278664
0	665	253033.343976397078	5945.7734069045
0	689	255845.324548118981	1678.0514528462
0	706	259473.969794735815	4174.8659518641
0	723	266044.32909914204	6953.9692352556
0	731	267294.102217569648	16244.781764594
0	752	278770.772860440806	15636.249201569
0	765	280393.641861148302	6860.9245717967
0	783	288616.367059498834	10525.52696565
0	814	313368.977224849515	7080.9584490483
0	819	313373.376946269888	25381.881607071
0	837	326276.182283744687	15417.236878679
0	865	348001.615199045693	21917.587653748
0	873	348663.639001508611	3499.3864557014
0	890	357830.170551805548	10758.799443677
0	915	365017.57599714405	4584.548813424
0	924	366060.905202730201	8601.5505425665
0	940	370698.505978902447	9151.9482437503
0	968	375458.887557411314	4757.3190294824
0	973	376299.361643752356	7328.6747425446
0	1010	404279.129382018697	31046.876458725
0	1018	405150.33388303067	2313.2441577796
0	1034	406613.576161825843	7467.7553351854
0	1043	408876.553516704948	5355.9474190243
0	1061	423435.711138486154	17985.189871689
0	1089	427018.847889705424	8850.1763654806
0	1102	428274.725956683252	2295.2255228509
0	1110	429607.894599981891	3798.2227605383
0	1127	432220.633022829152	5716.55666512
0	1144	441365.328563450214	10595.835297704
0	1172	463460.813351105446	3468.3688748602
0	1189	469118.986109412125	8178.5139711446
0	1197	469483.042753895305	32903.823353297
0	1215	481542.422954722706	16049.601606812
0	1232	489267.264985292994	10855.349225376
0	1256	491090.954565400003	1606.4477714993
0	1265	493988.2889218344	10159.506669381
0	1283	504803.905634354302	14851.248265146
0	1308	512247.92567775178	10626.324332242
0	1324	513769.173223893617	5938.8924346346
0	1349	516045.411727700525	2902.8793287795
0	1357	518609.894810687913	4667.4983335883
0	1373	520544.218973972024	10801.558868439
0	1381	521105.84272794897	7025.8270834852
0	1399	528185.975396196764	8392.1214330741
0	1415	530683.817101517407	2840.2945829942
0	1441	542869.830073396093	13409.962004913
0	1449	543251.559796752117	2145.8509024081
0	1466	546711.952941334743	4636.8040795404
0	1491	552537.391715444624	4036.7883766538
0	1499	553173.950272534448	7790.6798480379
0	1523	557414.956725574329	6391.6035713854
0	1532	558158.574683983599	4235.3229509969
0	1548	562363.277915664177	6310.2456054761
0	1584	585242.366788533458	2620.3472358908
0	1592	586548.583543582438	2584.1736852812
0	1600	587657.182874965714	26527.839969893
0	1617	590480.37777278943	6347.1788741773
0	1643	600301.085392609297	11169.197157065
0	1651	600801.173198279745	4977.0379535666
0	1669	616493.919895904666	17512.715607584
0	1694	619735.857907778788	16544.93130312
0	1702	619976.863480997158	1483.4446011764
0	1743	627900.675540669654	3955.4766933651
0	1751	629341.503529580238	4863.4121257257
0	1760	630324.123298300117	3563.6477762002
0	1768	630782.823691093924	11505.806462704
0	1784	632896.188305749181	5886.9708701088
0	1809	638687.168798813252	5764.4155019683
0	1817	640719.229295537352	9546.6848874275
0	1836	658760.808806492403	22868.230719523
0	1854	671572.407132947137	14045.312216714
0	1882	677178.068895346097	3503.9623581189
0	1896	679485.226323156053	4129.7613468422
0	1904	683082.733678212906	14287.488472095
0	1922	691942.451243506224	15341.324290627
0	1940	702871.709030921055	14628.204908132
0	1957	713667.942518923071	12648.201450812
0	1976	729440.34645937211	17844.798926467
0	1994	741294.93334837861	13871.705668816
0	2011	746499.613285516729	13159.254104415
0	2036	755456.771716654381	10343.754589665
0	2048	757552.845456196976	8905.6700225085
0	2078	765707.096140939562	11739.161565802
0	2089	766781.904370858361	2971.59432964
0	2094	767012.859829290699	9471.5729472026
0	2119	769458.995614872097	4979.8395855457
0	2127	769836.258113617634	1955.7931641717
0	2144	774657.394273226474	6018.4919766286
0	2161	781102.119278688407	10481.998723638
0	2178	791315.853007917704	13987.326974718
0	2196	798429.671974299052	12857.410944635
0	2213	809096.028703963341	12806.927190968
0	2246	814081.91118728961	3668.398479827
0	2254	815445.809735351834	4829.5523407029
0	2271	819656.287241446629	12634.875092835
0	2279	821114.699449043986	9613.3802523156
0	2298	837696.967241395354	21703.506896118
0	2315	840872.346856308618	7087.9718214843
0	2331	844230.630836929604	5633.049972899
0	2357	852369.868313404627	8572.1278308961
0	2373	853346.380373076767	3118.1570873542
0	2381	854462.837704536891	4159.0271791594
0	2399	867434.208720740859	14235.482279531
0	2417	880064.679632783471	14691.854633047
0	2443	890946.916137487402	16836.954460674
0	2451	892617.760139016796	4840.3598577496
0	2468	896182.195726036204	7094.4780617068
0	2487	914565.33734135986	19421.112618356
0	2507	936983.538874266736	23066.837757079
0	2523	941128.394727004925	8656.911894011
0	2548	946392.096659560269	6232.0227090923
0	2556	947711.87058571158	2121.7302448532
0	2573	951634.988887710191	6012.2529032475
0	2590	957206.103417712253	6633.4316418546
0	2607	962457.392891958506	10355.583354903
0	2624	971958.266088309372	14170.044524207
0	2641	977815.532065610138	7031.1648310904
0	2666	980290.131760512718	6221.72676773
0	2674	980984.385462123466	1933.5686779946
0	2709	998378.310717942466	5203.5944098407
0	2717	1000353.586119695523	3768.8904964195
0	2725	1001166.083765040863	21198.937848534
0	2742	1002223.310742841606	5285.6845231679
0	2758	1004723.559429822732	3406.1208932749
0	2776	1016269.125117069539	13339.496443715
0	2794	1028571.743764981926	18051.629915048
1	361	127542.702434022179	0
1	378	132098.957707026307	0
1	387	139898.212026322507	0
1	412	147121.070167023311	0
1	420	147820.356282114875	0
1	445	155015.325720374767	0
1	462	159204.790109229034	0
1	482	182844.97804328863	0
1	498	185070.27182652704	0
1	516	192003.99250560593	0
1	532	193464.303843037741	0
1	549	200521.320245905717	0
1	565	203159.689409427782	152.406629815
1	583	212235.71058373925	0
1	601	227363.807246253482	0
1	619	234411.426180224214	0
1	637	247087.570569492584	0
1	653	251049.320452975555	0
1	670	254167.273095272738	0
1	678	255299.103842871719	0
1	695	259090.359863886417	0
1	711	263134.523658872216	0
1	737	273532.717289351622	0
1	754	278770.772860440806	679.9327665918
1	771	287991.495339198872	0
1	791	306288.018775801232	0
1	799	310858.945405065936	0
1	826	326084.027545297262	0
1	845	345164.252545807198	0
1	853	347071.371108128797	0
1	879	357459.354660163695	0
1	896	360433.027183720038	0
1	904	361546.55773515211	0
1	929	368970.686901207754	0
1	945	370701.568527928921	0
1	954	373232.252923294029	0
1	982	399145.820826640489	0
1	991	402837.089725251071	0
1	999	403520.606097680668	0
1	1023	405450.521266797087	0
1	1049	418168.671524224793	0
1	1066	425809.671839443607	0
1	1074	425981.043183078477	1.542749246148
1	1091	427018.847889705424	514.77153199629
1	1115	430769.493265745931	0
1	1132	436579.219400598677	0
1	1152	459992.444476245197	0
1	1160	460940.472138267538	0
1	1177	465492.821347910986	0
1	1203	478411.915759916606	0
1	1220	483828.782252453734	0
1	1237	489484.506793900692	0
1	1245	489952.657369208086	0
1	1271	501621.601345509624	0
1	1288	507830.28078925898	0
1	1296	509742.660105532536	0
1	1313	513142.532398921	0
1	1329	513942.39647709962	0
1	1337	514891.426818915224	811.41117445146
1	1362	519793.853963122653	0
1	1387	527843.522518523173	0
1	1404	529459.868068482826	0
1	1422	541105.708894343984	0
1	1430	542075.148861794354	0
1	1454	545383.270424496589	0
1	1471	548500.603338790781	0
1	1479	551023.35315418894	0
1	1504	553923.251732986657	0
1	1512	556053.032310188035	0
1	1537	561129.342905072905	0
1	1557	582622.019552642665	0
1	1565	583964.40985830121	0
1	1573	584339.038498624923	205.83960001275
1	1606	589131.888235543882	0
1	1623	595824.135244713134	0
1	1631	598981.204288320366	0
1	1656	603190.926604659057	0
1	1675	618493.418879820735	0
1	1683	619277.017228389592	0
1	1707	623945.198847304534	0
1	1716	624478.091403854551	0
1	1724	626760.475522099906	0
1	1732	627107.760058729634	98.542623089239
1	1773	631172.544408109874	0
1	1789	632922.753296844968	0
1	1797	635892.57808696897	0
1	1825	657527.09491623341	0
1	1843	668795.245206118366	0
1	1860	673674.106537227214	0
1	1868	675355.464976313836	0
1	1884	677178.068895346097	576.94194246723
1	1910	688243.504122788743	0
1	1928	701019.741068111207	0
1	1946	711595.547532905379	0
1	1965	727423.227679562885	0
1	1982	733340.359181101339	0
1	2000	745113.017126989093	0
1	2016	748647.175433688504	0
1	2025	753967.934575137168	0
1	2050	757552.845456196976	11.558574108883
1	2059	763810.310041218325	0
1	2067	764479.156029326369	0
1	2099	767880.464949445975	0
1	2108	768638.90229659787	0
1	2132	770620.120555050229	0
1	2149	777328.526033199383	0
1	2166	785572.261029663615	0
1	2184	796289.101512995443	0
1	2202	807021.412148612071	0
1	2219	810413.512707462616	0
1	2227	810616.25739464891	0
1	2235	811501.319196728366	0
1	2259	815993.460345277661	0
1	2286	833784.375034824305	0
1	2303	838597.580864030627	0
1	2320	843797.740482508493	0
1	2337	850228.223285722541	0
1	2345	851167.681839839643	863.87131446213
1	2362	853198.726441209744	0
1	2388	865372.824999736258	0
1	2405	874109.961676813732	0
1	2423	887777.40028126717	0
1	2432	889087.717664329406	0
1	2457	895144.224723004352	0
1	2476	913916.701117188084	0
1	2495	932471.48283299394	0
1	2512	940160.073950467938	0
1	2529	945590.140340858396	0
1	2537	945663.743936203456	41.007951740805
1	2562	950572.671775857695	0
1	2578	952101.809537055192	0
1	2595	957788.221564102222	0
1	2613	970784.367234519716	0
1	2630	974068.404992782746	0
1	2647	979050.81678412883	0
1	2655	979967.145916506712	0
1	2681	993174.716308101814	0
1	2690	996584.695623276023	0
1	2698	997416.631565230394	479.0053455567
1	2730	1001317.438536547806	0
1	2747	1002929.628673354998	0
1	2764	1010520.113849934376	0
1	2783	1026742.03001298129	0
2	359	127542.702434022179	1
2	361	127542.702434022179	0
2	376	132098.957707026307	1
2	378	132098.957707026307	0
2	385	139898.212026322507	1
2	387	139898.212026322507	0
2	410	147121.070167023311	1
2	412	147121.070167023311	0
2	418	147820.356282114875	1
2	420	147820.356282114875	0
2	443	155015.325720374767	1
2	445	155015.325720374767	0
2	460	159204.790109229034	1
2	462	159204.790109229034	0
2	480	182844.97804328863	1
2	482	182844.97804328863	0
2	496	185070.27182652704	1
2	498	185070.27182652704	0
2	514	192003.99250560593	1
2	516	192003.99250560593	0
2	530	193464.303843037741	1
2	532	193464.303843037741	0
2	547	200521.320245905717	1
2	549	200521.320245905717	0
2	560	203007.282779612782	1
2	565	203159.689409427782	0
2	581	212235.71058373925	1
2	583	212235.71058373925	0
2	599	227363.807246253482	1
2	601	227363.807246253482	0
2	617	234411.426180224214	1
2	619	234411.426180224214	0
2	635	247087.570569492584	1
2	637	247087.570569492584	0
2	651	251049.320452975555	1
2	653	251049.320452975555	0
2	668	254167.273095272738	1
2	670	254167.273095272738	0
2	676	255299.103842871719	1
2	678	255299.103842871719	0
2	693	259090.359863886417	1
2	695	259090.359863886417	0
2	709	263134.523658872216	1
2	711	263134.523658872216	0
2	735	273532.717289351622	1
2	737	273532.717289351622	0
2	749	278090.840093849002	1
2	754	278770.772860440806	0
2	769	287991.495339198872	1
2	771	287991.495339198872	0
2	789	306288.018775801232	1
2	791	306288.018775801232	0
2	797	310858.945405065936	1
2	799	310858.945405065936	0
2	824	326084.027545297262	1
2	826	326084.027545297262	0
2	843	345164.252545807198	1
2	845	345164.252545807198	0
2	851	347071.371108128797	1
2	853	347071.371108128797	0
2	877	357459.354660163695	1
2	879	357459.354660163695	0
2	894	360433.027183720038	1
2	896	360433.027183720038	0
2	902	361546.55773515211	1
2	904	361546.55773515211	0
2	927	368970.686901207754	1
2	929	368970.686901207754	0
2	943	370701.568527928921	1
2	945	370701.568527928921	0
2	952	373232.252923294029	1
2	954	373232.252923294029	0
2	980	399145.820826640489	1
2	982	399145.820826640489	0
2	989	402837.089725251071	1
2	991	402837.089725251071	0
2	997	403520.606097680668	1
2	999	403520.606097680668	0
2	1021	405450.521266797087	1
2	1023	405450.521266797087	0
2	1047	418168.671524224793	1
2	1049	418168.671524224793	0
2	1064	425809.671839443607	1
2	1066	425809.671839443607	0
2	1069	425979.500433832329	1
2	1074	425981.043183078477	0
2	1086	426504.076357709138	1
2	1091	427018.847889705424	0
2	1113	430769.493265745931	1
2	1115	430769.493265745931	0
2	1130	436579.219400598677	1
2	1132	436579.219400598677	0
2	1150	459992.444476245197	1
2	1152	459992.444476245197	0
2	1158	460940.472138267538	1
2	1160	460940.472138267538	0
2	1175	465492.821347910986	1
2	1177	465492.821347910986	0
2	1201	478411.915759916606	1
2	1203	478411.915759916606	0
2	1218	483828.782252453734	1
2	1220	483828.782252453734	0
2	1235	489484.506793900692	1
2	1237	489484.506793900692	0
2	1243	489952.657369208086	1
2	1245	489952.657369208086	0
2	1269	501621.601345509624	1
2	1271	501621.601345509624	0
2	1286	507830.28078925898	1
2	1288	507830.28078925898	0
2	1294	509742.660105532536	1
2	1296	509742.660105532536	0
2	1311	513142.532398921	1
2	1313	513142.532398921	0
2	1327	513942.39647709962	1
2	1329	513942.39647709962	0
2	1332	514080.015644463761	1
2	1337	514891.426818915224	0
2	1360	519793.853963122653	1
2	1362	519793.853963122653	0
2	1385	527843.522518523173	1
2	1387	527843.522518523173	0
2	1402	529459.868068482826	1
2	1404	529459.868068482826	0
2	1420	541105.708894343984	1
2	1422	541105.708894343984	0
2	1428	542075.148861794354	1
2	1430	542075.148861794354	0
2	1452	545383.270424496589	1
2	1454	545383.270424496589	0
2	1469	548500.603338790781	1
2	1471	548500.603338790781	0
2	1477	551023.35315418894	1
2	1479	551023.35315418894	0
2	1502	553923.251732986657	1
2	1504	553923.251732986657	0
2	1510	556053.032310188035	1
2	1512	556053.032310188035	0
2	1535	561129.342905072905	1
2	1537	561129.342905072905	0
2	1555	582622.019552642665	1
2	1557	582622.019552642665	0
2	1563	583964.40985830121	1
2	1565	583964.40985830121	0
2	1568	584133.198898612174	1
2	1573	584339.038498624923	0
2	1604	589131.888235543882	1
2	1606	589131.888235543882	0
2	1621	595824.135244713134	1
2	1623	595824.135244713134	0
2	1629	598981.204288320366	1
2	1631	598981.204288320366	0
2	1654	603190.926604659057	1
2	1656	603190.926604659057	0
2	1673	618493.418879820735	1
2	1675	618493.418879820735	0
2	1681	619277.017228389592	1
2	1683	619277.017228389592	0
2	1705	623945.198847304534	1
2	1707	623945.198847304534	0
2	1714	624478.091403854551	1
2	1716	624478.091403854551	0
2	1722	626760.475522099906	1
2	1724	626760.475522099906	0
2	1727	627009.217435640395	1
2	1732	627107.760058729634	0
2	1771	631172.544408109874	1
2	1773	631172.544408109874	0
2	1787	632922.753296844968	1
2	1789	632922.753296844968	0
2	1795	635892.57808696897	1
2	1797	635892.57808696897	0
2	1823	657527.09491623341	1
2	1825	657527.09491623341	0
2	1841	668795.245206118366	1
2	1843	668795.245206118366	0
2	1858	673674.106537227214	1
2	1860	673674.106537227214	0
2	1866	675355.464976313836	1
2	1868	675355.464976313836	0
2	1879	676601.126952878871	1
2	1884	677178.068895346097	0
2	1908	688243.504122788743	1
2	1910	688243.504122788743	0
2	1926	701019.741068111207	1
2	1928	701019.741068111207	0
2	1944	711595.547532905379	1
2	1946	711595.547532905379	0
2	1963	727423.227679562885	1
2	1965	727423.227679562885	0
2	1980	733340.359181101339	1
2	1982	733340.359181101339	0
2	1998	745113.017126989093	1
2	2000	745113.017126989093	0
2	2014	748647.175433688504	1
2	2016	748647.175433688504	0
2	2023	753967.934575137168	1
2	2025	753967.934575137168	0
2	2045	757541.286882088093	1
2	2050	757552.845456196976	0
2	2057	763810.310041218325	1
2	2059	763810.310041218325	0
2	2065	764479.156029326369	1
2	2067	764479.156029326369	0
2	2097	767880.464949445975	1
2	2099	767880.464949445975	0
2	2106	768638.90229659787	1
2	2108	768638.90229659787	0
2	2130	770620.120555050229	1
2	2132	770620.120555050229	0
2	2147	777328.526033199383	1
2	2149	777328.526033199383	0
2	2164	785572.261029663615	1
2	2166	785572.261029663615	0
2	2182	796289.101512995443	1
2	2184	796289.101512995443	0
2	2200	807021.412148612071	1
2	2202	807021.412148612071	0
2	2217	810413.512707462616	1
2	2219	810413.512707462616	0
2	2225	810616.25739464891	1
2	2227	810616.25739464891	0
2	2233	811501.319196728366	1
2	2235	811501.319196728366	0
2	2257	815993.460345277661	1
2	2259	815993.460345277661	0
2	2284	833784.375034824305	1
2	2286	833784.375034824305	0
2	2301	838597.580864030627	1
2	2303	838597.580864030627	0
2	2318	843797.740482508493	1
2	2320	843797.740482508493	0
2	2335	850228.223285722541	1
2	2337	850228.223285722541	0
2	2340	850303.81052537751	1
2	2345	851167.681839839643	0
2	2360	853198.726441209744	1
2	2362	853198.726441209744	0
2	2386	865372.824999736258	1
2	2388	865372.824999736258	0
2	2403	874109.961676813732	1
2	2405	874109.961676813732	0
2	2421	887777.40028126717	1
2	2423	887777.40028126717	0
2	2430	889087.717664329406	1
2	2432	889087.717664329406	0
2	2455	895144.224723004352	1
2	2457	895144.224723004352	0
2	2474	913916.701117188084	1
2	2476	913916.701117188084	0
2	2493	932471.48283299394	1
2	2495	932471.48283299394	0
2	2510	940160.073950467938	1
2	2512	940160.073950467938	0
2	2527	945590.140340858396	1
2	2529	945590.140340858396	0
2	2532	945622.735984462651	1
2	2537	945663.743936203456	0
2	2560	950572.671775857695	1
2	2562	950572.671775857695	0
2	2576	952101.809537055192	1
2	2578	952101.809537055192	0
2	2593	957788.221564102222	1
2	2595	957788.221564102222	0
2	2611	970784.367234519716	1
2	2613	970784.367234519716	0
2	2628	974068.404992782746	1
2	2630	974068.404992782746	0
2	2645	979050.81678412883	1
2	2647	979050.81678412883	0
2	2653	979967.145916506712	1
2	2655	979967.145916506712	0
2	2679	993174.716308101814	1
2	2681	993174.716308101814	0
2	2688	996584.695623276023	1
2	2690	996584.695623276023	0
2	2693	996937.62621967369	1
2	2698	997416.631565230394	0
2	2728	1001317.438536547806	1
2	2730	1001317.438536547806	0
2	2745	1002929.628673354998	1
2	2747	1002929.628673354998	0
2	2762	1010520.113849934376	1
2	2764	1010520.113849934376	0
2	2781	1026742.03001298129	1
2	2783	1026742.03001298129	0
3	369	130996.80806186574	0
3	395	141653.643250426381	0
3	403	143694.861320598275	0
3	428	148466.889855747127	0
3	436	149492.443197869022	0
3	454	157211.399534669181	0
3	470	161463.576499475625	0
3	490	184040.160618823315	0
3	507	190799.725669431053	0
3	524	193312.889380717871	0
3	540	195185.922405656099	0
3	557	202989.52456122264	0
3	573	203701.914491406967	0
3	591	212935.544930802361	0
3	610	229646.658424809225	0
3	627	238232.072176740647	0
3	645	247539.008103167479	0
3	662	253001.982334267513	0
3	686	255694.037341445252	0
3	703	259380.725917051108	0
3	720	265776.933829306017	0
3	728	266768.075571340424	0
3	746	277982.384052020071	0
3	762	279691.607895355062	0
3	780	288599.962377888199	0
3	808	312234.48501707763	0
3	816	313368.977224849515	498.43958019126
3	834	326264.60476649273	0
3	861	347731.911037700407	0
3	870	348478.348617673937	0
3	887	357767.771152573421	0
3	912	364931.047518098114	0
3	920	365963.472015538974	0
3	937	370400.88944313818	0
3	962	374894.726555438926	0
3	970	375458.887557411314	457.58430878664
3	1007	403811.92879672872	47.735651535713
3	1015	404756.381700912198	0
3	1031	406555.552428182086	0
3	1040	408670.924308569169	0
3	1058	422244.495844669966	0
3	1083	426342.055198462139	0
3	1099	427784.96421858598	0
3	1107	429438.844065984405	0
3	1124	432179.623338031775	0
3	1141	440344.136908247848	0
3	1169	463402.667637408979	0
3	1186	468647.037528898612	0
3	1194	469477.281294512293	0
3	1212	481240.113600982201	0
3	1229	489075.717038851864	0
3	1253	491032.952744991873	0
3	1262	493399.665741839263	0
3	1279	503803.595399946421	0
3	1305	511341.570912298808	0
3	1321	513373.36075406141	214.83508094806
3	1345	515962.246103151977	0
3	1354	518381.439919946864	0
3	1370	520530.39028069585	0
3	1378	521070.475264478519	0
3	1396	528133.168207172758	0
3	1412	530336.243330680265	0
3	1438	542453.058758512985	322.06326319051
3	1446	543165.703410856937	0
3	1463	546580.810450073949	0
3	1488	552168.048832830874	0
3	1496	553103.578471434536	0
3	1520	557251.496181400456	0
3	1529	558111.389220397813	0
3	1545	562293.891741181899	0
3	1581	585047.515013998147	0
3	1589	585860.093739346269	0
3	1597	587548.036347606797	0
3	1614	590405.484958823456	0
3	1639	599881.532264126881	0
3	1648	600561.284462943273	0
3	1666	616367.932852731875	0
3	1691	619626.938423458327	0
3	1699	619955.850825050645	0
3	1740	627746.711078803039	528.75274974366
3	1748	628990.169327631217	0
3	1756	629427.180658292648	0
3	1765	630725.441219510371	0
3	1781	632455.491290601348	0
3	1806	638156.172119398714	0
3	1814	640610.019121448227	0
3	1833	658477.079089422267	0
3	1851	671416.505256459533	0
3	1876	676435.239449281828	0
3	1893	679131.565329542861	0
3	1901	683062.195303242536	0
3	1919	691869.407347761886	0
3	1937	702721.977824618781	0
3	1954	713268.19556193294	0
3	1973	728955.261519308909	0
3	1991	741138.056536472493	0
3	2008	745971.919631196476	0
3	2033	755288.188025370328	0
3	2042	757540.70935236236	0
3	2075	764744.043500674943	0
3	2083	766517.403165166253	0
3	2091	766781.904370858361	67.09607236017
3	2116	768856.554926646798	150.82370946171
3	2124	769565.868171826578	0
3	2141	774542.421896403012	0
3	2158	780247.858407550841	0
3	2175	791252.519369316034	0
3	2193	798043.294275052155	0
3	2210	808453.039860554573	0
3	2243	814010.730470963025	0
3	2251	814941.959458132285	0
3	2268	819379.85293816054	0
3	2276	820960.187033502728	0
3	2295	836356.947823723648	0
3	2312	840831.654931981051	0
3	2328	844087.015488451588	0
3	2354	852269.527914431238	0
3	2370	853340.012962377068	0
3	2378	854433.684055050413	0
3	2396	867149.177574825317	0
3	2414	879756.811833153381	0
3	2440	890240.129958091037	0
3	2448	892540.310833485435	0
3	2465	896093.829894981619	0
3	2484	914521.109431585665	0
3	2504	936636.238778276701	0
3	2520	940450.142342727087	0
3	2545	946014.284902967318	0
3	2553	946983.198497785311	0
3	2570	951387.432753566264	0
3	2587	955709.915338451581	0
3	2604	962025.728837143139	0
3	2621	971781.742280476436	0
3	2638	977815.511340638689	0
3	2663	980165.178165216935	99.83525333676
3	2671	980689.502324190388	0
3	2706	997689.78621821934	0
3	2714	999749.300711007646	0
3	2722	1000700.396425629173	0
3	2739	1002063.535401655689	0
3	2755	1004615.814576278018	0
3	2773	1015973.685264304589	0
3	2791	1028538.702190258265	0
4	367	130996.80806186574	1
4	369	130996.80806186574	0
4	393	141653.643250426381	1
4	395	141653.643250426381	0
4	401	143694.861320598275	1
4	403	143694.861320598275	0
4	426	148466.889855747127	1
4	428	148466.889855747127	0
4	434	149492.443197869022	1
4	436	149492.443197869022	0
4	452	157211.399534669181	1
4	454	157211.399534669181	0
4	468	161463.576499475625	1
4	470	161463.576499475625	0
4	488	184040.160618823315	1
4	490	184040.160618823315	0
4	505	190799.725669431053	1
4	507	190799.725669431053	0
4	522	193312.889380717871	1
4	524	193312.889380717871	0
4	538	195185.922405656099	1
4	540	195185.922405656099	0
4	555	202989.52456122264	1
4	557	202989.52456122264	0
4	571	203701.914491406967	1
4	573	203701.914491406967	0
4	589	212935.544930802361	1
4	591	212935.544930802361	0
4	608	229646.658424809225	1
4	610	229646.658424809225	0
4	625	238232.072176740647	1
4	627	238232.072176740647	0
4	643	247539.008103167479	1
4	645	247539.008103167479	0
4	660	253001.982334267513	1
4	662	253001.982334267513	0
4	684	255694.037341445252	1
4	686	255694.037341445252	0
4	701	259380.725917051108	1
4	703	259380.725917051108	0
4	718	265776.933829306017	1
4	720	265776.933829306017	0
4	726	266768.075571340424	1
4	728	266768.075571340424	0
4	744	277982.384052020071	1
4	746	277982.384052020071	0
4	760	279691.607895355062	1
4	762	279691.607895355062	0
4	778	288599.962377888199	1
4	780	288599.962377888199	0
4	806	312234.48501707763	1
4	808	312234.48501707763	0
4	811	312870.537644658257	1
4	816	313368.977224849515	0
4	832	326264.60476649273	1
4	834	326264.60476649273	0
4	859	347731.911037700407	1
4	861	347731.911037700407	0
4	868	348478.348617673937	1
4	870	348478.348617673937	0
4	885	357767.771152573421	1
4	887	357767.771152573421	0
4	910	364931.047518098114	1
4	912	364931.047518098114	0
4	918	365963.472015538974	1
4	920	365963.472015538974	0
4	935	370400.88944313818	1
4	937	370400.88944313818	0
4	960	374894.726555438926	1
4	962	374894.726555438926	0
4	965	375001.303248624675	1
4	970	375458.887557411314	0
4	1002	403764.193145193007	1
4	1007	403811.92879672872	0
4	1013	404756.381700912198	1
4	1015	404756.381700912198	0
4	1029	406555.552428182086	1
4	1031	406555.552428182086	0
4	1038	408670.924308569169	1
4	1040	408670.924308569169	0
4	1056	422244.495844669966	1
4	1058	422244.495844669966	0
4	1081	426342.055198462139	1
4	1083	426342.055198462139	0
4	1097	427784.96421858598	1
4	1099	427784.96421858598	0
4	1105	429438.844065984405	1
4	1107	429438.844065984405	0
4	1122	432179.623338031775	1
4	1124	432179.623338031775	0
4	1139	440344.136908247848	1
4	1141	440344.136908247848	0
4	1167	463402.667637408979	1
4	1169	463402.667637408979	0
4	1184	468647.037528898612	1
4	1186	468647.037528898612	0
4	1192	469477.281294512293	1
4	1194	469477.281294512293	0
4	1210	481240.113600982201	1
4	1212	481240.113600982201	0
4	1227	489075.717038851864	1
4	1229	489075.717038851864	0
4	1251	491032.952744991873	1
4	1253	491032.952744991873	0
4	1260	493399.665741839263	1
4	1262	493399.665741839263	0
4	1277	503803.595399946421	1
4	1279	503803.595399946421	0
4	1303	511341.570912298808	1
4	1305	511341.570912298808	0
4	1316	513158.52567311335	1
4	1321	513373.36075406141	0
4	1343	515962.246103151977	1
4	1345	515962.246103151977	0
4	1352	518381.439919946864	1
4	1354	518381.439919946864	0
4	1368	520530.39028069585	1
4	1370	520530.39028069585	0
4	1376	521070.475264478519	1
4	1378	521070.475264478519	0
4	1394	528133.168207172758	1
4	1396	528133.168207172758	0
4	1410	530336.243330680265	1
4	1412	530336.243330680265	0
4	1433	542130.995495322471	1
4	1438	542453.058758512985	0
4	1444	543165.703410856937	1
4	1446	543165.703410856937	0
4	1461	546580.810450073949	1
4	1463	546580.810450073949	0
4	1486	552168.048832830874	1
4	1488	552168.048832830874	0
4	1494	553103.578471434536	1
4	1496	553103.578471434536	0
4	1518	557251.496181400456	1
4	1520	557251.496181400456	0
4	1527	558111.389220397813	1
4	1529	558111.389220397813	0
4	1543	562293.891741181899	1
4	1545	562293.891741181899	0
4	1579	585047.515013998147	1
4	1581	585047.515013998147	0
4	1587	585860.093739346269	1
4	1589	585860.093739346269	0
4	1595	587548.036347606797	1
4	1597	587548.036347606797	0
4	1612	590405.484958823456	1
4	1614	590405.484958823456	0
4	1637	599881.532264126881	1
4	1639	599881.532264126881	0
4	1646	600561.284462943273	1
4	1648	600561.284462943273	0
4	1664	616367.932852731875	1
4	1666	616367.932852731875	0
4	1689	619626.938423458327	1
4	1691	619626.938423458327	0
4	1697	619955.850825050645	1
4	1699	619955.850825050645	0
4	1735	627217.958329059384	1
4	1740	627746.711078803039	0
4	1746	628990.169327631217	1
4	1748	628990.169327631217	0
4	1754	629427.180658292648	1
4	1756	629427.180658292648	0
4	1763	630725.441219510371	1
4	1765	630725.441219510371	0
4	1779	632455.491290601348	1
4	1781	632455.491290601348	0
4	1804	638156.172119398714	1
4	1806	638156.172119398714	0
4	1812	640610.019121448227	1
4	1814	640610.019121448227	0
4	1831	658477.079089422267	1
4	1833	658477.079089422267	0
4	1849	671416.505256459533	1
4	1851	671416.505256459533	0
4	1874	676435.239449281828	1
4	1876	676435.239449281828	0
4	1891	679131.565329542861	1
4	1893	679131.565329542861	0
4	1899	683062.195303242536	1
4	1901	683062.195303242536	0
4	1917	691869.407347761886	1
4	1919	691869.407347761886	0
4	1935	702721.977824618781	1
4	1937	702721.977824618781	0
4	1952	713268.19556193294	1
4	1954	713268.19556193294	0
4	1971	728955.261519308909	1
4	1973	728955.261519308909	0
4	1989	741138.056536472493	1
4	1991	741138.056536472493	0
4	2006	745971.919631196476	1
4	2008	745971.919631196476	0
4	2031	755288.188025370328	1
4	2033	755288.188025370328	0
4	2040	757540.70935236236	1
4	2042	757540.70935236236	0
4	2073	764744.043500674943	1
4	2075	764744.043500674943	0
4	2081	766517.403165166253	1
4	2083	766517.403165166253	0
4	2086	766714.808298498191	1
4	2091	766781.904370858361	0
4	2111	768705.73121718509	1
4	2116	768856.554926646798	0
4	2122	769565.868171826578	1
4	2124	769565.868171826578	0
4	2139	774542.421896403012	1
4	2141	774542.421896403012	0
4	2156	780247.858407550841	1
4	2158	780247.858407550841	0
4	2173	791252.519369316034	1
4	2175	791252.519369316034	0
4	2191	798043.294275052155	1
4	2193	798043.294275052155	0
4	2208	808453.039860554573	1
4	2210	808453.039860554573	0
4	2241	814010.730470963025	1
4	2243	814010.730470963025	0
4	2249	814941.959458132285	1
4	2251	814941.959458132285	0
4	2266	819379.85293816054	1
4	2268	819379.85293816054	0
4	2274	820960.187033502728	1
4	2276	820960.187033502728	0
4	2293	836356.947823723648	1
4	2295	836356.947823723648	0
4	2310	840831.654931981051	1
4	2312	840831.654931981051	0
4	2326	844087.015488451588	1
4	2328	844087.015488451588	0
4	2352	852269.527914431238	1
4	2354	852269.527914431238	0
4	2368	853340.012962377068	1
4	2370	853340.012962377068	0
4	2376	854433.684055050413	1
4	2378	854433.684055050413	0
4	2394	867149.177574825317	1
4	2396	867149.177574825317	0
4	2412	879756.811833153381	1
4	2414	879756.811833153381	0
4	2438	890240.129958091037	1
4	2440	890240.129958091037	0
4	2446	892540.310833485435	1
4	2448	892540.310833485435	0
4	2463	896093.829894981619	1
4	2465	896093.829894981619	0
4	2482	914521.109431585665	1
4	2484	914521.109431585665	0
4	2502	936636.238778276701	1
4	2504	936636.238778276701	0
4	2518	940450.142342727087	1
4	2520	940450.142342727087	0
4	2543	946014.284902967318	1
4	2545	946014.284902967318	0
4	2551	946983.198497785311	1
4	2553	946983.198497785311	0
4	2568	951387.432753566264	1
4	2570	951387.432753566264	0
4	2585	955709.915338451581	1
4	2587	955709.915338451581	0
4	2602	962025.728837143139	1
4	2604	962025.728837143139	0
4	2619	971781.742280476436	1
4	2621	971781.742280476436	0
4	2636	977815.511340638689	1
4	2638	977815.511340638689	0
4	2658	980065.342911880175	1
4	2663	980165.178165216935	0
4	2669	980689.502324190388	1
4	2671	980689.502324190388	0
4	2704	997689.78621821934	1
4	2706	997689.78621821934	0
4	2712	999749.300711007646	1
4	2714	999749.300711007646	0
4	2720	1000700.396425629173	1
4	2722	1000700.396425629173	0
4	2737	1002063.535401655689	1
4	2739	1002063.535401655689	0
4	2753	1004615.814576278018	1
4	2755	1004615.814576278018	0
4	2771	1015973.685264304589	1
4	2773	1015973.685264304589	0
4	2789	1028538.702190258265	1
4	2791	1028538.702190258265	0
5	357	126000	0
5	374	132000	1
5	383	138000	1
5	405	144000	1
5	441	150000	2
5	450	156000	1
5	475	162000	1
5	476	168000	0
5	477	174000	0
5	478	180000	0
5	503	186000	2
5	512	192000	0
5	545	198000	2
5	578	204000	2
5	579	210000	0
5	596	216000	1
5	597	222000	0
5	606	228000	1
5	615	234000	0
5	632	240000	1
5	633	246000	0
5	655	252000	1
5	691	258000	3
5	716	264000	2
5	733	270000	0
5	742	276000	1
5	767	282000	1
5	773	288000	0
5	785	294000	1
5	786	300000	0
5	787	306000	0
5	804	312000	2
5	821	318000	0
5	822	324000	0
5	839	330000	1
5	840	336000	0
5	841	342000	0
5	863	348000	2
5	875	354000	0
5	892	360000	1
5	922	366000	2
5	950	372000	2
5	975	378000	1
5	976	384000	0
5	977	390000	0
5	978	396000	0
5	987	402000	1
5	1036	408000	3
5	1045	414000	0
5	1054	420000	1
5	1076	426000	1
5	1120	432000	3
5	1137	438000	1
5	1146	444000	0
5	1147	450000	0
5	1148	456000	0
5	1165	462000	2
5	1182	468000	1
5	1199	474000	0
5	1208	480000	1
5	1225	486000	1
5	1258	492000	2
5	1267	498000	0
5	1281	504000	1
5	1298	510000	1
5	1347	516000	4
5	1383	522000	1
5	1392	528000	1
5	1417	534000	1
5	1418	540000	0
5	1459	546000	3
5	1484	552000	2
5	1525	558000	2
5	1550	564000	1
5	1551	570000	0
5	1552	576000	0
5	1553	582000	0
5	1602	588000	3
5	1619	594000	1
5	1641	600000	2
5	1661	606000	1
5	1662	612000	0
5	1671	618000	0
5	1709	624000	2
5	1758	630000	4
5	1799	636000	2
5	1819	642000	1
5	1820	648000	0
5	1821	654000	0
5	1838	660000	1
5	1839	666000	0
5	1856	672000	1
5	1889	678000	3
5	1906	684000	0
5	1915	690000	1
5	1924	696000	0
5	1933	702000	1
5	1942	708000	0
5	1959	714000	1
5	1960	720000	0
5	1961	726000	0
5	1978	732000	1
5	1987	738000	1
5	1996	744000	0
5	2021	750000	2
5	2038	756000	1
5	2055	762000	1
5	2101	768000	2
5	2137	774000	3
5	2154	780000	1
5	2171	786000	1
5	2180	792000	0
5	2189	798000	1
5	2198	804000	0
5	2215	810000	1
5	2261	816000	3
5	2281	822000	1
5	2282	828000	0
5	2291	834000	1
5	2308	840000	1
5	2333	846000	1
5	2350	852000	2
5	2383	858000	1
5	2384	864000	0
5	2401	870000	1
5	2410	876000	1
5	2419	882000	0
5	2428	888000	1
5	2453	894000	1
5	2470	900000	1
5	2471	906000	0
5	2472	912000	0
5	2489	918000	1
5	2490	924000	0
5	2491	930000	0
5	2500	936000	1
5	2525	942000	1
5	2558	948000	2
5	2583	954000	2
5	2600	960000	1
5	2609	966000	0
5	2626	972000	1
5	2643	978000	1
5	2676	984000	2
5	2677	990000	0
5	2686	996000	1
5	2735	1002000	3
5	2760	1008000	1
5	2769	1014000	1
5	2778	1020000	0
5	2779	1026000	0
5	2796	1032000	1
6	357	126000	0
6	374	132000	1
6	383	138000	0
6	405	144000	1
6	441	150000	3
6	450	156000	0
6	475	162000	2
6	476	168000	0
6	477	174000	0
6	478	180000	0
6	503	186000	1
6	512	192000	1
6	545	198000	2
6	578	204000	2
6	579	210000	0
6	596	216000	1
6	597	222000	0
6	606	228000	0
6	615	234000	1
6	632	240000	1
6	633	246000	0
6	655	252000	1
6	691	258000	2
6	716	264000	1
6	733	270000	2
6	742	276000	0
6	767	282000	2
6	773	288000	0
6	785	294000	1
6	786	300000	0
6	787	306000	0
6	804	312000	0
6	821	318000	2
6	822	324000	0
6	839	330000	1
6	840	336000	0
6	841	342000	0
6	863	348000	0
6	875	354000	2
6	892	360000	1
6	922	366000	1
6	950	372000	2
6	975	378000	2
6	976	384000	0
6	977	390000	0
6	978	396000	0
6	987	402000	0
6	1036	408000	3
6	1045	414000	1
6	1054	420000	0
6	1076	426000	1
6	1120	432000	3
6	1137	438000	1
6	1146	444000	1
6	1147	450000	0
6	1148	456000	0
6	1165	462000	0
6	1182	468000	1
6	1199	474000	2
6	1208	480000	0
6	1225	486000	1
6	1258	492000	2
6	1267	498000	1
6	1281	504000	0
6	1298	510000	1
6	1347	516000	2
6	1383	522000	4
6	1392	528000	0
6	1417	534000	2
6	1418	540000	0
6	1459	546000	2
6	1484	552000	1
6	1525	558000	3
6	1550	564000	2
6	1551	570000	0
6	1552	576000	0
6	1553	582000	0
6	1602	588000	3
6	1619	594000	1
6	1641	600000	0
6	1661	606000	2
6	1662	612000	0
6	1671	618000	1
6	1709	624000	2
6	1758	630000	2
6	1799	636000	3
6	1819	642000	2
6	1820	648000	0
6	1821	654000	0
6	1838	660000	1
6	1839	666000	0
6	1856	672000	1
6	1889	678000	1
6	1906	684000	2
6	1915	690000	0
6	1924	696000	1
6	1933	702000	0
6	1942	708000	1
6	1959	714000	1
6	1960	720000	0
6	1961	726000	0
6	1978	732000	1
6	1987	738000	0
6	1996	744000	1
6	2021	750000	1
6	2038	756000	1
6	2055	762000	1
6	2101	768000	3
6	2137	774000	2
6	2154	780000	1
6	2171	786000	1
6	2180	792000	1
6	2189	798000	0
6	2198	804000	1
6	2215	810000	1
6	2261	816000	2
6	2281	822000	2
6	2282	828000	0
6	2291	834000	0
6	2308	840000	1
6	2333	846000	2
6	2350	852000	0
6	2383	858000	3
6	2384	864000	0
6	2401	870000	1
6	2410	876000	0
6	2419	882000	1
6	2428	888000	0
6	2453	894000	2
6	2470	900000	1
6	2471	906000	0
6	2472	912000	0
6	2489	918000	1
6	2490	924000	0
6	2491	930000	0
6	2500	936000	0
6	2525	942000	2
6	2558	948000	2
6	2583	954000	1
6	2600	960000	1
6	2609	966000	1
6	2626	972000	1
6	2643	978000	1
6	2676	984000	2
6	2677	990000	0
6	2686	996000	0
6	2735	1002000	3
6	2760	1008000	2
6	2769	1014000	0
6	2778	1020000	1
6	2779	1026000	0
6	2796	1032000	1
7	364	127637.852463365539	1
7	366	130996.80806186574	0
7	381	132412.920957061441	1
7	390	139912.477695106845	2
7	392	141653.643250426381	1
7	400	143694.861320598275	0
7	415	147409.94711912636	1
7	423	147840.154610741777	2
7	425	148466.889855747127	1
7	433	149492.443197869022	0
7	448	155681.382590491558	1
7	451	157211.399534669181	0
7	465	159720.835159659603	1
7	467	161463.576499475625	0
7	485	183035.768459584762	1
7	487	184040.160618823315	0
7	501	185146.916216338013	1
7	504	190799.725669431053	0
7	519	192100.732550168397	1
7	521	193312.889380717871	0
7	535	193556.558032161857	1
7	537	195185.922405656099	0
7	552	200702.93532098091	1
7	554	202989.52456122264	0
7	568	203426.142739364228	1
7	570	203701.914491406967	0
7	586	212435.628408398206	1
7	588	212935.544930802361	0
7	604	227666.279458601902	1
7	607	229646.658424809225	0
7	622	234649.942937999596	1
7	624	238232.072176740647	0
7	640	247366.220069091327	1
7	642	247539.008103167479	0
7	657	252176.961315777025	1
7	659	253001.982334267513	0
7	673	254362.216764527828	1
7	681	255669.478876826052	2
7	683	255694.037341445252	1
7	698	259284.703755610117	2
7	700	259380.725917051108	1
7	714	263970.891734838246	2
7	717	265776.933829306017	1
7	725	266768.075571340424	0
7	740	274076.67293997456	1
7	743	277982.384052020071	0
7	757	279003.628125565516	1
7	759	279691.607895355062	0
7	775	288215.370623439742	1
7	777	288599.962377888199	0
7	794	306401.576053846913	1
7	802	310922.525086580332	2
7	805	312234.48501707763	1
7	810	312870.537644658257	0
7	829	326094.743428744868	1
7	831	326264.60476649273	0
7	848	345947.596492717999	1
7	856	347390.990696589102	2
7	858	347731.911037700407	1
7	867	348478.348617673937	0
7	882	357682.078426524434	1
7	884	357767.771152573421	0
7	899	361285.03682165595	1
7	907	362104.354335074341	2
7	909	364931.047518098114	1
7	917	365963.472015538974	0
7	932	369116.646097764744	1
7	934	370400.88944313818	0
7	948	370904.357468235115	1
7	957	373251.035515440101	2
7	959	374894.726555438926	1
7	964	375001.303248624675	0
7	985	399686.658104965063	1
7	994	402881.004642823183	2
7	1001	403764.193145193007	1
7	1005	403811.92879672872	2
7	1012	404756.381700912198	1
7	1026	405760.397747671565	2
7	1028	406555.552428182086	1
7	1037	408670.924308569169	0
7	1052	418493.003945481139	1
7	1055	422244.495844669966	0
7	1072	425981.043183078477	1
7	1078	426129.826668024751	2
7	1080	426342.055198462139	1
7	1094	427022.316765511793	2
7	1096	427784.96421858598	1
7	1104	429438.844065984405	0
7	1118	431282.285800301513	1
7	1121	432179.623338031775	0
7	1135	436990.164455795447	1
7	1138	440344.136908247848	0
7	1155	460511.191224569833	1
7	1163	461136.480853010362	2
7	1166	463402.667637408979	1
7	1180	465911.630233555642	2
7	1183	468647.037528898612	1
7	1191	469477.281294512293	0
7	1206	478769.605061569752	1
7	1209	481240.113600982201	0
7	1223	484008.543562909744	1
7	1226	489075.717038851864	0
7	1240	489833.587429985292	1
7	1248	490085.906326783974	2
7	1250	491032.952744991873	1
7	1259	493399.665741839263	0
7	1274	501902.923508207229	1
7	1276	503803.595399946421	0
7	1291	508174.871356460179	1
7	1300	510198.640717660109	2
7	1302	511341.570912298808	1
7	1315	513158.52567311335	0
7	1319	513373.36075406141	1
7	1335	514891.426818915224	2
7	1340	515312.220007364504	3
7	1342	515962.246103151977	2
7	1351	518381.439919946864	1
7	1365	519974.600246197018	2
7	1367	520530.39028069585	1
7	1375	521070.475264478519	0
7	1390	527911.092682487891	1
7	1393	528133.168207172758	0
7	1407	529726.713362901982	1
7	1409	530336.243330680265	0
7	1425	541831.076966846735	1
7	1432	542130.995495322471	0
7	1436	542453.058758512985	1
7	1443	543165.703410856937	0
7	1457	545492.760706142717	1
7	1460	546580.810450073949	0
7	1474	549018.222420146354	1
7	1482	551618.740585675613	2
7	1485	552168.048832830874	1
7	1493	553103.578471434536	0
7	1507	555240.090819548649	1
7	1515	556223.522576963538	2
7	1517	557251.496181400456	1
7	1526	558111.389220397813	0
7	1540	561159.488622854369	1
7	1542	562293.891741181899	0
7	1560	582895.774374431765	1
7	1571	584339.038498624923	2
7	1576	584873.718642066952	3
7	1578	585047.515013998147	2
7	1586	585860.093739346269	1
7	1594	587548.036347606797	0
7	1609	589191.559962102024	1
7	1611	590405.484958823456	0
7	1626	596036.225646054096	1
7	1634	599041.182079068017	2
7	1636	599881.532264126881	1
7	1645	600561.284462943273	0
7	1659	604014.380777592965	1
7	1663	616367.932852731875	0
7	1678	618812.972352942379	1
7	1686	619330.770420029104	2
7	1688	619626.938423458327	1
7	1696	619955.850825050645	0
7	1711	624247.170320876329	1
7	1719	624645.752102611661	2
7	1730	627107.760058729634	3
7	1734	627217.958329059384	2
7	1738	627746.711078803039	3
7	1745	628990.169327631217	2
7	1753	629427.180658292648	1
7	1762	630725.441219510371	0
7	1776	631282.498666188845	1
7	1778	632455.491290601348	0
7	1792	633281.970196510805	1
7	1801	636561.536438153829	2
7	1803	638156.172119398714	1
7	1811	640610.019121448227	0
7	1828	657614.894588109537	1
7	1830	658477.079089422267	0
7	1846	668869.975545999246	1
7	1848	671416.505256459533	0
7	1863	673938.378427660716	1
7	1871	675878.4204506865	2
7	1873	676435.239449281828	1
7	1887	677563.467441676455	2
7	1890	679131.565329542861	1
7	1898	683062.195303242536	0
7	1913	688808.5678764383	1
7	1916	691869.407347761886	0
7	1931	701240.233636821797	1
7	1934	702721.977824618781	0
7	1949	711629.060771746845	1
7	1951	713268.19556193294	0
7	1968	727429.481960776637	1
7	1970	728955.261519308909	0
7	1985	733414.174967760181	1
7	1988	741138.056536472493	0
7	2003	745142.951703672329	1
7	2005	745971.919631196476	0
7	2019	748777.704329054186	1
7	2028	754055.720329288266	2
7	2030	755288.188025370328	1
7	2039	757540.70935236236	0
7	2053	757812.204647791907	1
7	2062	764017.145830112296	2
7	2070	764742.551605106858	3
7	2072	764744.043500674943	2
7	2080	766517.403165166253	1
7	2085	766714.808298498191	0
7	2103	768120.306732406112	1
7	2110	768705.73121718509	0
7	2114	768856.554926646798	1
7	2121	769565.868171826578	0
7	2135	770985.04018666748	1
7	2138	774542.421896403012	0
7	2152	777569.881280480157	1
7	2155	780247.858407550841	0
7	2169	785773.951955313246	1
7	2172	791252.519369316034	0
7	2187	796534.984620087687	1
7	2190	798043.294275052155	0
7	2205	807446.969883283284	1
7	2207	808453.039860554573	0
7	2222	810588.196312736674	1
7	2230	810745.697097716834	2
7	2238	811697.48576369169	3
7	2240	814010.730470963025	2
7	2248	814941.959458132285	1
7	2263	816130.642923007732	2
7	2265	819379.85293816054	1
7	2273	820960.187033502728	0
7	2289	833800.815347997323	1
7	2292	836356.947823723648	0
7	2306	839413.178037135539	1
7	2309	840831.654931981051	0
7	2323	843843.246639930806	1
7	2325	844087.015488451588	0
7	2343	851167.681839839643	1
7	2348	851245.021752935177	2
7	2351	852269.527914431238	1
7	2365	853275.701512494234	2
7	2367	853340.012962377068	1
7	2375	854433.684055050413	0
7	2391	865389.556127866741	1
7	2393	867149.177574825317	0
7	2408	874676.599146065827	1
7	2411	879756.811833153381	0
7	2426	887924.137067728437	1
7	2435	889548.601455887772	2
7	2437	890240.129958091037	1
7	2445	892540.310833485435	0
7	2460	895271.799182044805	1
7	2462	896093.829894981619	0
7	2479	914173.712004051786	1
7	2481	914521.109431585665	0
7	2498	933078.592960373939	1
7	2501	936636.238778276701	0
7	2515	940270.148085542624	1
7	2517	940450.142342727087	0
7	2535	945663.743936203456	1
7	2540	945956.666541181523	2
7	2542	946014.284902967318	1
7	2550	946983.198497785311	0
7	2565	950622.210746977227	1
7	2567	951387.432753566264	0
7	2581	952792.721875252777	1
7	2584	955709.915338451581	0
7	2598	957885.910757117472	1
7	2601	962025.728837143139	0
7	2616	970786.406862449701	1
7	2618	971781.742280476436	0
7	2633	974122.539994062904	1
7	2635	977815.511340638689	0
7	2650	979133.711450047878	1
7	2657	980065.342911880175	0
7	2661	980165.178165216935	1
7	2668	980689.502324190388	0
7	2684	993324.825613439745	1
7	2696	997416.631565230394	2
7	2701	997587.169161521658	3
7	2703	997689.78621821934	2
7	2711	999749.300711007646	1
7	2719	1000700.396425629173	0
7	2733	1001336.226145578769	1
7	2736	1002063.535401655689	0
7	2750	1004028.687133245709	1
7	2752	1004615.814576278018	0
7	2767	1010637.042693957097	1
7	2770	1015973.685264304589	0
7	2786	1026844.313072678695	1
7	2788	1028538.702190258265	0
