version 2
run QueueMeasurement-64-20170105-15:39:54-5595
attr configname QueueMeasurement
attr datetime 20170105-15:39:54
attr experiment QueueMeasurement
attr inifile queueStudy.ini
attr iterationvars ""
attr iterationvars2 $repetition=64
attr measurement ""
attr network SimNetwork
attr processid 5595
attr repetition 64
attr replication #64
attr resultdir results
attr runnumber 64
attr seedset 64
param SimNetwork.a.parkingLot.parkingDelay exponential(45min)
param SimNetwork.a.runway.landingTime exponential(5min)
param SimNetwork.a.runway.takeoffTime exponential(5min)
param SimNetwork.a.runway.throughputCheckInterval 100min
param SimNetwork.wg.interArrivalTime exponential(100min)

vector 5  SimNetwork.a.runway  landedThroughput:vector  ETV
attr source  landedThroughputSignal
vector 6  SimNetwork.a.runway  tookoffThroughput:vector  ETV
attr source  tookoffThroughputSignal
vector 2  SimNetwork.a.landingQueue  queueLength:vector  ETV
attr source  queueLengthSignal
vector 1  SimNetwork.a.landingQueue  queueTime:vector  ETV
attr source  queueTimeSignal
vector 7  SimNetwork.a.parkingLot  parkingOccupancy:vector  ETV
attr source  parkingOccupancy
vector 4  SimNetwork.a.takeoffQueue  queueLength:vector  ETV
attr source  queueLengthSignal
vector 3  SimNetwork.a.takeoffQueue  queueTime:vector  ETV
attr source  queueTimeSignal
vector 0  SimNetwork.wg  responseTime:vector  ETV
attr source  responseTimeSignal
0	333	132498.945795556509	17920.939079507
0	341	133201.749350630369	7160.6425660121
0	366	138474.753775011562	4242.096524201
0	374	138931.834495986327	8002.2173756848
0	399	148905.72837232963	11965.523554756
0	409	157716.811446374255	14919.043617739
0	428	177429.500011712389	29342.932062228
0	453	182852.219988550946	3101.7503796065
0	461	185038.993827207247	9710.4836185026
0	486	188978.217414675535	2239.4253141898
0	494	190676.267428066957	8564.1468623525
0	514	196344.751506035556	8702.9065435294
0	527	197040.467056789516	2272.5670017328
0	545	204616.045650396302	8347.8377088821
0	564	209283.944065737932	5775.7024938092
0	586	210211.747033533517	2015.7978119295
0	594	215287.347995218469	6007.3140674247
0	611	217038.097919774025	7254.307961868
0	659	229907.332481351016	5585.6166061366
0	664	229912.221346005585	14427.320026872
0	669	229954.551692435404	4213.2793143162
0	686	239678.888077535668	13448.636256343
0	695	243009.708919156783	16096.810419045
0	719	245556.66544911379	1979.7621836558
0	736	249691.658508336705	4481.667414181
0	753	252946.234797409681	5373.0065844567
0	761	253915.134713300344	15888.733683568
0	794	259521.47410992912	3223.7177692725
0	802	261797.330190593252	10387.662148116
0	811	264969.53431646225	8508.1312532165
0	831	290621.100078302523	32919.508189536
0	847	291589.81027833045	7030.1511529652
0	864	298202.753088646648	7486.2882611901
0	883	315163.844736887825	21200.806180096
0	900	318253.144702764778	8197.7944610434
0	923	324270.073432520365	8263.4830342279
0	941	324659.44219645261	5968.2390851866
0	949	325189.602539423953	1295.1604014992
0	973	328650.851845355945	1721.4507361343
0	990	330012.498335521796	5909.4147481223
0	998	331060.276195827323	3677.9430614684
0	1014	334625.153345564684	5537.7387551723
0	1031	338695.598413991163	5732.5865507237
0	1047	340672.189587096191	3365.1612936412
0	1072	342514.321733285921	1450.083014274
0	1080	344882.594344123172	6159.3298060661
0	1105	350596.641914850283	2097.7778728298
0	1114	354406.207097530545	12222.854855876
0	1138	357183.269957029143	8151.6662665756
0	1174	360358.969575918371	5379.6573388274
0	1182	360960.564938219179	2064.3202537526
0	1187	361431.757744187591	3675.8922430338
0	1206	363937.841283839632	7228.2779800434
0	1211	364165.825238777384	4756.7599343528
0	1246	378742.595243784315	16906.589956801
0	1254	379343.917785744846	1755.5554731393
0	1270	383614.419529313634	10581.096931818
0	1279	384433.441971895849	6186.5352679098
0	1311	388541.541900104306	1940.9758414642
0	1328	391596.566185763197	3713.0465738766
0	1347	394465.559947690979	6527.2446974324
0	1355	394736.953737541211	14307.572611568
0	1360	394823.439785843665	3800.0483608691
0	1389	407243.695944562734	6096.6492275209
0	1403	408353.814796488162	3621.4494985925
0	1411	412060.714994166689	18515.2080348
0	1438	431048.809416245223	24558.908350815
0	1455	432455.878527615968	2065.3704919794
0	1471	433981.293228362971	13199.38782675
0	1479	435038.504316451833	3901.3032971261
0	1514	454018.143591800371	21300.91305131
0	1530	455910.918378081612	5692.8195682911
0	1556	462383.259281846606	9062.2148278784
0	1564	463273.510005849362	1681.8282272429
0	1572	463966.955104749718	8350.4388846819
0	1591	465527.565798649931	16648.731427094
0	1596	465731.326361967381	3898.4685845939
0	1613	468735.567165329531	3939.8153762468
0	1631	484149.652863613824	17376.596629888
0	1648	487074.766205357959	5160.2820027958
0	1669	502615.948935364458	17005.472712487
0	1683	506325.430943943382	10174.949926109
0	1707	508319.446801522261	6472.3698323762
0	1716	510320.426331305987	3466.7909165298
0	1732	512819.486187143989	4713.9268656877
0	1748	514958.166176406637	3138.2379685464
0	1781	519928.268521155677	688.49527683977
0	1797	521968.295220728717	8510.4687167585
0	1809	523144.870125814901	3852.6400168883
0	1814	523322.262352402505	7984.8204200231
0	1831	528860.823171578752	8622.7641622063
0	1848	537100.746663356795	10121.026475602
0	1866	548171.41861854398	12338.029405145
0	1893	564427.803797520357	17121.901443676
0	1901	568904.587049525946	5668.4543736233
0	1918	575077.360126973721	11337.766040757
0	1938	577222.308306045053	4689.4820360954
0	1951	579494.103413153883	2486.1448969216
0	1969	589485.28748395859	12411.385250033
0	1995	600310.911371032884	1549.5140141247
0	2003	603681.342994054515	18657.333792466
0	2029	613226.534087058549	4012.6517590035
0	2037	616103.396170885173	16182.135958002
0	2055	625265.69500457117	13353.91218767
0	2075	632090.040021229377	15894.474388278
0	2088	633250.150997693277	2295.4052621111
0	2105	638738.662996521843	6702.0221516131
0	2123	650641.766772148543	17199.170058748
0	2149	660445.072789384692	16276.477098788
0	2165	664549.675391974613	5974.7611709536
0	2173	665293.113240253443	5962.835884934
0	2191	672129.262888119328	8333.1295081215
0	2215	675150.027213931811	1951.2148307138
0	2223	676358.064933236522	4952.4921508473
0	2256	681415.260804030133	3870.6109139613
0	2264	683056.069753888718	3715.0336176823
0	2272	683485.555229977783	9738.1133434112
0	2290	691741.701313463298	12386.232418851
0	2310	698560.56740502931	8223.4909465418
0	2334	701368.351844905134	2896.0590154092
0	2339	701842.019651198557	8483.9990592381
0	2357	709538.141969607445	10595.629552822
0	2373	713624.45564685151	11740.883340477
0	2390	719676.317503681715	8819.4935349845
0	2409	734237.022123559114	17167.521762794
0	2429	741918.256236652537	9727.1166510069
0	2454	745791.300764025295	4046.5476090151
0	2459	745836.049546927552	5702.4957396203
0	2475	748672.361361964938	5737.2094607439
0	2501	760848.071845136639	13140.960413507
0	2509	761636.616800979899	2755.2524776364
0	2526	767584.207401460528	8357.6934841494
0	2543	771770.343956980198	5065.7014764807
0	2561	781666.67778565725	12331.18367425
0	2586	790651.774307435041	17785.334163483
0	2594	791452.197316852967	6995.8104596077
0	2620	798819.48517166565	8883.3445919949
0	2628	802258.033272835166	7303.6442775114
0	2645	808762.177195694149	11230.420644827
0	2663	820638.951631640577	16640.902414185
0	2688	822755.362641700906	4023.5941266845
0	2696	823404.685210941127	1709.1389501441
0	2715	842244.974341937574	19790.524760172
0	2735	847665.389418040992	13719.019308809
0	2748	851017.525249068956	4631.804720851
0	2765	854477.78142545931	7225.0118605403
0	2784	875349.619257216647	23748.784399587
0	2801	879109.70871388497	6270.6935935419
0	2831	916315.828775887266	39997.19230372
0	2848	919408.820596890205	4986.1032860792
0	2856	922622.417035300895	7748.542181021
0	2882	932746.326610978168	6535.1478571649
0	2901	934203.574104404861	17304.650431764
0	2906	934299.731505097189	1981.1462996716
0	2925	948323.978832359246	14709.140986533
0	2941	949147.010240590529	1760.8213936713
0	2965	952783.502602512038	2184.9361867479
0	2982	955286.436997433619	6785.0789770708
0	2990	958016.449308323755	6224.4939219111
0	3007	961298.636020241536	6926.2176686735
0	3024	971564.258150872354	12723.251892855
0	3041	973964.839665414577	3692.4843955113
0	3083	987366.571081637972	14845.247510593
0	3091	988328.128222844587	3622.7173764497
0	3100	990306.277310022799	3645.9339541279
0	3108	992649.756597404186	13354.065702028
0	3126	1006003.913432298875	19014.718389971
0	3147	1014068.092679853567	16567.401057823
0	3160	1015771.980737751886	7917.4808297794
0	3177	1025097.081263734021	11575.173296223
0	3194	1028905.08339467769	5694.1735424454
1	313	126041.106784618287	0
1	321	130929.617120301553	0
1	346	134232.657250810569	0
1	354	136940.204817573631	0
1	379	142797.767828635279	0
1	388	148086.567949484339	0
1	417	175328.510208704647	0
1	433	179750.469608944494	0
1	442	182112.120565714464	0
1	467	186738.792100485738	0
1	475	187641.844962506183	0
1	500	194767.900055056699	0
1	516	196344.751506035556	76.543564521388
1	533	203508.241571928706	0
1	550	208195.949221603998	0
1	566	209283.944065737932	3.910137944114
1	574	209840.873510454076	57.083552548067
1	599	215484.901319133985	0
1	617	224321.715875214427	0
1	625	225741.272378119236	0
1	636	226944.831643892962	714.57982270049
1	647	227959.203287349105	1046.3047872372
1	675	238026.401029732168	0
1	700	243576.90326545795	0
1	708	245209.991094155658	0
1	725	247573.228212952945	0
1	741	251409.668042477456	0
1	766	256297.756340656668	0
1	774	257463.471023422672	1002.0679601769
1	783	258040.058825345817	338.4669365796
1	819	284559.659125365207	0
1	836	290716.464827456549	0
1	852	293963.038556791817	0
1	871	310055.350241721405	0
1	888	316006.590398292421	0
1	905	318691.20311126606	0
1	925	324270.073432520365	375.63129459558
1	930	324441.68424337839	338.60065597888
1	954	326929.401109221661	0
1	962	327967.531803091408	585.19866873243
1	978	329087.414590392405	0
1	1003	332963.011863267489	0
1	1020	337307.02829345496	0
1	1036	338723.26453805709	0
1	1052	341064.238719011952	0
1	1061	342183.352241654078	0
1	1086	348498.864042020484	0
1	1094	349031.603690453586	0
1	1119	354979.312237090984	0
1	1127	356709.563303796208	0
1	1143	357755.865501153805	0
1	1151	358896.244684466589	0
1	1159	359409.065304424546	0
1	1192	361836.005286983267	0
1	1218	373033.322597495905	0
1	1226	377588.362312605583	0
1	1235	378246.906703986013	0
1	1259	380429.38112597273	0
1	1284	386600.56605864008	0
1	1292	387883.519611886584	0
1	1300	388258.938508816828	320.62325855827
1	1317	391023.391424974566	0
1	1333	393545.506959367072	0
1	1366	401147.046717041836	0
1	1375	404732.365297895686	0
1	1391	407243.695944562734	753.79487913261
1	1418	420781.905401612567	0
1	1427	430390.508035636599	0
1	1443	431137.201019325729	0
1	1460	432717.230540490425	0
1	1486	448878.834371556263	0
1	1495	450218.098809790468	0
1	1503	453321.044453968174	0
1	1519	455616.516220067798	0
1	1536	461591.681778606434	0
1	1544	461832.857777373435	0
1	1577	464795.751789082751	0
1	1601	466773.056233725503	0
1	1620	481914.484202562197	0
1	1636	485610.476222877249	0
1	1654	496150.481017834741	0
1	1671	502615.948935364458	768.87196621836
1	1688	506853.635414776169	0
1	1696	508105.559321456286	0
1	1721	511819.928207860216	0
1	1737	513457.826503970202	0
1	1753	515337.441932379356	0
1	1762	519239.77324431591	0
1	1770	519538.271747272833	246.04163834625
1	1786	520238.059009372437	0
1	1819	526979.720187755195	0
1	1837	535833.389213399123	0
1	1855	547305.902353844703	0
1	1873	563236.132675902667	0
1	1881	563739.594086217035	0
1	1907	572532.826269949653	0
1	1924	577007.958516232256	0
1	1940	577222.308306045053	148.40607211974
1	1957	585024.00920158829	0
1	1975	598761.397356908212	0
1	1983	599921.260212882698	0
1	2009	609213.882328055076	0
1	2017	611911.782816901292	0
1	2042	616195.565632951343	0
1	2061	630954.745735582221	0
1	2077	632090.040021229377	53.39917632062
1	2093	633442.596713400696	0
1	2111	644168.595690596734	0
1	2129	658574.914221020986	0
1	2137	659330.277355319455	0
1	2154	663796.133379997779	0
1	2179	671405.572782389225	0
1	2196	673198.812383218044	0
1	2204	673747.441886566592	0
1	2228	677544.649890068855	0
1	2237	679341.036136206391	0
1	2245	680529.991400835754	1174.522506223
1	2279	690337.076458487509	0
1	2295	693358.020591960441	0
1	2312	698560.56740502931	88.274575533383
1	2320	698942.512416785527	0
1	2344	701883.572306374988	0
1	2362	710856.823968697216	0
1	2379	717069.500360765406	0
1	2398	732191.139585645632	0
1	2415	740133.553807307244	0
1	2431	741918.256236652537	173.50308164237
1	2439	742935.15190122105	0
1	2464	747707.111431629924	0
1	2482	758881.364323343506	0
1	2490	759226.513917311121	0
1	2515	766704.642480499473	0
1	2532	769335.494111407379	0
1	2548	772866.440143951825	0
1	2566	784456.386857245253	0
1	2575	789936.140579670785	0
1	2600	794954.388995323753	0
1	2608	797531.756550867639	0
1	2633	803998.049217455917	0
1	2652	818731.768515016385	0
1	2668	821695.546260797021	0
1	2677	822454.449581765252	0
1	2702	833946.37010923243	0
1	2721	846385.720528217924	0
1	2737	847665.389418040992	412.61985312202
1	2753	851600.834857629338	0
1	2773	872839.015120343098	0
1	2790	876318.636472166766	0
1	2812	914422.717310811046	0
1	2820	915524.258045003857	650.38319072395
1	2836	916898.923672641241	0
1	2862	926211.178753813259	0
1	2871	932318.585205425601	0
1	2887	933614.83784582657	0
1	2913	947386.188846919188	0
1	2930	948501.358020362841	0
1	2946	950598.566415764156	0
1	2954	951791.955386412677	0
1	2971	954372.418351568046	0
1	2995	958841.006258017727	0
1	3013	970272.355269903307	0
1	3030	972521.323571044529	0
1	3047	979295.690895376639	0
1	3056	984705.410846394873	0
1	3064	986660.343355894869	0
1	3072	987025.507781494277	36.312739166795
1	3114	997500.691622030886	0
1	3131	1007854.499907972462	0
1	3149	1014068.092679853567	546.18471234273
1	3166	1023210.909852232338	0
1	3183	1027224.204891100423	0
1	3200	1032828.553750748149	0
2	311	126041.106784618287	1
2	313	126041.106784618287	0
2	319	130929.617120301553	1
2	321	130929.617120301553	0
2	344	134232.657250810569	1
2	346	134232.657250810569	0
2	352	136940.204817573631	1
2	354	136940.204817573631	0
2	377	142797.767828635279	1
2	379	142797.767828635279	0
2	386	148086.567949484339	1
2	388	148086.567949484339	0
2	415	175328.510208704647	1
2	417	175328.510208704647	0
2	431	179750.469608944494	1
2	433	179750.469608944494	0
2	440	182112.120565714464	1
2	442	182112.120565714464	0
2	465	186738.792100485738	1
2	467	186738.792100485738	0
2	473	187641.844962506183	1
2	475	187641.844962506183	0
2	498	194767.900055056699	1
2	500	194767.900055056699	0
2	511	196268.207941514168	1
2	516	196344.751506035556	0
2	531	203508.241571928706	1
2	533	203508.241571928706	0
2	548	208195.949221603998	1
2	550	208195.949221603998	0
2	561	209280.033927793818	1
2	566	209283.944065737932	0
2	569	209783.789957906009	1
2	574	209840.873510454076	0
2	597	215484.901319133985	1
2	599	215484.901319133985	0
2	615	224321.715875214427	1
2	617	224321.715875214427	0
2	623	225741.272378119236	1
2	625	225741.272378119236	0
2	628	226230.251821192469	1
2	631	226912.89850011195	2
2	636	226944.831643892962	1
2	647	227959.203287349105	0
2	673	238026.401029732168	1
2	675	238026.401029732168	0
2	698	243576.90326545795	1
2	700	243576.90326545795	0
2	706	245209.991094155658	1
2	708	245209.991094155658	0
2	723	247573.228212952945	1
2	725	247573.228212952945	0
2	739	251409.668042477456	1
2	741	251409.668042477456	0
2	764	256297.756340656668	1
2	766	256297.756340656668	0
2	769	256461.403063245765	1
2	774	257463.471023422672	0
2	777	257701.591888766219	1
2	783	258040.058825345817	0
2	817	284559.659125365207	1
2	819	284559.659125365207	0
2	834	290716.464827456549	1
2	836	290716.464827456549	0
2	850	293963.038556791817	1
2	852	293963.038556791817	0
2	869	310055.350241721405	1
2	871	310055.350241721405	0
2	886	316006.590398292421	1
2	888	316006.590398292421	0
2	903	318691.20311126606	1
2	905	318691.20311126606	0
2	916	323894.44213792479	1
2	920	324103.083587399509	2
2	925	324270.073432520365	1
2	930	324441.68424337839	0
2	952	326929.401109221661	1
2	954	326929.401109221661	0
2	957	327382.333134358973	1
2	962	327967.531803091408	0
2	976	329087.414590392405	1
2	978	329087.414590392405	0
2	1001	332963.011863267489	1
2	1003	332963.011863267489	0
2	1018	337307.02829345496	1
2	1020	337307.02829345496	0
2	1034	338723.26453805709	1
2	1036	338723.26453805709	0
2	1050	341064.238719011952	1
2	1052	341064.238719011952	0
2	1059	342183.352241654078	1
2	1061	342183.352241654078	0
2	1084	348498.864042020484	1
2	1086	348498.864042020484	0
2	1092	349031.603690453586	1
2	1094	349031.603690453586	0
2	1117	354979.312237090984	1
2	1119	354979.312237090984	0
2	1125	356709.563303796208	1
2	1127	356709.563303796208	0
2	1141	357755.865501153805	1
2	1143	357755.865501153805	0
2	1149	358896.244684466589	1
2	1151	358896.244684466589	0
2	1157	359409.065304424546	1
2	1159	359409.065304424546	0
2	1190	361836.005286983267	1
2	1192	361836.005286983267	0
2	1216	373033.322597495905	1
2	1218	373033.322597495905	0
2	1224	377588.362312605583	1
2	1226	377588.362312605583	0
2	1233	378246.906703986013	1
2	1235	378246.906703986013	0
2	1257	380429.38112597273	1
2	1259	380429.38112597273	0
2	1282	386600.56605864008	1
2	1284	386600.56605864008	0
2	1290	387883.519611886584	1
2	1292	387883.519611886584	0
2	1295	387938.315250258558	1
2	1300	388258.938508816828	0
2	1315	391023.391424974566	1
2	1317	391023.391424974566	0
2	1331	393545.506959367072	1
2	1333	393545.506959367072	0
2	1364	401147.046717041836	1
2	1366	401147.046717041836	0
2	1373	404732.365297895686	1
2	1375	404732.365297895686	0
2	1386	406489.901065430127	1
2	1391	407243.695944562734	0
2	1416	420781.905401612567	1
2	1418	420781.905401612567	0
2	1425	430390.508035636599	1
2	1427	430390.508035636599	0
2	1441	431137.201019325729	1
2	1443	431137.201019325729	0
2	1458	432717.230540490425	1
2	1460	432717.230540490425	0
2	1484	448878.834371556263	1
2	1486	448878.834371556263	0
2	1493	450218.098809790468	1
2	1495	450218.098809790468	0
2	1501	453321.044453968174	1
2	1503	453321.044453968174	0
2	1517	455616.516220067798	1
2	1519	455616.516220067798	0
2	1534	461591.681778606434	1
2	1536	461591.681778606434	0
2	1542	461832.857777373435	1
2	1544	461832.857777373435	0
2	1575	464795.751789082751	1
2	1577	464795.751789082751	0
2	1599	466773.056233725503	1
2	1601	466773.056233725503	0
2	1618	481914.484202562197	1
2	1620	481914.484202562197	0
2	1634	485610.476222877249	1
2	1636	485610.476222877249	0
2	1652	496150.481017834741	1
2	1654	496150.481017834741	0
2	1666	501847.076969146101	1
2	1671	502615.948935364458	0
2	1686	506853.635414776169	1
2	1688	506853.635414776169	0
2	1694	508105.559321456286	1
2	1696	508105.559321456286	0
2	1719	511819.928207860216	1
2	1721	511819.928207860216	0
2	1735	513457.826503970202	1
2	1737	513457.826503970202	0
2	1751	515337.441932379356	1
2	1753	515337.441932379356	0
2	1760	519239.77324431591	1
2	1762	519239.77324431591	0
2	1765	519292.230108926579	1
2	1770	519538.271747272833	0
2	1784	520238.059009372437	1
2	1786	520238.059009372437	0
2	1817	526979.720187755195	1
2	1819	526979.720187755195	0
2	1835	535833.389213399123	1
2	1837	535833.389213399123	0
2	1853	547305.902353844703	1
2	1855	547305.902353844703	0
2	1871	563236.132675902667	1
2	1873	563236.132675902667	0
2	1879	563739.594086217035	1
2	1881	563739.594086217035	0
2	1905	572532.826269949653	1
2	1907	572532.826269949653	0
2	1922	577007.958516232256	1
2	1924	577007.958516232256	0
2	1935	577073.902233925318	1
2	1940	577222.308306045053	0
2	1955	585024.00920158829	1
2	1957	585024.00920158829	0
2	1973	598761.397356908212	1
2	1975	598761.397356908212	0
2	1981	599921.260212882698	1
2	1983	599921.260212882698	0
2	2007	609213.882328055076	1
2	2009	609213.882328055076	0
2	2015	611911.782816901292	1
2	2017	611911.782816901292	0
2	2040	616195.565632951343	1
2	2042	616195.565632951343	0
2	2059	630954.745735582221	1
2	2061	630954.745735582221	0
2	2072	632036.640844908757	1
2	2077	632090.040021229377	0
2	2091	633442.596713400696	1
2	2093	633442.596713400696	0
2	2109	644168.595690596734	1
2	2111	644168.595690596734	0
2	2127	658574.914221020986	1
2	2129	658574.914221020986	0
2	2135	659330.277355319455	1
2	2137	659330.277355319455	0
2	2152	663796.133379997779	1
2	2154	663796.133379997779	0
2	2177	671405.572782389225	1
2	2179	671405.572782389225	0
2	2194	673198.812383218044	1
2	2196	673198.812383218044	0
2	2202	673747.441886566592	1
2	2204	673747.441886566592	0
2	2226	677544.649890068855	1
2	2228	677544.649890068855	0
2	2235	679341.036136206391	1
2	2237	679341.036136206391	0
2	2240	679355.468894612711	1
2	2245	680529.991400835754	0
2	2277	690337.076458487509	1
2	2279	690337.076458487509	0
2	2293	693358.020591960441	1
2	2295	693358.020591960441	0
2	2307	698472.292829495927	1
2	2312	698560.56740502931	0
2	2318	698942.512416785527	1
2	2320	698942.512416785527	0
2	2342	701883.572306374988	1
2	2344	701883.572306374988	0
2	2360	710856.823968697216	1
2	2362	710856.823968697216	0
2	2377	717069.500360765406	1
2	2379	717069.500360765406	0
2	2396	732191.139585645632	1
2	2398	732191.139585645632	0
2	2413	740133.553807307244	1
2	2415	740133.553807307244	0
2	2426	741744.753155010168	1
2	2431	741918.256236652537	0
2	2437	742935.15190122105	1
2	2439	742935.15190122105	0
2	2462	747707.111431629924	1
2	2464	747707.111431629924	0
2	2480	758881.364323343506	1
2	2482	758881.364323343506	0
2	2488	759226.513917311121	1
2	2490	759226.513917311121	0
2	2513	766704.642480499473	1
2	2515	766704.642480499473	0
2	2530	769335.494111407379	1
2	2532	769335.494111407379	0
2	2546	772866.440143951825	1
2	2548	772866.440143951825	0
2	2564	784456.386857245253	1
2	2566	784456.386857245253	0
2	2573	789936.140579670785	1
2	2575	789936.140579670785	0
2	2598	794954.388995323753	1
2	2600	794954.388995323753	0
2	2606	797531.756550867639	1
2	2608	797531.756550867639	0
2	2631	803998.049217455917	1
2	2633	803998.049217455917	0
2	2650	818731.768515016385	1
2	2652	818731.768515016385	0
2	2666	821695.546260797021	1
2	2668	821695.546260797021	0
2	2675	822454.449581765252	1
2	2677	822454.449581765252	0
2	2700	833946.37010923243	1
2	2702	833946.37010923243	0
2	2719	846385.720528217924	1
2	2721	846385.720528217924	0
2	2732	847252.769564918969	1
2	2737	847665.389418040992	0
2	2751	851600.834857629338	1
2	2753	851600.834857629338	0
2	2771	872839.015120343098	1
2	2773	872839.015120343098	0
2	2788	876318.636472166766	1
2	2790	876318.636472166766	0
2	2810	914422.717310811046	1
2	2812	914422.717310811046	0
2	2815	914873.874854279911	1
2	2820	915524.258045003857	0
2	2834	916898.923672641241	1
2	2836	916898.923672641241	0
2	2860	926211.178753813259	1
2	2862	926211.178753813259	0
2	2869	932318.585205425601	1
2	2871	932318.585205425601	0
2	2885	933614.83784582657	1
2	2887	933614.83784582657	0
2	2911	947386.188846919188	1
2	2913	947386.188846919188	0
2	2928	948501.358020362841	1
2	2930	948501.358020362841	0
2	2944	950598.566415764156	1
2	2946	950598.566415764156	0
2	2952	951791.955386412677	1
2	2954	951791.955386412677	0
2	2969	954372.418351568046	1
2	2971	954372.418351568046	0
2	2993	958841.006258017727	1
2	2995	958841.006258017727	0
2	3011	970272.355269903307	1
2	3013	970272.355269903307	0
2	3028	972521.323571044529	1
2	3030	972521.323571044529	0
2	3045	979295.690895376639	1
2	3047	979295.690895376639	0
2	3054	984705.410846394873	1
2	3056	984705.410846394873	0
2	3062	986660.343355894869	1
2	3064	986660.343355894869	0
2	3067	986989.195042327482	1
2	3072	987025.507781494277	0
2	3112	997500.691622030886	1
2	3114	997500.691622030886	0
2	3129	1007854.499907972462	1
2	3131	1007854.499907972462	0
2	3143	1013521.907967510832	1
2	3149	1014068.092679853567	0
2	3164	1023210.909852232338	1
2	3166	1023210.909852232338	0
2	3181	1027224.204891100423	1
2	3183	1027224.204891100423	0
2	3198	1032828.553750748149	1
2	3200	1032828.553750748149	0
3	330	132432.11591865024	0
3	338	132949.245735560231	0
3	363	138346.873312297041	0
3	371	138889.729675669801	0
3	396	148850.669422099057	581.03823804669
3	406	157343.813915729951	0
3	425	177402.211628033606	0
3	450	182726.61087043219	0
3	458	184536.649581648035	0
3	483	188738.23225501822	0
3	491	189665.748582609587	0
3	508	196261.874241839078	0
3	524	196756.304974726401	0
3	542	204428.216508265576	0
3	558	209110.054772698143	0
3	583	210151.741902304926	129.81006339664
3	591	215167.760770969938	0
3	608	216946.65169967271	0
3	656	229680.117085998679	1827.3792021244
3	661	229907.332481351016	1960.3695294108
3	666	229912.221346005585	1826.9970840152
3	683	239136.430208896316	709.59282729678
3	692	242157.006176143966	0
3	716	245519.721015492257	0
3	733	249054.399929226074	0
3	750	252627.316873394176	0
3	758	253797.463933250062	0
3	791	259337.26448032885	0
3	799	261767.46455645568	0
3	808	264364.70952456291	0
3	828	290127.171520466727	0
3	844	291313.11842763559	0
3	861	297967.042707734777	0
3	880	314759.788365548773	0
3	897	318238.679339299063	0
3	913	323744.612985104295	0
3	938	324530.882785138104	69.81378894194
3	946	324670.519554185241	0
3	970	328617.629877270208	0
3	986	329984.849899628923	0
3	995	331011.04804827098	0
3	1011	334516.527380943721	0
3	1028	338544.082971172036	0
3	1044	340136.744640923041	0
3	1069	342317.684302473221	0
3	1077	344756.09442303199	0
3	1102	350313.832491571418	0
3	1111	354386.810575663127	0
3	1135	356973.902589871812	0
3	1168	360194.983821937636	0
3	1176	360358.969575918371	63.049513035741
3	1184	360960.564938219179	200.2292461241
3	1200	363050.711601098845	0
3	1208	363937.841283839632	86.53913558682
3	1243	378719.569810347393	0
3	1251	379278.264693534385	0
3	1267	383535.39528038191	0
3	1276	384295.21846160354	0
3	1308	388405.989093255358	0
3	1325	391478.407546987694	0
3	1341	394368.641602403406	0
3	1349	394465.559947690979	36.112302124075
3	1357	394736.953737541211	79.899547232717
3	1383	406039.231729560057	0
3	1400	408331.255558495493	0
3	1408	411845.108691870661	0
3	1435	430793.303868978543	0
3	1452	432116.289761699533	0
3	1468	433688.226452669425	574.55040141618
3	1476	435011.454642496677	0
3	1511	453594.247015382484	80.202224745334
3	1527	455871.934661505817	87.297410019368
3	1553	462184.894147252769	0
3	1561	462565.49754808896	0
3	1569	463549.836766675913	0
3	1585	465224.465779746474	0
3	1593	465527.565798649931	243.44566203322
3	1610	468351.527073458502	0
3	1628	483974.563812542813	0
3	1645	487059.923427534917	0
3	1663	501306.310848627838	0
3	1680	505949.625592662139	0
3	1704	508181.814773310668	0
3	1713	510031.018528517136	0
3	1729	512686.517158839971	0
3	1745	514664.978712871517	0
3	1778	519622.160078022182	0
3	1794	521621.291736828238	832.57600980663
3	1803	522616.772357654037	0
3	1811	523144.870125814901	488.48162296905
3	1828	528685.473965859895	0
3	1845	536932.138907941663	0
3	1863	547576.382630139144	0
3	1890	564395.341858550053	191.41091504727
3	1898	568338.640889413258	0
3	1915	574557.407146314982	0
3	1932	577052.529163607745	0
3	1948	579448.000255105545	0
3	1966	589437.868421046289	0
3	1992	600282.19642946424	0
3	2000	603477.008622065699	0
3	2026	612914.552414108945	0
3	2034	615932.127556235184	0
3	2052	624292.2168259809	0
3	2069	631700.4248710795	0
3	2085	632627.608544973547	0
3	2102	638379.1581702481	0
3	2120	650562.080601111125	0
3	2146	660275.116659401504	940.65306698998
3	2162	664258.4223048569	0
3	2170	664937.407341669696	0
3	2188	672033.582675610928	0
3	2212	674668.974529293511	0
3	2220	676072.654968103203	0
3	2253	681084.643787762023	0
3	2261	682668.533604084394	0
3	2269	683451.240833974875	0
3	2287	691684.073663265203	0
3	2304	697900.587643355304	0
3	2328	699588.583969681558	0
3	2336	701368.351844905134	803.14543131081
3	2354	709394.9506493052	0
3	2370	713612.394331360286	0
3	2387	719561.164630062199	0
3	2406	733855.705124180639	0
3	2423	741726.490407045876	0
3	2448	744987.966205123575	0
3	2456	745791.300764025295	469.9965816995
3	2472	748505.59951895513	0
3	2498	760694.254548811029	0
3	2506	761583.22918370012	0
3	2523	767467.9971340778	0
3	2540	771749.408638288164	0
3	2558	781155.838029577901	0
3	2583	790551.868875659633	0
3	2591	791301.469188997164	0
3	2617	798612.781409358885	0
3	2625	802250.100844102798	0
3	2642	808509.367523419342	0
3	2660	820375.319700696831	0
3	2685	822685.74416497717	102.16695767787
3	2693	823016.445237424976	0
3	2712	842197.731537651631	0
3	2729	846665.321688063981	0
3	2745	850824.872774297904	0
3	2762	854243.45016548488	0
3	2781	875314.452913899827	0
3	2798	878669.711567510165	0
3	2828	915981.754282701883	253.04399933153
3	2845	919342.190421895405	0
3	2853	922573.730851832967	0
3	2879	932512.138011971397	0
3	2895	934102.005864110441	193.9300969522
3	2903	934203.574104404861	4.78092622311
3	2922	948020.679123936412	0
3	2938	949054.146371066618	0
3	2962	952742.207735255555	0
3	2979	955240.17326693997	0
3	2987	957874.824362082919	0
3	3004	961286.071028565521	0
3	3021	971316.902504567264	0
3	3038	973877.424989567448	0
3	3080	987335.64003225827	74.601244716563
3	3088	987566.015593099035	0
3	3097	990303.735666567214	0
3	3105	992194.675350739855	0
3	3123	1005832.411484956311	0
3	3140	1013397.920421378951	0
3	3157	1015599.554966951581	0
3	3174	1024824.170793893206	0
3	3191	1028594.884670620498	0
3	3208	1036761.803148588855	0
4	328	132432.11591865024	1
4	330	132432.11591865024	0
4	336	132949.245735560231	1
4	338	132949.245735560231	0
4	361	138346.873312297041	1
4	363	138346.873312297041	0
4	369	138889.729675669801	1
4	371	138889.729675669801	0
4	391	148269.631184052368	1
4	396	148850.669422099057	0
4	404	157343.813915729951	1
4	406	157343.813915729951	0
4	423	177402.211628033606	1
4	425	177402.211628033606	0
4	448	182726.61087043219	1
4	450	182726.61087043219	0
4	456	184536.649581648035	1
4	458	184536.649581648035	0
4	481	188738.23225501822	1
4	483	188738.23225501822	0
4	489	189665.748582609587	1
4	491	189665.748582609587	0
4	506	196261.874241839078	1
4	508	196261.874241839078	0
4	522	196756.304974726401	1
4	524	196756.304974726401	0
4	540	204428.216508265576	1
4	542	204428.216508265576	0
4	556	209110.054772698143	1
4	558	209110.054772698143	0
4	578	210021.931838908285	1
4	583	210151.741902304926	0
4	589	215167.760770969938	1
4	591	215167.760770969938	0
4	606	216946.65169967271	1
4	608	216946.65169967271	0
4	639	227852.737883874317	1
4	642	227946.962951940259	2
4	651	228085.22426199038	3
4	656	229680.117085998679	2
4	661	229907.332481351016	1
4	666	229912.221346005585	0
4	678	238426.837381599533	1
4	683	239136.430208896316	0
4	690	242157.006176143966	1
4	692	242157.006176143966	0
4	714	245519.721015492257	1
4	716	245519.721015492257	0
4	731	249054.399929226074	1
4	733	249054.399929226074	0
4	748	252627.316873394176	1
4	750	252627.316873394176	0
4	756	253797.463933250062	1
4	758	253797.463933250062	0
4	789	259337.26448032885	1
4	791	259337.26448032885	0
4	797	261767.46455645568	1
4	799	261767.46455645568	0
4	806	264364.70952456291	1
4	808	264364.70952456291	0
4	826	290127.171520466727	1
4	828	290127.171520466727	0
4	842	291313.11842763559	1
4	844	291313.11842763559	0
4	859	297967.042707734777	1
4	861	297967.042707734777	0
4	878	314759.788365548773	1
4	880	314759.788365548773	0
4	895	318238.679339299063	1
4	897	318238.679339299063	0
4	911	323744.612985104295	1
4	913	323744.612985104295	0
4	933	324461.068996196164	1
4	938	324530.882785138104	0
4	944	324670.519554185241	1
4	946	324670.519554185241	0
4	968	328617.629877270208	1
4	970	328617.629877270208	0
4	984	329984.849899628923	1
4	986	329984.849899628923	0
4	993	331011.04804827098	1
4	995	331011.04804827098	0
4	1009	334516.527380943721	1
4	1011	334516.527380943721	0
4	1026	338544.082971172036	1
4	1028	338544.082971172036	0
4	1042	340136.744640923041	1
4	1044	340136.744640923041	0
4	1067	342317.684302473221	1
4	1069	342317.684302473221	0
4	1075	344756.09442303199	1
4	1077	344756.09442303199	0
4	1100	350313.832491571418	1
4	1102	350313.832491571418	0
4	1109	354386.810575663127	1
4	1111	354386.810575663127	0
4	1133	356973.902589871812	1
4	1135	356973.902589871812	0
4	1166	360194.983821937636	1
4	1168	360194.983821937636	0
4	1171	360295.92006288263	1
4	1176	360358.969575918371	0
4	1179	360760.335692095081	1
4	1184	360960.564938219179	0
4	1198	363050.711601098845	1
4	1200	363050.711601098845	0
4	1203	363851.302148252812	1
4	1208	363937.841283839632	0
4	1241	378719.569810347393	1
4	1243	378719.569810347393	0
4	1249	379278.264693534385	1
4	1251	379278.264693534385	0
4	1265	383535.39528038191	1
4	1267	383535.39528038191	0
4	1274	384295.21846160354	1
4	1276	384295.21846160354	0
4	1306	388405.989093255358	1
4	1308	388405.989093255358	0
4	1323	391478.407546987694	1
4	1325	391478.407546987694	0
4	1339	394368.641602403406	1
4	1341	394368.641602403406	0
4	1344	394429.447645566904	1
4	1349	394465.559947690979	0
4	1352	394657.054190308494	1
4	1357	394736.953737541211	0
4	1381	406039.231729560057	1
4	1383	406039.231729560057	0
4	1398	408331.255558495493	1
4	1400	408331.255558495493	0
4	1406	411845.108691870661	1
4	1408	411845.108691870661	0
4	1433	430793.303868978543	1
4	1435	430793.303868978543	0
4	1450	432116.289761699533	1
4	1452	432116.289761699533	0
4	1463	433113.676051253248	1
4	1468	433688.226452669425	0
4	1474	435011.454642496677	1
4	1476	435011.454642496677	0
4	1506	453514.04479063715	1
4	1511	453594.247015382484	0
4	1522	455784.637251486449	1
4	1527	455871.934661505817	0
4	1551	462184.894147252769	1
4	1553	462184.894147252769	0
4	1559	462565.49754808896	1
4	1561	462565.49754808896	0
4	1567	463549.836766675913	1
4	1569	463549.836766675913	0
4	1583	465224.465779746474	1
4	1585	465224.465779746474	0
4	1588	465284.120136616716	1
4	1593	465527.565798649931	0
4	1608	468351.527073458502	1
4	1610	468351.527073458502	0
4	1626	483974.563812542813	1
4	1628	483974.563812542813	0
4	1643	487059.923427534917	1
4	1645	487059.923427534917	0
4	1661	501306.310848627838	1
4	1663	501306.310848627838	0
4	1678	505949.625592662139	1
4	1680	505949.625592662139	0
4	1702	508181.814773310668	1
4	1704	508181.814773310668	0
4	1711	510031.018528517136	1
4	1713	510031.018528517136	0
4	1727	512686.517158839971	1
4	1729	512686.517158839971	0
4	1743	514664.978712871517	1
4	1745	514664.978712871517	0
4	1776	519622.160078022182	1
4	1778	519622.160078022182	0
4	1789	520788.715727021605	1
4	1794	521621.291736828238	0
4	1801	522616.772357654037	1
4	1803	522616.772357654037	0
4	1806	522656.388502845851	1
4	1811	523144.870125814901	0
4	1826	528685.473965859895	1
4	1828	528685.473965859895	0
4	1843	536932.138907941663	1
4	1845	536932.138907941663	0
4	1861	547576.382630139144	1
4	1863	547576.382630139144	0
4	1885	564203.930943502785	1
4	1890	564395.341858550053	0
4	1896	568338.640889413258	1
4	1898	568338.640889413258	0
4	1913	574557.407146314982	1
4	1915	574557.407146314982	0
4	1930	577052.529163607745	1
4	1932	577052.529163607745	0
4	1946	579448.000255105545	1
4	1948	579448.000255105545	0
4	1964	589437.868421046289	1
4	1966	589437.868421046289	0
4	1990	600282.19642946424	1
4	1992	600282.19642946424	0
4	1998	603477.008622065699	1
4	2000	603477.008622065699	0
4	2024	612914.552414108945	1
4	2026	612914.552414108945	0
4	2032	615932.127556235184	1
4	2034	615932.127556235184	0
4	2050	624292.2168259809	1
4	2052	624292.2168259809	0
4	2067	631700.4248710795	1
4	2069	631700.4248710795	0
4	2083	632627.608544973547	1
4	2085	632627.608544973547	0
4	2100	638379.1581702481	1
4	2102	638379.1581702481	0
4	2118	650562.080601111125	1
4	2120	650562.080601111125	0
4	2140	659334.463592411524	1
4	2146	660275.116659401504	0
4	2160	664258.4223048569	1
4	2162	664258.4223048569	0
4	2168	664937.407341669696	1
4	2170	664937.407341669696	0
4	2186	672033.582675610928	1
4	2188	672033.582675610928	0
4	2210	674668.974529293511	1
4	2212	674668.974529293511	0
4	2218	676072.654968103203	1
4	2220	676072.654968103203	0
4	2251	681084.643787762023	1
4	2253	681084.643787762023	0
4	2259	682668.533604084394	1
4	2261	682668.533604084394	0
4	2267	683451.240833974875	1
4	2269	683451.240833974875	0
4	2285	691684.073663265203	1
4	2287	691684.073663265203	0
4	2302	697900.587643355304	1
4	2304	697900.587643355304	0
4	2326	699588.583969681558	1
4	2328	699588.583969681558	0
4	2331	700565.206413594326	1
4	2336	701368.351844905134	0
4	2352	709394.9506493052	1
4	2354	709394.9506493052	0
4	2368	713612.394331360286	1
4	2370	713612.394331360286	0
4	2385	719561.164630062199	1
4	2387	719561.164630062199	0
4	2404	733855.705124180639	1
4	2406	733855.705124180639	0
4	2421	741726.490407045876	1
4	2423	741726.490407045876	0
4	2446	744987.966205123575	1
4	2448	744987.966205123575	0
4	2451	745321.30418232579	1
4	2456	745791.300764025295	0
4	2470	748505.59951895513	1
4	2472	748505.59951895513	0
4	2496	760694.254548811029	1
4	2498	760694.254548811029	0
4	2504	761583.22918370012	1
4	2506	761583.22918370012	0
4	2521	767467.9971340778	1
4	2523	767467.9971340778	0
4	2538	771749.408638288164	1
4	2540	771749.408638288164	0
4	2556	781155.838029577901	1
4	2558	781155.838029577901	0
4	2581	790551.868875659633	1
4	2583	790551.868875659633	0
4	2589	791301.469188997164	1
4	2591	791301.469188997164	0
4	2615	798612.781409358885	1
4	2617	798612.781409358885	0
4	2623	802250.100844102798	1
4	2625	802250.100844102798	0
4	2640	808509.367523419342	1
4	2642	808509.367523419342	0
4	2658	820375.319700696831	1
4	2660	820375.319700696831	0
4	2680	822583.577207299299	1
4	2685	822685.74416497717	0
4	2691	823016.445237424976	1
4	2693	823016.445237424976	0
4	2710	842197.731537651631	1
4	2712	842197.731537651631	0
4	2727	846665.321688063981	1
4	2729	846665.321688063981	0
4	2743	850824.872774297904	1
4	2745	850824.872774297904	0
4	2760	854243.45016548488	1
4	2762	854243.45016548488	0
4	2779	875314.452913899827	1
4	2781	875314.452913899827	0
4	2796	878669.711567510165	1
4	2798	878669.711567510165	0
4	2823	915728.710283370356	1
4	2828	915981.754282701883	0
4	2843	919342.190421895405	1
4	2845	919342.190421895405	0
4	2851	922573.730851832967	1
4	2853	922573.730851832967	0
4	2877	932512.138011971397	1
4	2879	932512.138011971397	0
4	2890	933908.075767158237	1
4	2895	934102.005864110441	0
4	2898	934198.793178181751	1
4	2903	934203.574104404861	0
4	2920	948020.679123936412	1
4	2922	948020.679123936412	0
4	2936	949054.146371066618	1
4	2938	949054.146371066618	0
4	2960	952742.207735255555	1
4	2962	952742.207735255555	0
4	2977	955240.17326693997	1
4	2979	955240.17326693997	0
4	2985	957874.824362082919	1
4	2987	957874.824362082919	0
4	3002	961286.071028565521	1
4	3004	961286.071028565521	0
4	3019	971316.902504567264	1
4	3021	971316.902504567264	0
4	3036	973877.424989567448	1
4	3038	973877.424989567448	0
4	3075	987261.038787541707	1
4	3080	987335.64003225827	0
4	3086	987566.015593099035	1
4	3088	987566.015593099035	0
4	3095	990303.735666567214	1
4	3097	990303.735666567214	0
4	3103	992194.675350739855	1
4	3105	992194.675350739855	0
4	3121	1005832.411484956311	1
4	3123	1005832.411484956311	0
4	3138	1013397.920421378951	1
4	3140	1013397.920421378951	0
4	3155	1015599.554966951581	1
4	3157	1015599.554966951581	0
4	3172	1024824.170793893206	1
4	3174	1024824.170793893206	0
4	3189	1028594.884670620498	1
4	3191	1028594.884670620498	0
4	3206	1036761.803148588855	1
4	3208	1036761.803148588855	0
5	309	126000	0
5	326	132000	2
5	359	138000	2
5	384	144000	1
5	401	150000	1
5	402	156000	0
5	411	162000	0
5	412	168000	0
5	413	174000	0
5	435	180000	1
5	463	186000	2
5	496	192000	2
5	529	198000	2
5	538	204000	1
5	576	210000	2
5	604	216000	2
5	613	222000	0
5	649	228000	3
5	671	234000	1
5	688	240000	1
5	721	246000	2
5	746	252000	2
5	779	258000	1
5	804	264000	2
5	813	270000	0
5	814	276000	0
5	815	282000	0
5	824	288000	1
5	857	294000	2
5	866	300000	0
5	867	306000	0
5	876	312000	1
5	893	318000	1
5	918	324000	1
5	988	330000	5
5	1016	336000	1
5	1057	342000	3
5	1082	348000	1
5	1107	354000	2
5	1164	360000	5
5	1213	366000	1
5	1214	372000	0
5	1231	378000	2
5	1272	384000	2
5	1313	390000	3
5	1362	396000	2
5	1371	402000	1
5	1396	408000	2
5	1413	414000	0
5	1414	420000	0
5	1423	426000	1
5	1448	432000	2
5	1481	438000	1
5	1482	444000	0
5	1491	450000	1
5	1532	456000	3
5	1549	462000	2
5	1606	468000	2
5	1615	474000	0
5	1616	480000	0
5	1638	486000	1
5	1650	492000	1
5	1659	498000	1
5	1676	504000	1
5	1709	510000	2
5	1758	516000	3
5	1799	522000	3
5	1824	528000	1
5	1833	534000	0
5	1850	540000	1
5	1851	546000	0
5	1868	552000	1
5	1869	558000	0
5	1883	564000	1
5	1903	570000	1
5	1920	576000	1
5	1953	582000	2
5	1962	588000	1
5	1971	594000	0
5	1985	600000	1
5	2005	606000	1
5	2019	612000	1
5	2047	618000	2
5	2048	624000	0
5	2057	630000	0
5	2098	636000	3
5	2107	642000	0
5	2116	648000	1
5	2125	654000	0
5	2142	660000	1
5	2175	666000	2
5	2184	672000	1
5	2233	678000	3
5	2274	684000	2
5	2275	690000	0
5	2300	696000	2
5	2346	702000	2
5	2350	708000	1
5	2375	714000	1
5	2392	720000	1
5	2393	726000	0
5	2394	732000	0
5	2411	738000	1
5	2444	744000	3
5	2477	750000	1
5	2478	756000	0
5	2511	762000	2
5	2528	768000	1
5	2553	774000	2
5	2554	780000	0
5	2571	786000	1
5	2596	792000	1
5	2613	798000	2
5	2635	804000	0
5	2647	810000	1
5	2648	816000	0
5	2673	822000	2
5	2698	828000	1
5	2704	834000	0
5	2708	840000	1
5	2717	846000	0
5	2758	852000	3
5	2767	858000	0
5	2768	864000	0
5	2769	870000	0
5	2786	876000	1
5	2803	882000	1
5	2804	888000	0
5	2805	894000	0
5	2806	900000	0
5	2807	906000	0
5	2808	912000	0
5	2841	918000	3
5	2858	924000	0
5	2867	930000	1
5	2908	936000	2
5	2909	942000	0
5	2918	948000	1
5	2967	954000	3
5	3000	960000	2
5	3009	966000	0
5	3026	972000	1
5	3043	978000	1
5	3052	984000	1
5	3093	990000	3
5	3110	996000	0
5	3119	1002000	1
5	3136	1008000	1
5	3145	1014000	0
5	3162	1020000	1
5	3179	1026000	1
5	3196	1032000	1
6	309	126000	0
6	326	132000	0
6	359	138000	2
6	384	144000	2
6	401	150000	1
6	402	156000	0
6	411	162000	1
6	412	168000	0
6	413	174000	0
6	435	180000	1
6	463	186000	2
6	496	192000	2
6	529	198000	2
6	538	204000	0
6	576	210000	2
6	604	216000	2
6	613	222000	1
6	649	228000	0
6	671	234000	3
6	688	240000	1
6	721	246000	2
6	746	252000	1
6	779	258000	2
6	804	264000	2
6	813	270000	1
6	814	276000	0
6	815	282000	0
6	824	288000	0
6	857	294000	2
6	866	300000	1
6	867	306000	0
6	876	312000	0
6	893	318000	1
6	918	324000	1
6	988	330000	4
6	1016	336000	3
6	1057	342000	2
6	1082	348000	2
6	1107	354000	1
6	1164	360000	2
6	1213	366000	5
6	1214	372000	0
6	1231	378000	0
6	1272	384000	3
6	1313	390000	2
6	1362	396000	4
6	1371	402000	0
6	1396	408000	1
6	1413	414000	2
6	1414	420000	0
6	1423	426000	0
6	1448	432000	1
6	1481	438000	3
6	1482	444000	0
6	1491	450000	0
6	1532	456000	2
6	1549	462000	0
6	1606	468000	5
6	1615	474000	1
6	1616	480000	0
6	1638	486000	1
6	1650	492000	1
6	1659	498000	0
6	1676	504000	1
6	1709	510000	2
6	1758	516000	3
6	1799	522000	2
6	1824	528000	2
6	1833	534000	1
6	1850	540000	1
6	1851	546000	0
6	1868	552000	1
6	1869	558000	0
6	1883	564000	0
6	1903	570000	2
6	1920	576000	1
6	1953	582000	2
6	1962	588000	0
6	1971	594000	1
6	1985	600000	0
6	2005	606000	2
6	2019	612000	0
6	2047	618000	2
6	2048	624000	0
6	2057	630000	1
6	2098	636000	2
6	2107	642000	1
6	2116	648000	0
6	2125	654000	1
6	2142	660000	0
6	2175	666000	3
6	2184	672000	0
6	2233	678000	3
6	2274	684000	3
6	2275	690000	0
6	2300	696000	1
6	2346	702000	3
6	2350	708000	0
6	2375	714000	2
6	2392	720000	1
6	2393	726000	0
6	2394	732000	0
6	2411	738000	1
6	2444	744000	1
6	2477	750000	3
6	2478	756000	0
6	2511	762000	2
6	2528	768000	1
6	2553	774000	1
6	2554	780000	0
6	2571	786000	1
6	2596	792000	2
6	2613	798000	0
6	2635	804000	2
6	2647	810000	1
6	2648	816000	0
6	2673	822000	1
6	2698	828000	2
6	2704	834000	0
6	2708	840000	0
6	2717	846000	1
6	2758	852000	2
6	2767	858000	1
6	2768	864000	0
6	2769	870000	0
6	2786	876000	1
6	2803	882000	1
6	2804	888000	0
6	2805	894000	0
6	2806	900000	0
6	2807	906000	0
6	2808	912000	0
6	2841	918000	1
6	2858	924000	2
6	2867	930000	0
6	2908	936000	3
6	2909	942000	0
6	2918	948000	0
6	2967	954000	3
6	3000	960000	2
6	3009	966000	1
6	3026	972000	1
6	3043	978000	1
6	3052	984000	0
6	3093	990000	2
6	3110	996000	2
6	3119	1002000	0
6	3136	1008000	1
6	3145	1014000	0
6	3162	1020000	2
6	3179	1026000	1
6	3196	1032000	1
7	316	126150.701618029894	1
7	324	131596.409282796763	2
7	327	132432.11591865024	1
7	335	132949.245735560231	0
7	349	134489.482662766755	1
7	357	137570.972130661922	2
7	360	138346.873312297041	1
7	368	138889.729675669801	0
7	382	142882.108159687296	1
7	390	148269.631184052368	0
7	394	148850.669422099057	1
7	403	157343.813915729951	0
7	420	175766.313723985675	1
7	422	177402.211628033606	0
7	437	180449.80154171014	1
7	445	182445.302329051758	2
7	447	182726.61087043219	1
7	455	184536.649581648035	0
7	470	186965.332967548374	1
7	478	187649.389808156313	2
7	480	188738.23225501822	1
7	488	189665.748582609587	0
7	503	194854.251849102055	1
7	505	196261.874241839078	0
7	519	196375.350716042501	1
7	521	196756.304974726401	0
7	536	203727.083400564988	1
7	539	204428.216508265576	0
7	553	208753.777446704303	1
7	555	209110.054772698143	0
7	572	209840.873510454076	1
7	577	210021.931838908285	0
7	581	210151.741902304926	1
7	588	215167.760770969938	0
7	602	215654.60017136501	1
7	605	216946.65169967271	0
7	620	224637.254943439089	1
7	634	226944.831643892962	2
7	638	227852.737883874317	1
7	641	227946.962951940259	0
7	645	227959.203287349105	1
7	650	228085.22426199038	0
7	654	229680.117085998679	1
7	677	238426.837381599533	0
7	681	239136.430208896316	1
7	689	242157.006176143966	0
7	703	243948.31032335919	1
7	711	245230.570660725831	2
7	713	245519.721015492257	1
7	728	248064.237910883204	2
7	730	249054.399929226074	1
7	744	251544.555717993972	2
7	747	252627.316873394176	1
7	755	253797.463933250062	0
7	772	257463.471023422672	1
7	781	258040.058825345817	2
7	786	258064.88095737218	3
7	788	259337.26448032885	2
7	796	261767.46455645568	1
7	805	264364.70952456291	0
7	822	284755.348273419037	1
7	825	290127.171520466727	0
7	839	290723.55713836739	1
7	841	291313.11842763559	0
7	855	293987.184436628109	1
7	858	297967.042707734777	0
7	874	310070.484608036823	1
7	877	314759.788365548773	0
7	891	316216.35195347933	1
7	894	318238.679339299063	0
7	908	318698.070949923051	1
7	910	323744.612985104295	0
7	928	324441.68424337839	1
7	932	324461.068996196164	0
7	936	324530.882785138104	1
7	943	324670.519554185241	0
7	960	327967.531803091408	1
7	965	328143.093249057021	2
7	967	328617.629877270208	1
7	981	329205.355563506663	2
7	983	329984.849899628923	1
7	992	331011.04804827098	0
7	1006	333039.424260758221	1
7	1008	334516.527380943721	0
7	1023	337403.516248982544	1
7	1025	338544.082971172036	0
7	1039	339092.884709636071	1
7	1041	340136.744640923041	0
7	1055	341367.199676285518	1
7	1064	342276.248585992001	2
7	1066	342317.684302473221	1
7	1074	344756.09442303199	0
7	1089	348888.664354699769	1
7	1097	349032.402062079301	2
7	1099	350313.832491571418	1
7	1108	354386.810575663127	0
7	1122	355102.863662758012	1
7	1130	356732.116754565835	2
7	1132	356973.902589871812	1
7	1146	358064.534752169023	2
7	1154	359296.663150709382	3
7	1162	359917.794868054109	4
7	1165	360194.983821937636	3
7	1170	360295.92006288263	2
7	1178	360760.335692095081	1
7	1195	362582.307013221466	2
7	1197	363050.711601098845	1
7	1202	363851.302148252812	0
7	1221	373216.803335630389	1
7	1229	377989.845633705764	2
7	1238	378526.548505847097	3
7	1240	378719.569810347393	2
7	1248	379278.264693534385	1
7	1262	380820.150202541701	2
7	1264	383535.39528038191	1
7	1273	384295.21846160354	0
7	1287	386668.27453354135	1
7	1298	388258.938508816828	2
7	1303	388299.4300502541	3
7	1305	388405.989093255358	2
7	1320	391408.183820671009	3
7	1322	391478.407546987694	2
7	1336	393762.549199966623	3
7	1338	394368.641602403406	2
7	1343	394429.447645566904	1
7	1351	394657.054190308494	0
7	1369	401532.506627938353	1
7	1378	404776.797791294909	2
7	1380	406039.231729560057	1
7	1394	407565.997167159246	2
7	1397	408331.255558495493	1
7	1405	411845.108691870661	0
7	1421	421225.121066530215	1
7	1430	430416.114116554727	2
7	1432	430793.303868978543	1
7	1446	431352.624976454908	2
7	1449	432116.289761699533	1
7	1462	433113.676051253248	0
7	1466	433688.226452669425	1
7	1473	435011.454642496677	0
7	1489	448879.847891163708	1
7	1498	450278.81504300645	2
7	1505	453514.04479063715	1
7	1509	453594.247015382484	2
7	1521	455784.637251486449	1
7	1525	455871.934661505817	2
7	1539	461771.316744169901	3
7	1547	461892.747150697309	4
7	1550	462184.894147252769	3
7	1558	462565.49754808896	2
7	1566	463549.836766675913	1
7	1580	464876.253740287419	2
7	1582	465224.465779746474	1
7	1587	465284.120136616716	0
7	1604	466954.653303114462	1
7	1607	468351.527073458502	0
7	1623	482257.721525415452	1
7	1625	483974.563812542813	0
7	1640	486781.564165067363	1
7	1642	487059.923427534917	0
7	1657	496586.533113622578	1
7	1660	501306.310848627838	0
7	1674	502703.955720595286	1
7	1677	505949.625592662139	0
7	1691	506892.013794794534	1
7	1699	508123.25749320348	2
7	1701	508181.814773310668	1
7	1710	510031.018528517136	0
7	1724	511959.74502670734	1
7	1726	512686.517158839971	0
7	1740	513641.275504864648	1
7	1742	514664.978712871517	0
7	1756	515812.016337526395	1
7	1768	519538.271747272833	2
7	1773	519546.635801761493	3
7	1775	519622.160078022182	2
7	1788	520788.715727021605	1
7	1792	521621.291736828238	2
7	1800	522616.772357654037	1
7	1805	522656.388502845851	0
7	1822	527039.09738137977	1
7	1825	528685.473965859895	0
7	1840	535840.531363063447	1
7	1842	536932.138907941663	0
7	1858	547324.041361230255	1
7	1860	547576.382630139144	0
7	1876	563319.955828184646	1
7	1884	564203.930943502785	0
7	1888	564395.341858550053	1
7	1895	568338.640889413258	0
7	1910	573290.227832253596	1
7	1912	574557.407146314982	0
7	1927	577037.151042807984	1
7	1929	577052.529163607745	0
7	1943	577240.14304685802	1
7	1945	579448.000255105545	0
7	1960	585196.93641404869	1
7	1963	589437.868421046289	0
7	1978	598928.312102976193	1
7	1987	600071.305010673147	2
7	1989	600282.19642946424	1
7	1997	603477.008622065699	0
7	2012	609368.408954229216	1
7	2021	612037.921642980266	2
7	2023	612914.552414108945	1
7	2031	615932.127556235184	0
7	2045	616361.443507154898	1
7	2049	624292.2168259809	0
7	2064	631636.757196174497	1
7	2066	631700.4248710795	0
7	2080	632169.913977761213	1
7	2082	632627.608544973547	0
7	2096	633687.740321393356	1
7	2099	638379.1581702481	0
7	2114	644798.925593306369	1
7	2117	650562.080601111125	0
7	2132	658971.204835724323	1
7	2139	659334.463592411524	0
7	2144	660275.116659401504	1
7	2157	664156.964928306662	2
7	2159	664258.4223048569	1
7	2167	664937.407341669696	0
7	2182	671848.881194977598	1
7	2185	672033.582675610928	0
7	2199	673258.305573914643	1
7	2207	673804.460462405589	2
7	2209	674668.974529293511	1
7	2217	676072.654968103203	0
7	2231	677714.141683514243	1
7	2243	680529.991400835754	2
7	2248	680917.416498279032	3
7	2250	681084.643787762023	2
7	2258	682668.533604084394	1
7	2266	683451.240833974875	0
7	2282	690781.984236718889	1
7	2284	691684.073663265203	0
7	2298	693884.710015073684	1
7	2301	697900.587643355304	0
7	2315	698568.299586805239	1
7	2323	699334.260197053502	2
7	2325	699588.583969681558	1
7	2330	700565.206413594326	0
7	2348	702652.875838071162	1
7	2351	709394.9506493052	0
7	2365	711277.347398988904	1
7	2367	713612.394331360286	0
7	2382	717658.500625355968	1
7	2384	719561.164630062199	0
7	2401	732512.584754396585	1
7	2403	733855.705124180639	0
7	2418	740391.581282203211	1
7	2420	741726.490407045876	0
7	2434	742316.996082173487	1
7	2442	743013.417163164418	2
7	2445	744987.966205123575	1
7	2450	745321.30418232579	0
7	2467	747907.515150486452	1
7	2469	748505.59951895513	0
7	2485	758970.73591334726	1
7	2493	759843.157164896505	2
7	2495	760694.254548811029	1
7	2503	761583.22918370012	0
7	2518	766970.277022326325	1
7	2520	767467.9971340778	0
7	2535	769445.577185670697	1
7	2537	771749.408638288164	0
7	2551	773157.414701378531	1
7	2555	781155.838029577901	0
7	2569	784460.986942737985	1
7	2578	790023.287320239529	2
7	2580	790551.868875659633	1
7	2588	791301.469188997164	0
7	2603	795956.206298995108	1
7	2611	797865.111703085337	2
7	2614	798612.781409358885	1
7	2622	802250.100844102798	0
7	2637	804342.908925763917	1
7	2639	808509.367523419342	0
7	2655	818975.726877652951	1
7	2657	820375.319700696831	0
7	2671	821839.030555609553	1
7	2679	822583.577207299299	0
7	2683	822685.74416497717	1
7	2690	823016.445237424976	0
7	2706	834311.589426424243	1
7	2709	842197.731537651631	0
7	2724	846467.224537179276	1
7	2726	846665.321688063981	0
7	2740	848196.478832676609	1
7	2742	850824.872774297904	0
7	2756	851622.434183589124	1
7	2759	854243.45016548488	0
7	2776	873343.933670000637	1
7	2778	875314.452913899827	0
7	2793	876340.790436688078	1
7	2795	878669.711567510165	0
7	2818	915524.258045003857	1
7	2822	915728.710283370356	0
7	2826	915981.754282701883	1
7	2839	917670.392799495689	2
7	2842	919342.190421895405	1
7	2850	922573.730851832967	0
7	2865	926611.936996132231	1
7	2874	932427.823236041925	2
7	2876	932512.138011971397	1
7	2889	933908.075767158237	0
7	2893	934102.005864110441	1
7	2897	934198.793178181751	0
7	2916	947472.839044868023	1
7	2919	948020.679123936412	0
7	2933	948578.248258518551	1
7	2935	949054.146371066618	0
7	2949	950918.691321040591	1
7	2957	952022.091111589475	2
7	2959	952742.207735255555	1
7	2974	954819.634232376677	2
7	2976	955240.17326693997	1
7	2984	957874.824362082919	0
7	2998	959139.967674056233	1
7	3001	961286.071028565521	0
7	3016	970355.355776857361	1
7	3018	971316.902504567264	0
7	3033	972742.010012249341	1
7	3035	973877.424989567448	0
7	3050	979617.988072758195	1
7	3059	985236.542758358247	2
7	3070	987025.507781494277	3
7	3074	987261.038787541707	2
7	3078	987335.64003225827	3
7	3085	987566.015593099035	2
7	3094	990303.735666567214	1
7	3102	992194.675350739855	0
7	3117	997502.624682839387	1
7	3120	1005832.411484956311	0
7	3134	1007917.779324451043	1
7	3137	1013397.920421378951	0
7	3152	1014203.491458481727	1
7	3154	1015599.554966951581	0
7	3169	1023408.837546444886	1
7	3171	1024824.170793893206	0
7	3186	1027425.268723131959	1
7	3188	1028594.884670620498	0
7	3203	1032923.530321965999	1
7	3205	1036761.803148588855	0
