version 2
run QueueMeasurement-136-20170109-14:26:01-7023
attr configname QueueMeasurement
attr datetime 20170109-14:26:01
attr experiment QueueMeasurement
attr inifile queueStudy.ini
attr iterationvars ""
attr iterationvars2 $repetition=136
attr measurement ""
attr network controltower.SimNetwork
attr processid 7023
attr repetition 136
attr replication #136
attr resultdir results
attr runnumber 136
attr seedset 136
param SimNetwork.a.parkingLot.parkingDelay exponential(45min)
param SimNetwork.a.runway.landingTime exponential(5min)
param SimNetwork.a.runway.takeoffTime exponential(5min)
param SimNetwork.a.runway.throughputCheckInterval 100min
param SimNetwork.wg.interArrivalTime exponential(100min)

statistic SimNetwork.wg 	responseTime:stats
field count 163
field mean 8796.8021736443
field stddev 5734.4734403353
field sum 1433878.754304
field sqrsum 17940785815.946
field min 369.640213922
field max 28527.227367604
attr source  responseTimeSignal
scalar SimNetwork.a.landingQueue 	queueLength:timeavg 	0.0047046700500327
attr source  queueLengthSignal
statistic SimNetwork.a.landingQueue 	queueLength:stats
field count 328
field mean 0.50609756097561
field stddev 0.50679723755565
field sum 166
field sqrsum 168
field min 0
field max 2
attr source  queueLengthSignal
statistic SimNetwork.a.landingQueue 	queueTime:stats
field count 164
field mean 25.972869084584
field stddev 92.580414089813
field sum 4259.5505298718
field sqrsum 1507727.4391773
field min 0
field max 723.30996133397
attr source  queueTimeSignal
scalar SimNetwork.a.takeoffQueue 	queueLength:timeavg 	0.0065925781517698
attr source  queueLengthSignal
statistic SimNetwork.a.takeoffQueue 	queueLength:stats
field count 326
field mean 0.5
field stddev 0.50076863996184
field sum 163
field sqrsum 163
field min 0
field max 1
attr source  queueLengthSignal
statistic SimNetwork.a.takeoffQueue 	queueTime:stats
field count 163
field mean 37.013226779046
field stddev 207.62790556516
field sum 6033.1559649845
field sqrsum 7207020.811364
field min 0
field max 2389.6297942194
attr source  queueTimeSignal
scalar SimNetwork.a.parkingLot 	parkingOccupancy:timeavg 	0.45117364031686
attr source  parkingOccupancy
statistic SimNetwork.a.parkingLot 	parkingOccupancy:stats
field count 327
field mean 0.9388379204893
field stddev 0.85582944808051
field sum 307
field sqrsum 527
field min 0
field max 5
attr source  parkingOccupancy
