version 2
run QueueMeasurement-136-20170109-14:13:11-5959
attr configname QueueMeasurement
attr datetime 20170109-14:13:11
attr experiment QueueMeasurement
attr inifile queueStudy.ini
attr iterationvars ""
attr iterationvars2 $repetition=136
attr measurement ""
attr network controltower.SimNetwork
attr processid 5959
attr repetition 136
attr replication #136
attr resultdir results
attr runnumber 136
attr seedset 136
param SimNetwork.a.parkingLot.parkingDelay exponential(45min)
param SimNetwork.a.runway.landingTime exponential(5min)
param SimNetwork.a.runway.takeoffTime exponential(5min)
param SimNetwork.a.runway.throughputCheckInterval 12.5min
param SimNetwork.wg.interArrivalTime exponential(12.5min)

vector 7  SimNetwork.a.parkingLot  parkingOccupancy:vector  ETV
attr source  parkingOccupancy
vector 2  SimNetwork.a.landingQueue  queueLength:vector  ETV
attr source  queueLengthSignal
vector 1  SimNetwork.a.landingQueue  queueTime:vector  ETV
attr source  queueTimeSignal
vector 5  SimNetwork.a.runway  landedThroughput:vector  ETV
attr source  landedThroughputSignal
vector 6  SimNetwork.a.runway  tookoffThroughput:vector  ETV
attr source  tookoffThroughputSignal
vector 4  SimNetwork.a.takeoffQueue  queueLength:vector  ETV
attr source  queueLengthSignal
vector 3  SimNetwork.a.takeoffQueue  queueTime:vector  ETV
attr source  queueTimeSignal
vector 0  SimNetwork.wg  responseTime:vector  ETV
attr source  responseTimeSignal
0	1321	61825.556776803467	4950.9520879146
0	1349	62807.908415114424	868.76804883086
0	1375	63750.428661353328	2690.5876134599
0	1380	63787.880733066682	1696.4185592851
0	1392	64505.085964568596	4580.038877101
0	1397	64600.937249077855	5896.1696464077
0	1426	66540.461225071156	6271.5664918817
0	1460	67943.565690643795	1470.0493330502
0	1471	68022.118888266273	4975.37521743
0	1489	69011.114131765979	3778.7107724576
0	1543	70930.136762873303	5323.8819858676
0	1559	71456.664456131569	4771.0829446723
0	1564	71708.12185262568	4166.8683439057
0	1569	71836.22858125644	9029.0121282087
0	1581	72003.92374650274	4046.378902935
0	1611	73117.013708311844	2760.1867183121
0	1667	74239.918921165535	5042.1698484157
0	1673	74318.794269311784	4502.0779638923
0	1678	74454.091391103355	5573.5004047614
0	1683	74605.07354950136	5628.418949454
0	1688	74804.304195118186	2379.8902593643
0	1693	74862.697840234714	2107.4073500446
0	1701	74985.330873735188	2453.8497183505
0	1707	75264.530286809192	3108.7070024604
0	1725	77203.00190396399	4329.8551628813
0	1753	79065.695900492639	5175.5291283016
0	1763	79469.178523439807	8992.0416974965
0	1779	80355.675693459703	7952.9030047985
0	1809	81013.28367384709	4482.8936946802
0	1823	82300.429110241632	2804.8000021455
0	1835	82790.54713099551	5485.7884279939
0	1845	82888.915558347384	2078.3521010722
0	1853	83131.232432213601	2127.3423993538
0	1862	83595.427376715376	4665.3448934942
0	1901	86995.21833567838	4487.5125394949
0	1907	87025.517157894237	1381.8936815805
0	1924	88016.939425595837	7791.2032481358
0	1951	90229.231772237101	4031.0638216786
0	1965	90551.7233666254	2976.4287469254
0	1976	90760.976865581316	4871.9312507285
0	2004	92011.794230316162	3522.9874342689
0	2010	92473.646166189372	2098.119977963
0	2031	94443.698214130537	5699.1942085881
0	2058	96001.985067020755	4848.4294180559
0	2088	97081.942358266302	1061.860697506
0	2100	97519.174986618083	1956.7105438354
0	2114	97974.653267374069	6992.3122512946
0	2128	98380.672093470818	3937.9204001443
0	2136	98718.996013516756	3599.4472228382
0	2141	98772.87275085752	5135.1051280178
0	2147	99110.72955923266	2929.0725460589
0	2181	100558.923587866127	2594.957397075
0	2211	105013.672385156901	5013.5377988855
0	2222	105455.025983556124	3872.4840742685
0	2245	106604.92107952389	7077.2479257739
0	2268	107358.21972336659	2902.309287563
0	2273	107586.570177673832	7997.0177264005
0	2278	107650.685752465038	2456.8376785715
0	2318	110957.672454357269	4250.9497817599
0	2342	111680.944845450728	2981.6384805484
0	2348	111777.27674466966	5643.4785968598
0	2389	114314.967914078443	4417.8924339866
0	2399	114604.664565630436	4056.5424858814
0	2428	116018.855702539666	5305.9105423011
0	2436	116047.379759364281	3224.3406065203
0	2445	116259.770150757234	3384.4550192692
0	2472	118455.681295229751	3331.0917200126
0	2478	118528.514940827162	4727.4397198235
0	2483	118743.355853466408	3932.6276412923
0	2488	118797.638687155064	5861.1115820159
0	2493	118917.192147668834	8360.6838870432
0	2518	119923.50420492343	977.95214296997
0	2539	121156.630723279678	2016.8413812402
0	2561	121538.168222006506	1495.8706194832
0	2569	122077.832658581393	5856.9544306405
0	2600	124559.051323542211	3387.4058631501
0	2614	125363.543256879781	4734.6928685578
0	2622	125828.757501926954	3493.706935623
0	2643	126961.506077121583	4397.9245991591
0	2729	130556.826703224935	6467.0230916527
0	2754	131917.337738484126	4063.0553883668
0	2759	131990.823719541437	5528.8640859083
0	2768	132663.924698989786	2990.2623382574
0	2777	132762.25068811295	3483.3840446081
0	2787	132927.913937982926	3613.2761211163
0	2792	133169.784578950805	4389.8890052071
0	2822	134270.287177587347	6110.9840073836
0	2922	136973.709503429356	10959.654443523
0	2934	137344.434768964674	6729.2208215864
0	2945	137967.620955247843	8253.6459781965
0	2990	138699.017022575584	6018.3242868169
0	3011	139290.800743215471	4830.6717135888
0	3016	139429.893422082702	4840.2795252792
0	3025	139502.394207249126	9013.7226985314
0	3030	139523.88742324927	3626.8221212675
0	3035	139572.064490705023	4066.7299414129
0	3040	139605.678537381624	5332.8445733329
0	3051	139993.975797800601	5735.5559769817
0	3070	140864.96449797913	2865.2008722266
0	3075	140865.106727253775	7574.4570245163
0	3080	140921.683148280677	5000.6959291003
0	3092	141292.959142769301	6772.5377427058
0	3097	141459.878309279473	3770.9938206491
0	3102	141603.682858842163	3526.7914598321
0	3110	141684.04896678215	5584.1902567344
0	3119	141844.58725692031	2137.0089982396
0	3140	142437.066750487992	2663.216246307
0	3152	143177.470765882068	4491.3781366196
0	3164	143803.87937316728	5118.1385925479
0	3174	143983.509537285405	7539.4013847002
0	3185	145676.131968448885	3980.497587653
0	3195	147648.839770404295	9063.1704909584
0	3212	148342.331010760322	6488.394305251
0	3239	150500.400682993994	7186.86643082
0	3250	150698.396524698862	2803.964952342
0	3276	151679.250671320597	1065.3016278964
0	3293	152771.665592891207	2060.4085462266
0	3299	153067.144566204813	3585.3611937464
0	3352	158408.814202044334	9299.681238837
0	3371	159041.495669590198	2084.0380499449
0	3390	160719.266980550323	7142.9424467116
0	3406	161154.615817679231	4245.6470750243
0	3445	162316.01364806124	10715.737533391
0	3454	163022.15259095375	4814.7131682052
0	3459	163400.808901165918	2256.7322977271
0	3465	163513.295795179182	1829.2580783667
0	3473	164172.226277345697	4298.7633513046
0	3522	167351.820983821743	9245.5834264907
0	3530	167587.334167019025	10532.590679637
0	3541	168394.041807130525	6615.7050314165
0	3550	169192.052082545434	4990.006897577
0	3564	170029.230475895794	5826.9515780575
0	3578	170804.619899546672	3262.9831019436
0	3586	170910.797089564385	2001.4881140439
0	3626	174303.547321632723	13007.565726751
0	3634	174507.202633572067	4604.4462554223
0	3662	175418.485309950298	3377.9241978462
0	3671	175972.964099970663	2464.2762679042
0	3676	176106.898930342991	3660.1771542084
0	3682	176345.348500700541	1882.909915949
0	3710	179427.257616799115	1771.0859645144
0	3736	181114.332115846676	6573.8121148224
0	3805	184158.969977340992	5618.7419136174
0	3810	184281.316263585918	1763.745450989
0	3815	184492.297094857744	4545.9831622537
0	3827	185178.837757718938	3496.1210474656
0	3893	186860.395554507342	2366.0183166991
0	3932	187776.483398121878	21963.762080757
0	3937	187880.805584464326	5759.782690914
0	3942	188001.488883031163	4787.6224676205
0	3957	188950.549814136027	5884.0714237585
0	4017	191122.780873775622	8162.9310567191
0	4034	191678.669837397395	10995.140262716
0	4054	193083.948399254139	7903.5316540386
0	4059	193408.882222101041	7303.1460092409
0	4065	193581.355235198796	8099.3916147603
0	4073	193697.92093744124	8730.4473351316
0	4167	197335.375935184531	10592.618543659
0	4172	197529.99191604657	10456.995018238
0	4177	197608.183656538637	10362.776790067
0	4183	198135.568575415816	8671.472705625
0	4197	198737.64157270286	8963.3736325856
0	4216	199454.851013095147	11028.427652151
0	4225	199716.304474006293	9253.4986032009
0	4252	200499.768815497933	11606.998766852
0	4257	200646.409453713271	9707.4301966376
0	4278	201542.343952654233	7462.244585529
0	4293	201699.658698344117	7507.992807761
0	4299	202073.339178967089	8366.9905093556
0	4314	202876.501319943638	8222.7948950359
0	4319	203022.073216188915	7374.2406097069
0	4324	203080.932096385062	3109.9100951191
0	4330	203271.535517876551	11969.343925905
0	4335	203419.341233028096	4776.298329238
0	4340	203451.700306326992	9545.3340345626
0	4355	204383.274698954872	4315.7907837644
0	4391	205174.554252221181	13855.452155959
0	4412	206535.882485747538	12921.861091985
0	4427	207463.192721862828	6750.2646257229
0	4469	208885.39219572413	5158.4388547139
0	4486	209303.757553294487	5048.360161319
0	4496	209698.113741009754	10021.095602067
0	4501	209844.271581974608	11424.565660481
0	4513	210449.482633526513	14124.034450014
0	4545	211503.461473031393	6973.3389265696
0	4573	212974.252766968283	18461.849524683
0	4603	213630.374813562134	12705.289855955
0	4608	213704.546141790918	6103.6927957011
0	4614	213759.561151177328	6021.0851159599
0	4619	214226.74965662624	7652.2403462657
0	4625	214688.221795734008	5979.4819451631
0	4630	214844.442150863568	5678.453109263
0	4635	215013.457107970145	10056.542148757
0	4643	215184.764548089133	6932.6335567129
0	4649	215351.805991351255	3882.9137390584
0	4654	215432.222039242663	4532.960545745
0	4691	217232.785426909862	4639.8277087014
0	4717	218417.726921921678	5394.1796686039
0	4732	219051.363960246368	6024.8846287051
0	4752	220022.353265190898	7064.9719582278
0	4760	220484.060165660305	4081.0711914943
0	4774	220760.578293937426	3909.8510833975
0	4788	221571.163489805637	3885.609683268
0	4793	221656.130161326181	5900.4564792485
0	4805	222271.992794140987	6219.4445413713
0	4815	222625.207005245691	3681.2943679023
0	4844	223634.174020507514	2879.2277791037
0	4883	225314.035922068792	2337.2643344366
0	4891	225738.734855089572	1950.9621745214
0	4915	226475.764979551735	4329.1094653321
0	4926	226690.236405000938	16412.252335496
0	4934	226736.831787504387	3137.6503984893
0	4978	228879.697512637377	8444.5283804487
0	5030	230707.978960041583	7527.4644604318
0	5038	230920.351699673492	6257.4196589661
0	5043	230951.842371197711	4259.61728435
0	5055	231288.216917278843	4362.0332493734
0	5063	231317.628878186409	6755.2534840914
0	5073	231448.897377951965	4439.6902424007
0	5083	232795.583756544798	3666.7003524134
0	5088	232801.595822459828	2557.3619361004
0	5093	233003.445362431559	4240.8978042331
0	5102	233507.590297234414	3252.6778764909
0	5119	233653.682173974663	4717.3870807137
0	5135	234242.409589571745	8218.8369055576
0	5151	234705.216975849777	3401.3095611668
0	5209	237303.24600718297	2564.426861342
0	5214	237663.169068268543	2684.5811043755
0	5220	237841.389515122486	4196.1958519701
0	5241	239982.042176073636	3348.1323296151
0	5256	240787.898113423904	4401.0821184024
0	5271	241570.384311596167	7092.6054778511
0	5286	243078.683865244318	4363.4825298245
0	5310	243372.130717888105	3591.082081127
0	5323	243661.261612480012	10098.59289012
0	5356	245472.381863719767	10613.29111142
0	5361	245568.034311602496	16986.87574741
0	5366	245711.16604159585	4579.1050670535
0	5375	246455.366440759931	3125.0495000489
0	5393	247945.927581919919	4804.9580540096
0	5410	248560.136787593658	1412.5738548112
0	5422	249236.419356101311	6576.041082102
0	5435	249554.633018517816	4525.8698828652
0	5498	252693.479187389558	8979.6853999598
0	5503	252700.406446184092	2629.5746871654
0	5529	253741.963756150973	2194.2039708568
0	5574	254537.026685624933	568.27617922082
0	5604	255242.220899601004	7292.7487822446
0	5622	256116.793540480718	4106.249336897
0	5632	256281.700606619829	2688.3175894974
0	5640	256466.66522553726	6538.6829890609
0	5646	256579.352715023069	2383.9032180287
0	5664	257527.252783540116	4379.6156436375
0	5680	258125.221915138205	6647.0550425772
0	5685	258286.915987169941	3832.2719926216
0	5697	258952.18277799621	9732.8488157358
0	5702	259188.479017542559	4892.4170036191
0	5707	259304.701647977692	9468.0311652681
0	5712	259316.607879283015	5343.3859753338
0	5721	260155.223091032953	3348.2070909453
0	5741	260845.182305129307	5588.7568968621
0	5746	260949.136398953098	6461.6798465622
0	5763	261378.840708021326	4431.9026238873
0	5774	261721.570393209455	1364.7718356615
0	5813	262616.028843594174	1473.2998980804
0	5862	264831.893703870519	1105.0133510372
0	5872	264919.826599138499	3097.5813669392
0	5881	265604.66370836549	2898.4848503304
0	5889	265791.466247169032	4103.272203289
0	5900	266085.914901958325	1875.5205222125
0	5925	266859.126036288568	4994.7405340327
0	5931	267007.196074345745	1055.5510568478
0	5939	267508.820700586334	5339.5968169371
0	5961	269704.277160381195	6591.3190624126
0	5995	270950.551512098548	4695.8327740814
0	6003	271344.1233257453	3092.4996733901
0	6035	272547.843408357163	7813.1075965378
0	6065	273632.271852961994	3814.7443440983
0	6074	273867.724359978885	3787.8469157244
0	6079	273878.774632320765	1565.5694933509
0	6087	274472.019224512406	4834.4993337844
0	6119	276286.933466777237	4293.5878314039
0	6136	276898.294229847495	4576.4026890713
0	6154	278457.561551299014	2161.2258718542
0	6162	278642.902576341673	2672.1075774555
0	6170	278847.214899681843	6785.7917695884
0	6196	280195.071746589288	6076.6865109046
0	6208	280936.937478833762	1759.3785747404
0	6214	281451.819394183871	6790.4255218623
0	6231	282525.540510488855	3331.9210072997
0	6257	283740.3917934997	865.11665319978
0	6268	284140.720258552607	2359.2443246327
0	6310	285384.61595244351	8211.3466379746
0	6315	285552.896582953702	1486.1321943495
0	6324	286439.169658170106	1923.544600607
0	6336	286809.421085228569	2272.8217638739
0	6361	287955.042929495856	16631.218139455
0	6367	288211.82503737464	4983.9839695745
0	6404	292237.864031891168	7334.47818695
0	6414	293496.53339127997	2752.4520045698
0	6426	294145.057851142019	6905.0453840469
0	6454	295379.492475191258	6418.8232878487
0	6496	296856.5784294862	5297.1453928098
0	6506	296916.961387940325	1545.7878800455
0	6535	298437.971486128983	2606.5380071897
0	6547	298636.048211269672	1814.867291926
0	6560	298918.013216246961	12118.803653865
0	6569	299324.582609189262	3322.0555883651
0	6577	299999.800542219356	6170.1545883638
0	6617	301896.466338045775	3419.7679922489
0	6626	302573.384147807737	2523.2617994264
0	6672	304045.453889729651	3494.7986355682
0	6683	304207.837751092699	6045.4434282748
0	6705	304921.942999691082	6941.4456146122
0	6727	305717.451337628099	6039.6813411264
0	6732	305726.364771567369	2186.9722858333
0	6740	305968.745874719516	2818.7019229388
0	6746	306127.769004687596	2441.2492041836
0	6754	306298.019884007308	11982.020225034
0	6762	306552.273581665794	5839.7859518908
0	6767	306569.9673736838	1804.5557717912
0	6785	307898.520901186938	3734.3888540394
0	6793	308172.353677337972	12877.729045643
0	6808	308739.931594763077	4546.7906191916
0	6819	309039.312171821532	3547.9706650725
0	6831	312512.841028102187	5753.378066525
0	6862	315379.749422941988	1726.660396377
0	6867	315449.124738627348	7034.5711737927
0	6893	316788.986523276955	267.81197071287
0	6924	320005.21989400094	3315.3644499582
0	6945	321575.686341878415	2192.0016714691
0	7027	324165.087476341351	5346.5217952737
0	7046	324470.591826625273	2858.4956875918
0	7060	324815.687720953114	2758.7970547458
0	7076	325257.820636188038	3930.222112943
0	7082	325502.434610462719	5544.6918965736
0	7096	325685.869824351249	2719.4995799094
0	7106	326033.468092610074	11715.985286741
0	7128	327109.70588170399	3134.8473530597
0	7148	327446.84523496006	3055.1501533481
0	7156	327541.100358451221	5179.2915929403
0	7161	327631.688834988792	5372.1131095603
0	7170	328006.541247113194	5383.4791185819
0	7175	328075.070406662603	2496.0854597495
0	7180	328090.626334231759	1411.7019938509
0	7188	328300.256312865174	3531.9809529674
0	7198	329827.448368397607	6924.9803181974
0	7245	334756.88480949531	2450.9407011079
0	7253	335240.424551286426	3263.100689347
0	7283	336774.638442283746	640.26920883132
0	7288	337041.110049828255	10991.586865782
0	7297	337551.478661225307	10537.370439005
0	7317	338912.866101970834	4856.2189660973
0	7338	339906.982740489644	3322.095523276
0	7348	340279.658043083822	7308.1928715752
0	7356	340458.557945721348	2235.1185445516
0	7366	341746.41320973415	4111.2175228238
0	7421	344523.453267105436	5152.869431643
0	7429	344730.328414583911	2781.3000148386
0	7469	345887.436914163336	1982.435530672
0	7474	346013.111376661773	2828.4663313351
0	7479	346299.080683571168	1356.8095533711
0	7484	346350.226750517384	2372.6355537546
0	7502	347833.883099761607	5691.0519826302
0	7523	349014.8805576701	3934.5225406304
0	7543	349736.162243348057	2692.0265118571
0	7553	350028.854008912766	5345.7059560286
0	7574	353747.155553335366	4752.8302783987
0	7601	355554.013152725868	7192.4440048221
0	7633	357612.048737651707	1227.5401820868
0	7645	358166.048207674541	8462.2835186138
0	7680	360135.308823578005	5316.1353929281
0	7685	360288.37654349115	6898.9335525385
0	7693	360725.116268838232	4194.8595863918
0	7707	361052.310923697266	6222.7295102291
0	7716	362053.524915496356	4366.4191583638
0	7730	362646.879146329417	2114.340213468
0	7738	362806.954382730765	5069.7943869667
0	7764	364406.353302869687	5173.5815631513
0	7773	364636.917776804734	3575.5159735309
0	7799	366314.25892263808	3075.4434041316
0	7825	368207.964728425526	2812.0994182706
0	7834	368707.638066193188	3072.9570451946
0	7859	369570.693182700308	2227.56504377
0	7867	369736.080287186733	2083.9563582389
0	7896	370704.71703475615	1849.4843984214
0	7968	372707.407687119348	9563.3020699611
0	7974	372771.386307905487	3854.9980016136
0	7985	373130.2094205564	3132.2758545831
0	7996	373841.617106545572	2785.7692453327
0	8007	374015.344048286026	2321.0619217248
0	8016	374448.029916608964	4604.2151073198
0	8027	375163.459655239424	4010.3655082842
0	8050	376224.210589949226	5488.0409012276
0	8059	376552.370491108945	3640.4647921796
0	8064	376754.097529220855	4662.5167603623
0	8072	377036.994213543547	5271.5032134586
0	8113	379941.690020592943	3171.3575929778
0	8128	380811.676608501944	3397.2256379415
0	8175	382342.586259877951	11756.249733388
0	8197	383608.927660553903	8082.8131956265
0	8221	384242.872319342171	3432.7562219118
0	8226	384270.450232956432	3187.4271499504
0	8231	384469.691058764414	6553.7751034799
0	8239	384621.681276020961	1325.4922886245
0	8248	385019.23316568044	6315.8157921696
0	8256	385126.244915054159	3705.4054728209
0	8267	387264.181107907049	4513.507353738
0	8293	388784.773274427176	1068.2927360434
0	8303	390418.852094079279	16278.638134101
0	8321	391880.478446001943	10896.600936894
0	8355	393766.985766583977	9724.9004542791
0	8371	394749.59241868301	3605.0542979056
0	8379	394978.852915313365	12952.191588142
0	8390	395449.347161577339	7576.8004633647
0	8433	397822.187886679227	5729.8658436951
0	8448	398372.260599257698	3461.566349619
0	8461	398581.149971099262	5156.3883516106
0	8466	398689.23284226354	2574.6242737377
0	8484	400396.609194462032	4102.293945569
0	8493	400714.285136446817	2777.0424557119
0	8526	401603.525667057551	8304.0839573342
0	8535	402042.98446906753	752.04513281689
0	8555	403405.653869952433	4300.4710239728
0	8564	404072.991899242019	7343.9369097489
0	8570	404552.686843085011	3404.3352506084
0	8588	405964.99316897707	4669.8243718854
0	8599	406256.277382137243	10207.388633761
0	8647	409103.907981500281	6722.7723350913
0	8694	410770.423147329746	4133.8763741996
0	8714	411692.889636950414	6863.7149563694
0	8724	412514.395310138448	4461.6224467387
0	8744	413516.862591833419	5045.2348379505
0	8759	413726.303157641352	5128.5759534267
0	8767	413780.957303272723	4591.3032989357
0	8772	413797.143497791309	5254.7582720354
0	8780	413883.704009854781	7712.142257198
0	8791	414141.356661309652	3586.2436611909
0	8800	414804.037109274396	2594.3121169184
0	8837	416545.082732981663	7210.4407430631
0	8842	416552.202831983045	3420.3335501076
0	8850	416973.318277871176	3758.7573844385
0	8869	418892.761212277667	3474.9689933767
0	8878	419380.080677223955	4533.3448706809
0	8891	420855.373059323731	6980.0467923367
0	8899	421203.549403714075	5171.1057492827
0	8936	422881.142306254197	1634.1124596166
0	8987	424625.011353992375	1807.5553869625
0	8995	425071.081879617323	2079.8105229225
0	9000	425131.96354060577	7238.0991217915
0	9005	425151.191705037044	4068.2813129143
0	9046	427343.789528412531	4839.5815775074
0	9067	428780.726659939385	6097.7752381441
0	9084	429501.153066336181	3109.0573124771
0	9103	429908.639776212914	6099.8506531319
0	9118	430616.828442481185	4050.3731244088
0	9133	431170.610983846792	2164.9340908212
0	9142	431504.854575769195	8177.5511660066
0	9153	431992.588400678087	2927.2539793206
0	9170	432474.155026333814	4162.212990142
0	9182	433187.56626932684	3118.2606722749
0	9187	433230.252465089848	6852.3853776709
0	9195	433271.524725858254	6262.8307211492
0	9209	434059.503163248786	2164.3039353036
0	9221	434702.713198533506	4408.7734171076
0	9252	436017.870585655634	1205.0901090554
0	9267	436933.444867063655	2546.2883358763
0	9277	437045.072079983308	3809.4904063194
0	9286	437690.362670119948	2186.4713855949
0	9312	438778.123504691359	2072.4907867449
0	9320	439278.868642595891	1349.9501882877
0	9358	443634.057148209374	3010.8718759981
0	9379	445350.171738901279	2379.2565159939
0	9388	445578.539078026948	4340.7905131024
0	9404	446043.997800548096	7679.2162392217
0	9409	446146.947359133011	1450.7944721591
0	9456	446934.778823202647	647.96894712033
0	9467	447340.659362004816	947.39611951706
0	9494	448633.55786336497	2116.0664889802
0	9548	451448.182508077692	4941.8433366955
0	9559	451616.397126250012	4703.0620178907
0	9564	451633.026283625973	6128.6637990499
0	9569	451645.604771179017	2925.7624826654
0	9592	452999.911294709697	4843.6409159707
0	9605	453974.312225566815	6588.0174159344
0	9620	454448.822951279517	4531.5707295515
0	9634	456146.756136493993	5887.3434121362
0	9639	456244.289200564883	7304.9843033043
0	9667	457421.889757209508	6075.0316703784
0	9681	457995.818553365068	5421.2667480927
0	9698	458839.324847236518	5257.1204586127
0	9707	459058.941760314741	2377.8056506121
0	9724	460415.990540176022	3112.5683203151
0	9742	461978.123002557907	2242.7406258725
0	9761	463621.807835877769	6755.6295546772
0	9775	464004.723946192159	3040.5527039477
0	9801	465140.523010347574	7055.7213505473
0	9806	465184.536898839306	11770.267706092
0	9811	465185.196780054807	2123.7835690948
0	9828	466280.176355956592	2148.2655194282
0	9887	469632.217427029578	3254.3472999802
0	9900	469970.408340869651	4131.7621018785
0	9908	470004.282175004339	2590.3689112546
0	9920	470340.996924505844	2324.3804709211
0	9950	471113.130504324571	7129.1286314019
0	9955	471216.671137437174	3539.1592848671
0	9975	472239.063399208511	1848.1324048721
0	9980	472299.195770867195	2780.6993101657
0	10004	473437.336104216063	2516.5831173051
0	10009	473532.717340221146	3317.2814067437
0	10020	473846.555857458129	2145.6313982844
0	10060	475646.570025164995	7859.5325843019
0	10080	476490.999645162217	2717.5147223193
0	10126	478873.038293452626	5155.1182925346
0	10147	480051.436555747141	7275.1523560597
0	10152	480124.863273104864	6129.3630438016
0	10160	480262.514658324574	3900.5691599014
0	10168	480353.874249877671	3844.8458517187
0	10173	480677.2077651431	5887.8027751629
0	10178	480746.436292645346	4483.7461230246
0	10187	481000.078360772879	5491.7356767537
0	10192	481161.170027975767	4405.474156705
0	10210	482363.665716478013	4252.9620641659
0	10285	486383.833260332972	2731.9322292103
0	10294	486870.122316089038	3892.6467555072
0	10305	487620.216907370991	3768.3182325993
0	10314	488862.298069391732	7013.0180570041
0	10333	490910.86075790622	5501.3028568695
0	10345	491254.165134400757	6940.0198776485
0	10392	493275.621393166563	9563.8857198532
0	10437	494671.098954079276	2713.4105584395
0	10442	494860.195025309802	8209.1873696079
0	10463	495933.490352312436	10290.946737192
0	10477	496288.485736826406	1744.6899060903
0	10487	496410.675276494739	2391.8813415429
0	10492	496438.623314659457	2667.4235823482
0	10509	496899.29794665972	1705.8579611508
0	10518	497416.894469587484	3326.4481406413
0	10602	501273.287473785973	8553.6998014164
0	10610	501344.6015686704	9802.5797059689
0	10653	503197.119853180139	13731.228141809
0	10668	503538.782895665191	6889.1792477172
0	10684	503996.601822493983	13058.51339521
0	10732	506546.53891085617	7078.7589681076
0	10744	507859.61608915801	9013.5066348287
0	10749	508023.133481833579	8967.1955327089
0	10754	508144.014027272989	15534.547060365
0	10762	508363.954271926145	12235.211024959
0	10773	508587.434665760632	8588.8629623782
0	10778	508639.608983523001	7315.4348268279
0	10789	508959.98740892595	6776.3912033284
0	10799	509200.050505750293	8598.1666846027
0	10805	509272.559777546863	6645.2388301962
0	10813	509699.903365385599	12059.036722635
0	10827	510361.371891070779	12743.98668064
0	10840	510741.392749732469	7495.3493872338
0	10861	511980.376446721285	8175.9172195195
0	10875	512368.964191993787	6076.0472523369
0	10890	513035.807692115743	4821.730015768
0	10946	514561.098747812136	5064.6505558095
0	10954	514766.004662911565	10149.762913316
0	10959	514806.321366542865	4245.9059344916
0	10964	514840.743562416142	5928.6904260782
0	10972	515045.039213972424	3396.664422943
0	10982	515207.495023842092	5267.1136063409
0	10991	515942.972127926156	3158.6392563789
0	10997	516023.348188657994	12295.610941889
0	11002	516597.807484784202	3583.2034701568
0	11007	516653.341728610717	2901.6617741116
0	11039	519326.793287995332	5209.5573712101
0	11067	520623.528682797191	5623.7726796295
0	11075	521025.785433018086	7749.5400230864
0	11087	522398.910338587618	4595.1830169066
0	11095	522722.127655222252	4231.023768541
0	11104	523202.752874455753	4341.7183600754
0	11153	527339.128093171392	3028.7655279606
0	11158	527934.105002541932	10899.418456124
0	11178	528537.797067415868	7795.6220536126
0	11282	532761.785828615134	3983.0971864091
0	11287	532938.14957768752	7224.6345088671
0	11295	533168.975414801312	8417.5018342321
0	11307	533481.547397534226	5541.1146350168
0	11370	534909.94102173211	6443.5333539389
0	11395	535614.000808992132	6807.9837413787
0	11400	535775.970642848224	10354.069334824
0	11424	536642.88708814532	6883.6318413142
0	11438	537047.133547421002	5446.5322815997
0	11451	537269.028851236417	6285.8239039839
0	11503	539702.711677639544	5603.1026232133
0	11509	540066.797006541889	5509.0201456206
0	11514	540101.776888580578	7787.9853720901
0	11522	540300.61642041121	6569.8454822301
0	11527	540415.288667126382	10579.668072205
0	11533	540799.754511169189	7574.077857171
0	11538	540914.171459514629	7367.5333821781
0	11556	541570.324849232198	8123.7297784661
0	11680	548246.051297799972	13298.954203633
0	11689	548521.748045507657	12307.316507327
0	11733	549690.482769636804	12439.01286681
0	11751	549801.807195824219	13015.015672734
0	11759	549940.000906391506	16366.392105681
0	11764	550009.170024527297	12073.101615771
0	11769	550245.089996968443	12498.657161605
0	11778	550557.913275092847	16188.364872371
0	11803	551501.766223712006	9651.7538636974
0	11821	551925.265450349976	9879.0268460231
0	11827	552086.189728850278	9908.6551564144
0	11838	552668.449022669753	21395.949330045
0	11852	553317.782447949682	10453.672365133
0	11857	553361.610858645151	10674.378663484
0	11862	553461.148289307885	8823.4319846109
0	11874	553596.565811980104	9456.6249750236
0	11947	556922.663753907259	14102.470665659
0	12075	561338.811671218749	20117.794200745
0	12101	562407.872279478091	13703.169999921
0	12116	563835.174295477152	16216.622132915
0	12125	564004.862420818987	17295.658798698
0	12135	564151.620031636142	15444.447223644
0	12143	564433.654570529016	15544.049704493
0	12163	565025.783266929854	14551.663359081
0	12224	566617.587562515	16010.973324708
0	12234	566706.795180432619	15286.852073046
0	12248	566950.620671509074	15937.597294767
0	12259	567544.978330078437	14065.153763909
0	12268	567928.33552002421	19509.339860172
0	12276	568485.438164597447	27329.639876895
0	12282	568708.198349492106	30533.245387306
0	12293	569145.330533386693	14701.134637345
0	12391	572815.240768478642	20358.72779286
0	12405	573410.127504668052	17094.983783591
0	12418	573748.34620843509	18750.645444308
0	12424	573864.277780235102	17097.046384154
0	12441	574322.718368239164	15909.628325773
0	12464	575363.830644550995	16534.225467296
0	12470	576349.153370665899	17776.70468295
0	12475	576380.117269410088	22669.943888147
0	12484	576768.374488927119	16165.859117133
0	12520	577610.328557733287	19443.7385234
0	12540	578478.468346289509	22413.832511924
0	12564	579901.684409548429	19330.64371326
0	12604	582535.012364587703	23151.210756573
0	12609	582570.645840240732	23608.46103651
0	12618	582803.930312650905	22083.910713825
0	12623	582931.227040284379	17695.513913174
0	12631	582979.472253631533	28469.438301263
0	12636	583043.626136730856	20862.25534422
0	12641	583166.646198928326	17453.556712714
0	12646	583254.944884189379	18683.431456446
0	12651	583294.625650915661	17366.324052123
0	12656	583331.722578899318	19048.413279454
0	12668	583642.954430598838	18650.861958196
0	12678	584100.04385880811	17687.737975462
0	12690	584822.229511858233	16038.725965669
0	12709	585141.958535637984	16087.231782702
0	12714	585176.441854239781	15846.181319265
0	12722	585623.45470750612	21657.021454864
0	12735	586515.060642429694	21074.173154679
0	12777	588528.058400706677	18033.911250138
0	12809	589719.634215297032	19474.073401192
0	12828	590292.991036512852	23570.837388047
0	12855	591710.768981502368	19175.296240644
0	12966	595507.840212917619	24599.699866611
0	13039	599730.982146264457	26671.724116739
0	13048	600404.846738433697	29674.042642328
0	13062	600745.373863216942	30788.995922958
0	13117	603157.422568523631	41920.352219321
0	13122	603213.367566501176	29148.117029509
0	13133	603345.078764244485	26669.179437764
0	13138	603385.367387134832	29289.475341065
0	13146	603487.66051311708	26663.386657196
0	13166	604579.876452900716	27796.843763831
0	13178	605417.599340559757	25538.932597745
0	13183	605813.868935022941	27494.839183905
0	13188	605842.136173155976	25582.654759586
0	13197	606325.696103026974	28729.552478707
0	13202	606466.887119114568	25167.149997416
0	13211	606766.125396854292	23218.697792972
0	13242	608424.351596440805	28796.248550363
0	13371	615852.714526500492	28976.43610721
0	13397	616498.350499210842	30225.930027217
0	13408	616837.460354536694	30918.719182123
0	13433	618189.241045271866	30145.104842622
0	13474	619429.876600346951	31037.41065322
0	13505	620572.322732536444	31329.508371682
0	13513	620632.338614814274	30228.178645112
0	13523	620837.033023869226	35837.464193097
0	13538	621172.666994800079	30292.357749733
0	13588	622578.603583657855	31670.393264819
0	13599	622924.291444911101	34557.508532542
0	13604	622935.262263688371	31877.264532406
0	13610	623323.304108389668	38631.795595386
0	13618	623395.957916209592	31872.421066699
0	13623	623547.183753557285	30351.751913507
0	13638	624205.784838576199	33121.373603481
0	13659	624691.57162017874	31387.965049638
0	13701	625877.264091629516	30861.69370983
0	13709	626167.176590995193	36246.506642189
0	13739	626795.893603134164	29654.007817589
0	13744	626813.847247094195	30363.579716285
0	13756	627257.715218578954	29552.711990321
0	13781	627951.64064055745	30056.972974234
0	13795	628308.565824614969	35545.736199164
0	13820	629130.710409926512	28513.889649046
0	13838	629795.286608086706	28832.230299156
0	13871	630896.839562201579	33478.030499451
0	13879	630955.483419215485	29583.0167944
0	13891	631577.564519549938	30908.72355065
0	13901	631830.852467672159	28425.352769946
0	13906	632065.862170172484	36606.418892234
0	13918	632679.841936953299	39037.257894818
0	13932	633366.389463532469	29604.925195506
0	13937	633517.972762621581	26403.070372182
0	13942	633559.207203544654	26496.008341878
0	13947	633560.893975155971	26189.152688816
0	13952	633658.560827997699	31876.122146472
0	13957	633697.80101995057	26201.496391598
0	13969	634215.108561766924	26662.958434515
0	13979	634414.875607612816	26282.868681075
0	13994	634896.63959336228	26696.545587384
0	14018	635680.275367755839	27879.448418209
0	14023	635799.802936684519	23823.865842573
0	14029	636028.498119449945	26189.905344496
0	14044	636822.551390041239	21774.368616489
0	14070	636999.140451316203	26639.215417323
0	14078	637194.590079879109	21640.44439459
0	14087	637567.158810295099	19809.130178216
0	14097	638021.818948249576	20583.286165251
0	14106	638358.531455097761	25304.732465778
0	14111	638448.547723844505	20646.322956893
0	14116	638697.690810271851	20558.415082772
0	14121	638730.720629294132	18953.210751451
0	14126	638755.242776315815	17736.414438
0	14131	638892.855189416522	22970.282267326
0	14136	638971.137851008637	19861.025793395
0	14154	639610.971104667876	18483.504734221
0	14165	639849.878944399336	23385.057851759
0	14170	640257.612429225792	18067.018408771
0	14179	640702.087142632046	19204.237106878
0	14208	641594.344759179908	21010.647683933
0	14266	643428.833473461017	21029.142306206
0	14280	643636.777304319519	19034.345555401
0	14296	644189.766151035763	19414.990272631
0	14308	644846.059067412679	21206.234140839
0	14314	645389.483506545913	25638.05522575
0	14323	646279.182404016326	20155.61407331
0	14337	646781.508452630561	20367.655162186
0	14360	647505.662322958579	22659.648091897
0	14395	649349.680885076803	21984.143782055
0	14428	650892.466912164941	27215.246273385
0	14433	650900.391582678327	24468.209175835
0	14445	651275.381312064702	24371.237616018
0	14473	652327.240507113687	27066.039334152
0	14478	652459.123344642469	23804.41641311
0	14487	652500.326517728095	22862.532259786
0	14492	652555.197106489185	24471.821020022
0	14500	652673.824528225022	20045.908213978
0	14537	654312.13184889156	23078.508403255
0	14548	654397.442243102841	19534.449660218
0	14558	654630.67041727076	17771.557075343
0	14563	654644.73381383922	19834.202063559
0	14569	654820.627027725545	18555.772055776
0	14574	655053.882805615601	18168.827744392
0	14579	655068.158579021317	24762.454202139
0	14584	655206.494172289276	26023.509911402
0	14589	655355.879652014926	21528.389662109
0	14595	656077.83622664162	21191.191933809
0	14600	656230.004612056518	25937.098809437
0	14609	656489.067564822678	17324.410524284
0	14614	656703.633289953261	15011.365317088
0	14626	657015.182826003573	15714.562276326
0	14645	658318.686177852719	16101.340285538
0	14650	658323.187622506219	20898.742392898
0	14655	658339.961664424679	17070.612542459
0	14660	658431.393288332964	15184.550503932
0	14665	658468.128641404627	18065.137713324
0	14671	658665.282530556028	11971.555906303
0	14676	658716.892150034186	15120.775910944
0	14681	658866.927426469342	11703.448760683
0	14695	659237.75457230675	13579.669338092
0	14706	659354.180032449607	10197.896240289
0	14711	659385.447434055218	10643.045143812
0	14722	659625.640614870671	17261.147909833
0	14740	659848.12318341841	12507.10754374
0	14745	659956.895664315692	9478.6621330652
0	14750	659999.943236686829	10968.757230344
0	14756	660040.424634284318	9019.9048649286
0	14761	660140.410882315938	19158.000522058
0	14766	660347.354260614391	9061.0242502262
0	14772	660853.467058500601	8284.4592937968
0	14780	661445.473787765223	4559.1993203828
0	14789	661867.948025573379	7492.1821332952
0	14794	661952.407881500627	8208.2222378675
0	14806	662395.026560011546	3008.9579365921
0	14825	663107.5635532112	6194.2271642319
0	14835	663658.383931270004	4531.2243504675
0	14850	664353.69186687883	11247.425282127
0	14861	664642.074686197849	5197.4757991302
0	14879	666693.259193614569	4723.5422095867
0	14888	667467.041672989894	5290.3982334709
0	14901	668454.958616450065	5947.0550969392
0	14935	670288.441746101193	6122.5724260006
0	14958	671527.667587806312	1594.0687702127
0	15000	672782.710420596235	249.4557106925
0	15037	674645.054317881543	3595.3126667823
0	15042	674996.913063973492	5840.0572578078
0	15063	675892.288035854998	5877.5687248304
0	15083	676955.047553184535	1669.3984852836
0	15130	678869.965899716395	5729.808129087
0	15155	679605.212097109426	11260.886579825
0	15166	679911.600445712216	7895.3399543161
0	15207	682283.574090324369	16258.676409094
0	15218	682511.061736560511	10785.409841555
0	15223	682585.535599882676	6831.5111511649
0	15234	682880.562280472811	5339.4583728185
0	15244	683070.353323348323	10133.488471769
0	15253	683661.434395775546	6289.5431002046
0	15268	684295.302717458858	5735.7931519345
0	15273	684323.44752865273	11440.443784812
0	15278	684496.388742750197	11916.811179012
0	15284	684965.773884647722	5355.1159852975
0	15292	685210.207514789778	8954.4623457111
0	15297	685248.262750631961	5137.2816571923
0	15309	685529.312406304524	6689.871600685
0	15336	686675.287139623806	4444.1722159241
0	15353	687037.895153046384	7234.7036336191
0	15373	688410.355117598178	2848.7370720771
0	15401	689602.093085388146	4179.5068344454
0	15410	690158.977547720868	3852.1713616784
0	15415	690171.619041377521	3345.7311662236
0	15434	691933.255579991566	4112.8659957528
0	15466	692736.102265226165	4019.0923258425
0	15475	693629.827354264321	1707.4967071203
0	15496	694591.937964309296	2112.1679907472
0	15526	695595.543092665713	10089.279605435
0	15535	696117.957442807278	1435.7224603756
0	15575	699224.105211886595	7305.6879646419
0	15585	699442.78024972372	4517.6234740406
0	15593	699461.949819555858	16854.544599623
0	15673	702424.992402349435	14832.572963763
0	15719	704311.998051936894	6955.2220572185
0	15730	704890.555742232867	10686.919768023
0	15735	704985.742664336736	10439.252140481
0	15742	706230.665614596099	8864.1837662437
0	15747	706304.561890828589	6510.4105274074
0	15759	706609.59982370874	4726.8664094872
0	15777	707081.655341441875	6734.359571871
0	15782	707131.860014887263	5036.3065476484
0	15788	707255.265840928552	7750.432402837
0	15793	707489.097852709663	5256.999541333
0	15798	707563.6191605501	4708.56698912
0	15826	708029.373965507811	5577.9884604581
0	15837	708075.197660706175	8620.0745359163
0	15842	708105.567473666208	16240.342142765
0	15850	708328.994774311785	5107.4037309593
0	15864	708801.574673797056	9741.2021258579
0	15879	709772.550835398264	9739.2069441382
0	15893	710217.763114349115	3770.1984327632
0	15934	712622.980536049152	6199.8338351902
0	15955	714001.989794566252	5694.2418260908
0	15968	714365.368868230241	4355.073580277
0	15981	714605.512038914441	4480.3951896241
0	15995	715007.7333032532	7369.840424196
0	16000	715158.076302286199	4992.7633425943
0	16018	716301.765180601229	2055.21218214
0	16058	719323.531641305792	6251.5047409364
0	16080	720278.569428943869	4613.8762727682
0	16095	721229.917010907841	6837.0275384807
0	16117	722007.944262009557	14126.657595898
0	16131	722740.299039355043	5056.8885083351
0	16141	722899.709719657094	11472.351311271
0	16157	723982.356121800423	13194.218805219
0	16167	724175.692665782607	3585.4176888457
0	16188	725167.842093910002	7820.6981334786
0	16207	725702.797964906857	4688.5182480602
0	16215	725753.844661330416	6764.3034337971
0	16223	725966.78749565865	3960.6006026931
0	16234	726127.544375513235	2350.4633269591
0	16242	726155.63787088309	7844.3374186006
0	16264	727410.084636972535	2929.8380016576
0	16273	728215.20138405713	2072.8121863297
0	16282	728579.198270298707	2795.8884937868
0	16299	729536.704494438911	4713.300135219
0	16309	730542.567495904851	3286.0941702298
0	16317	730971.42852472881	8304.6928154034
0	16376	732893.292114354145	4312.6593947295
0	16384	732980.047960244871	1765.5299598053
0	16404	733806.582416571361	1918.9927615985
0	16409	733817.213624698847	1956.5746142531
0	16428	735030.132774206199	3695.7342527943
0	16551	741208.221438889735	8946.0124549272
0	16559	741375.027438955592	6259.035132727
0	16567	741588.344832052888	9380.8172573471
0	16591	742940.95484704566	8015.4239344752
0	16602	743307.883593435314	3335.9221446184
0	16616	743827.715804875965	5740.1381271834
0	16652	744770.851786279859	9545.3823711908
0	16657	744836.560690368354	4891.3880096534
0	16665	745157.135629079752	4263.3195602468
0	16690	746268.07921676655	12867.628184146
0	16729	747418.092100184529	7155.2691597734
0	16768	748627.75099038435	13262.049216964
0	16773	748643.75562132633	4664.4404291854
0	16784	748961.078655437576	14295.224168375
0	16851	750242.720664848516	6261.9719984224
0	16859	750300.853466836346	8107.4235654081
0	16864	750321.158857175694	10630.396387895
0	16882	751409.054694340823	10518.524534437
0	16893	751532.053999669512	8187.8569388084
0	16904	752115.756023149004	5431.5944871808
0	16913	752372.266439078475	6462.2507069199
0	16926	752975.499269091124	7342.2005576314
0	16932	753082.676975651761	5883.0555142139
0	16940	753615.226932347917	17239.632702052
0	16949	753784.575834820738	6051.4365205071
0	16969	754553.531039573043	5890.5997389831
0	16985	755860.120548124006	8761.6651954224
0	16990	755901.653455978062	8786.8376017265
0	16996	756046.317955329228	6998.1373970526
0	17001	756611.89557276676	7183.6249810155
0	17013	757357.024673442839	15957.265975003
0	17032	758038.709805006632	9355.9478639858
0	17044	758711.793223319268	14130.549599615
0	17060	759094.294727064843	9663.0216894175
0	17065	759139.523879823688	8204.7828267259
0	17070	759261.423268699501	7143.8155146795
0	17081	759654.249791465811	10645.244809016
0	17087	759794.558935992007	2942.7829068488
0	17095	760102.264720263551	3429.605216114
0	17121	761521.625258984283	7419.0984458648
0	17218	764682.648361106748	6194.2963479384
0	17244	766303.152735851685	6439.1114508435
0	17249	766441.860629269198	12698.135143436
0	17254	766443.399361590295	12187.507761984
0	17260	766500.535398012901	7893.6015141618
0	17265	766694.768317083359	4876.2685248022
0	17273	766986.033276074486	5783.4900173247
0	17278	767141.086249669822	3585.4362873576
0	17288	768460.685794884501	7803.6346647502
0	17299	769050.403153189033	5418.6014420583
0	17304	769338.60673091913	5045.5642370635
0	17332	769998.419594996653	6286.9535380412
0	17349	770415.510451931592	982.2990042842
0	17362	770850.500424656826	3423.7384276066
0	17371	771051.403506823729	6524.3538796876
0	17380	771756.239175145817	10150.481461488
0	17391	772086.570758182871	8492.5961627196
0	17453	773719.4458317305	1851.3635203869
0	17475	774290.449200153435	4609.380925945
0	17504	775052.64969080783	2496.2465579914
0	17523	775563.065309787111	3408.8691746999
0	17532	776271.765099202094	6346.2110319013
0	17537	776384.232825015792	3900.1732027249
0	17542	776456.83051047778	14130.075511586
0	17547	776493.499296040526	3868.6878751877
0	17556	777141.557033197784	6833.8720978072
0	17561	777175.491060774168	2954.3522213109
0	17566	777191.613415706071	3459.0291351955
0	17571	777226.947729865277	3820.5323126075
0	17579	777595.572164517333	3122.3448958195
0	17616	778714.605740039537	3748.0726139249
0	17625	779636.421460090322	1598.8239073805
0	17630	779982.114684259506	2202.8053632336
0	17770	789715.336704680075	6618.3301604335
0	17776	789870.431739812046	11601.183557771
0	17784	790041.002928498822	5010.9678809518
0	17792	790094.343701787004	4570.4147046501
0	17875	793010.16815397542	7155.7237405623
0	17880	793128.313318712639	6545.5116009462
0	17888	793306.491130328957	6987.7071983067
0	17907	794687.90203125952	8926.0287471322
0	17987	797506.292547901141	10841.262156084
0	18041	799412.989777474684	14121.772237404
0	18052	799849.708605956955	17803.857881437
0	18064	800352.146535509105	12651.502510694
0	18137	802834.341416146735	17918.020974355
0	18150	803030.414073347366	12867.173335544
0	18164	803448.189707000663	12025.88967937
0	18172	803653.206715711895	12615.798367097
0	18183	803912.792689825831	15574.66112769
0	18188	803936.495890119808	9611.9781329038
0	18197	804140.505478815576	14042.412515019
0	18212	804809.656072834916	13146.252098444
0	18234	805540.628961404923	11164.840219489
0	18239	805922.639437224847	15843.132671384
0	18247	806030.762657243736	13684.176009665
0	18257	806141.450535985722	11202.588152064
0	18266	806265.392098995699	8804.456934041
0	18276	806416.413486824159	11592.274525911
0	18281	806749.939921970095	9152.2580331755
0	18286	806843.801989129623	9076.1268104701
0	18294	806976.833150377118	8547.951147242
0	18322	807982.884532026887	8907.0956438809
0	18334	808696.041167204435	13531.630355269
0	18348	809490.441459662102	14621.058132893
0	18353	809525.531792393792	9348.015887902
0	18358	809715.769513440075	9151.1170873708
0	18392	811017.000321993394	10548.889681659
0	18431	812367.278249229328	10205.887871459
0	18449	813276.040503176065	12214.072972058
0	18478	814148.994535834251	13004.00538287
0	18487	814607.475155081947	19530.169336824
0	18492	815039.183804596781	12140.687854639
0	18497	815191.043083938204	8994.0131401603
0	18509	815370.081936779251	8269.7234337486
0	18530	815985.247882745553	13169.27186671
0	18541	816134.655705517043	9187.9149205459
0	18549	816308.940087447293	15177.196103876
0	18562	816374.076039988146	10363.212684919
0	18570	816610.756524881869	12174.662773957
0	18582	816870.794044415074	8416.9200929364
0	18587	816880.386154533871	7141.5742931343
0	18595	817303.962731376019	7045.4066578169
0	18606	817597.031682767967	10335.756465918
0	18611	817905.444796653601	7051.7647379941
0	18617	818317.936323667826	5314.7404454763
0	18625	818608.865647587305	3353.6148596211
0	18634	819666.936203590206	4316.8244219336
0	18726	823558.021660130787	9844.9922909369
0	18740	824248.295978401371	19579.819658807
0	18751	824319.05565216569	11236.725282727
0	18756	824322.238942238882	8390.9616516793
0	18761	824393.928476078233	8091.7044525974
0	18769	824513.052243667691	13608.557629709
0	18783	824818.899032397818	7937.7941695518
0	18789	825034.411926524405	4575.8387801811
0	18794	825458.117532302298	6387.0471113407
0	18803	825995.750980866002	5241.7296347344
0	18821	826445.568973778311	13227.585268841
0	18830	826947.552943524043	4189.6796631543
0	18835	827027.404705840274	4225.9537816037
0	18847	827364.951666119383	6826.749194532
0	18857	827475.838142498829	4425.8147966186
0	18866	828217.803025133634	4649.9243306905
0	18879	828303.563851019253	955.37903771914
0	18899	828983.985867541048	7193.9426551003
0	18904	829103.303826929066	2820.6244974711
0	18930	830541.3660644785	1414.8234650299
0	18951	831886.004312725524	6343.038490721
0	18956	832002.36034352219	2687.2979688506
0	18964	832380.114212678476	3612.913636083
0	18992	834830.017225040706	12833.92295539
0	19095	839186.792345222845	5620.4254722502
0	19100	839204.831663315716	6297.7567398063
0	19113	840427.480244194621	4679.785330203
0	19135	841001.677808440398	4103.8332460224
0	19143	841065.19210288906	12943.72465509
0	19180	842331.817324511209	7246.982262799
0	19191	842563.959359765046	6552.8696067796
0	19233	844251.349153970677	7206.4458452438
0	19238	844423.22105248374	13693.928577902
0	19250	845172.118386510596	7232.3711201923
0	19304	846905.657385288135	9256.3597986562
0	19341	848908.788492051916	12826.627916551
0	19347	849168.651996903492	8138.3075577819
0	19355	849224.786734015267	8103.0062943066
0	19360	849245.289770576775	6659.8944046972
0	19384	850221.835978994811	7709.5978320796
0	19409	851343.911172192099	13153.648641538
0	19414	851546.101127079995	6810.8194282635
0	19419	851834.663309298968	6141.0046498704
0	19425	852362.393247350222	9213.0733838671
0	19434	852828.16962079713	7615.2781780276
0	19455	853408.22306563386	5878.8187181406
0	19460	853454.897478816118	11925.633937135
0	19466	853508.974772041344	10783.489456767
0	19471	853560.232200832881	14230.024131558
0	19479	853814.410094680333	6200.9160572164
0	19496	854533.538923143337	5046.5675047124
0	19515	855088.141623581253	5805.5439489413
0	19523	855254.103730434129	1581.3652327363
0	19535	856370.399861058363	9469.4199041541
0	19575	857385.356374215456	7791.9716949807
0	19648	859431.130008632117	19829.469101402
0	19654	859696.293343769836	3254.600985428
0	19659	860027.094580828595	5387.2299642539
0	19671	860870.109050341587	4845.5390791293
0	19676	860943.072620978261	8427.8232722179
0	19682	861024.343399897995	3676.3177611762
0	19693	861681.001675726492	4980.9760184058
0	19702	861829.435525874217	4661.5083468553
0	19722	862855.753687689036	8445.2705767511
0	19738	863622.279657716452	6089.6082171859
0	19743	863651.968193903784	5977.6958973691
0	19748	863659.762653765999	10800.583789306
0	19753	863764.502435513534	5825.1630301112
0	19762	864097.680965346418	18902.325336169
0	19778	864382.527784669886	2691.2797311367
0	19786	864436.774543798104	18457.909565673
0	19815	865908.508513008112	7478.0981440128
0	19825	866071.437971886299	3651.1034119552
0	19834	866415.88472694621	1937.4328158411
0	19851	867291.924817028769	3227.6118363413
0	19870	868675.494290681626	4249.1061537155
0	19885	868743.924956858973	6081.9741825242
0	19922	870297.070432283768	1308.6720594006
0	19927	870489.079361358605	2122.2142574276
0	19945	871523.02609777343	2319.7513353042
0	19957	872986.905133141974	6359.952312544
0	19974	873266.326357809202	7626.2846768833
0	19983	873901.914312767221	5683.5279751578
0	19988	874189.970786637405	4763.5218120489
0	20047	880886.495390914045	4874.2539696548
0	20094	882476.323642235468	9932.8517211282
0	20099	882515.697154918279	11735.134175317
0	20107	882683.110884813709	5301.2742762063
0	20113	883033.514830014342	3348.9113761315
0	20121	883271.149855658146	3214.7155941504
0	20126	883450.697555192788	5394.423227738
0	20131	883458.713213402241	2553.5026809207
0	20140	883997.905080335108	3642.6989689373
0	20163	885496.390249487998	4326.5681021745
0	20208	888917.442561360346	4783.7231326462
0	20216	889323.905925542737	5557.4971369835
0	20237	892247.0735772833	4434.8834261763
0	20275	894100.24803108743	6501.8132361857
0	20306	895968.052457730758	9318.4837710034
0	20321	896403.003101093074	5437.9068888504
0	20340	897429.916993350961	5729.5781615711
0	20345	897452.176131649559	9447.3397198296
0	20351	897848.408051915607	5469.1202955156
0	20356	897960.426445251869	3038.4115442315
0	20398	899534.342121390536	5545.1494722426
0	20407	900121.92463303336	1380.5073770486
0	20433	902005.409741463163	3658.3826249792
0	20459	903252.432915671313	3985.3882834564
0	20471	904124.315136886451	7833.5082202362
0	20480	904728.665353848576	8623.8103166061
0	20488	904900.263582528015	9941.1647758018
0	20493	905036.41717737999	4220.6294154135
0	20502	905467.415136467723	7482.0630946095
0	20528	906988.709181411365	4553.8538111708
0	20537	907586.349825608384	1729.3154948859
0	20553	907929.524175454082	6814.6588358005
0	20561	908105.791828440661	1986.0126969315
0	20577	911979.810508168464	9551.6623770855
0	20618	914793.791282121659	1069.3407899612
0	20633	915417.307182800199	7742.0283939787
0	20692	917781.281311357896	4705.4917849082
0	20704	918284.908403470276	3049.4501139196
0	20712	918435.503412487869	4579.9097349119
0	20733	919758.980463595299	8325.3442205009
0	20750	920673.284798096903	5370.1491087445
0	20772	921380.55577872131	5300.6732469508
0	20777	921492.289218569096	5823.6933874158
0	20782	921509.567633890491	3190.8050569546
0	20787	921701.913168665637	4442.9785376263
0	20799	922066.073995822809	2408.3464769648
0	20821	923141.939400305031	7531.4755302405
0	20831	924123.546133369406	4177.3660797333
0	20856	925131.146575508406	4448.675895316
0	20874	926481.845389266624	1681.0212822051
0	20899	927640.216210171897	5061.7601550982
0	20929	929455.598783610481	3280.047217881
0	20938	930161.306119948991	8176.668636419
0	20943	930179.22816209919	5592.1020813457
0	20959	931649.276304478308	4431.8362053056
0	20995	933613.395479542858	2358.2179782387
0	21004	934009.354348320926	6096.0594682032
0	21016	934669.072908996651	2547.5889309688
0	21027	935228.47696738646	8461.9542074789
0	21041	935543.531746114065	7434.7932645836
0	21046	935577.175610969174	4342.7241774528
0	21072	938372.988118317967	5672.6296304711
0	21142	940750.05306702856	2706.8862625828
0	21159	941494.611851878918	5369.4255891933
0	21164	941908.604065398419	7102.0418258051
0	21173	942323.52515200411	3384.4660522589
0	21223	944401.343582882639	5980.0483050202
0	21305	947881.454345702628	9777.0290435914
0	21337	948910.996977273013	10066.546010029
0	21379	949950.304123085541	11537.37289537
1	1309	61384.436453153722	324.59540526026
1	1326	61939.140366283569	0
1	1334	62091.462173781576	0
1	1351	62807.908415114424	0.691962066674
1	1360	63046.743670836308	0
1	1402	65232.403359308361	0
1	1415	66027.360583074255	421.10580606857
1	1428	66540.461225071156	66.944867477586
1	1436	66685.581511459238	0
1	1446	67541.253508719979	0
1	1473	68022.118888266273	64.574044698512
1	1491	69011.114131765979	130.52314542406
1	1505	69503.315599560664	526.66099951335
1	1513	69661.826408454024	464.07733570416
1	1525	70162.482951203704	345.76664578425
1	1545	70930.136762873303	573.30977287359
1	1550	71012.044378548665	534.90755260535
1	1613	73117.013708311844	961.19042396308
1	1621	73411.041715542847	1008.2690268816
1	1626	73431.682853326886	1007.268917573
1	1632	73830.821376817607	1299.3402214329
1	1637	73847.344150323421	1092.0536601333
1	1648	73937.302877539124	1064.1561364564
1	1653	73937.768296959797	47.601524768722
1	1714	76530.389979166861	0
1	1731	77304.758703001636	0
1	1755	79065.695900492639	135.61341727143
1	1781	80355.675693459703	860.04658536353
1	1786	80535.084272988146	309.34809552809
1	1794	80846.40754294949	35.844085674266
1	1811	81013.28367384709	9.393640987309
1	1837	82790.54713099551	282.841334812
1	1870	85643.623476313757	0
1	1878	85889.045614852797	0
1	1886	86198.167950558474	0
1	1912	87575.294619699982	0
1	1929	88488.806796047214	0
1	1938	88744.504005542451	0
1	1967	90551.7233666254	176.19717839905
1	1981	90982.341016079445	0
1	1989	91329.549228037653	175.99357907277
1	2016	93637.767622839724	0
1	2033	94443.698214130537	0.946520804043
1	2042	95166.019947385169	46.471156706599
1	2060	96001.985067020755	439.52062423806
1	2071	96307.761813218623	287.68015245836
1	2076	96460.040114793769	278.38310162002
1	2116	97974.653267374069	10.687076582947
1	2152	99527.673153749969	0
1	2160	99746.391181575071	156.8387303017
1	2169	100000.134586271353	0
1	2187	101582.541909287625	0
1	2199	104455.910435803603	0
1	2224	105455.025983556124	261.17790966263
1	2233	106133.798147809827	0
1	2250	106706.722672597348	0
1	2284	108699.306364902328	0
1	2294	109897.075480091887	0
1	2320	110957.672454357269	409.55037460819
1	2325	110996.227079288609	439.71881866295
1	2334	111454.78735541842	741.8421951799
1	2354	112823.039152844028	0
1	2368	113187.061708525958	311.74657703794
1	2373	113221.866809542581	285.33970440344
1	2391	114314.967914078443	513.89269307481
1	2405	114810.728212174086	0
1	2413	115124.58957521712	0
1	2447	116259.770150757234	38.891922816316
1	2498	118945.552061953461	0
1	2506	119139.789342039446	0
1	2524	120042.297602523298	0
1	2541	121156.630723279678	527.78033495767
1	2549	121194.81379760192	23.168337209772
1	2575	122335.050566303964	0
1	2583	122563.581477962451	0
1	2602	124559.051323542211	469.24771196999
1	2628	126014.055059906435	0
1	2645	126961.506077121583	499.54644348842
1	2654	127854.282350117292	0
1	2662	128159.452952992545	0.149782788794
1	2671	128779.895573743686	0
1	2683	129539.940959422979	261.07431591811
1	2695	129816.536622056885	501.89880519026
1	2703	130004.696650032188	331.03428929983
1	2714	130098.155084865291	384.18010781393
1	2731	130556.826703224935	68.155194507166
1	2746	131836.295487075373	1221.0815396971
1	2779	132762.25068811295	81.557952354247
1	2797	133290.649702737428	0
1	2824	134270.287177587347	11.867356768422
1	2838	134580.650063328561	307.81609927987
1	2846	134705.793380117014	245.6643504903
1	2851	134735.268432703593	214.84703264008
1	2859	134936.499564379282	346.88566757581
1	2871	135590.83070516262	85.496155870469
1	2883	135940.572354573241	43.507052591484
1	2891	136323.875750658423	402.88853147803
1	2896	136324.337102629501	224.47839258179
1	2911	136588.20837705665	144.10022447144
1	2947	137967.620955247843	278.73646661745
1	2959	138124.634388944938	124.87076319236
1	2964	138134.906021093136	58.014622083122
1	2992	138699.017022575584	113.34774312965
1	2998	138842.631990228755	156.89120960941
1	3003	139142.052328018093	455.95969875564
1	3053	139993.975797800601	286.39753911992
1	3058	140073.051028502421	299.20052432145
1	3121	141844.58725692031	148.95287612441
1	3129	141859.167467433874	5.230761924569
1	3166	143803.87937316728	490.34512099328
1	3201	147894.431572356843	0
1	3218	149109.13296320729	0
1	3227	149578.072993761776	96.28962130338
1	3252	150698.396524698862	84.447481274712
1	3260	150730.794544589571	19.537497924955
1	3278	151679.250671320597	78.97455665021
1	3304	153576.324533838714	0
1	3317	156908.968742654929	0
1	3328	157160.704692103613	203.2470724583
1	3337	157610.081891853808	555.33840447203
1	3354	158408.814202044334	302.57664471332
1	3362	158876.755810568541	669.31638781996
1	3392	160719.266980550323	845.80405450923
1	3408	161154.615817679231	10.539214240444
1	3417	161643.462665644447	347.48107076284
1	3428	161852.100216487563	168.06249967504
1	3437	162216.460023496634	438.12324778257
1	3478	164202.045184968406	0
1	3494	165741.047790963379	1538.7688931251
1	3503	165968.937916460004	156.21659909497
1	3532	167587.334167019025	45.697369415903
1	3552	169192.052082545434	282.74310702496
1	3566	170029.230475895794	126.47409774598
1	3593	172040.561112104127	0
1	3601	172446.721776134609	0
1	3611	173508.687832066477	0
1	3636	174507.202633572067	44.76404882057
1	3648	174920.344208064194	379.8242070399
1	3688	177656.171652284718	0
1	3698	178540.228063723597	0
1	3715	179946.313932604038	0
1	3724	180683.529574681797	0
1	3742	181682.716710253358	0
1	3750	182121.022893550337	0
1	3759	182517.570812596911	0
1	3768	183046.327492984471	86.47767592797
1	3776	183146.67179687736	80.193406499796
1	3787	183301.2512731708	87.384857760169
1	3829	185178.837757718938	684.46051991066
1	3841	185503.9590977592	536.48549544959
1	3846	185524.148360205339	343.73161498976
1	3851	185569.08097672074	87.117356282251
1	3872	186362.43636397569	256.70015111559
1	3895	186860.395554507342	117.63816298148
1	3906	187202.977135408809	129.98023759992
1	3917	187371.19651785172	125.78965138055
1	3959	188950.549814136027	524.1264531921
1	3971	189669.596362235942	776.82631359044
1	3983	189796.418735160449	332.3228653696
1	3988	190304.127424491096	529.85948437388
1	3997	190505.200064945993	42.394194140617
1	4019	191122.780873775622	183.80161669998
1	4036	191678.669837397395	376.4782454254
1	4041	191827.238161708119	508.13606544616
1	4075	193697.92093744124	83.899543679015
1	4092	194093.50381561052	387.15514599899
1	4100	194214.623981329645	308.25770956522
1	4106	194257.687991122841	177.58862399764
1	4114	194561.939312321063	370.27342173792
1	4122	194727.095107865499	214.69186558011
1	4134	195307.430777731394	653.7243528237
1	4146	195920.903817400731	273.07121091873
1	4158	196598.418805448661	272.97062193593
1	4199	198737.64157270286	317.9356512094
1	4205	198808.370427369771	165.32752357967
1	4227	199716.304474006293	39.286335064016
1	4235	200001.993990076949	30.971988811022
1	4243	200206.53055313555	139.0466379451
1	4280	201542.343952654233	829.41585651435
1	4285	201556.467479337023	631.38252172957
1	4357	204383.274698954872	656.32135794466
1	4362	204463.864729677296	208.46733770181
1	4370	204536.689798169814	6.567251708014
1	4393	205174.554252221181	217.63929300794
1	4429	207463.192721862828	888.68341150234
1	4444	207815.559711552878	214.70636546302
1	4449	208035.494740400017	297.01870518255
1	4457	208311.472294743201	59.341303366965
1	4471	208885.39219572413	176.65234515327
1	4488	209303.757553294487	137.76851169387
1	4515	210449.482633526513	171.4985640215
1	4530	211095.882586724611	196.62109322693
1	4547	211503.461473031393	34.569220738493
1	4562	212810.629066857876	217.67134864945
1	4575	212974.252766968283	16.871460005166
1	4587	213109.969222382343	86.421969064523
1	4595	213247.372059051539	220.89272751028
1	4659	215755.673682077652	0
1	4668	216052.548252769677	0
1	4679	216436.185660261508	33.196686095495
1	4693	217232.785426909862	382.05821636998
1	4705	217993.902593575431	308.34878703781
1	4734	219051.363960246368	107.45132290298
1	4762	220484.060165660305	48.891033471625
1	4776	220760.578293937426	5.63205253365
1	4807	222271.992794140987	125.3372799213
1	4821	222976.771587632162	0
1	4829	223180.514499609743	0
1	4846	223634.174020507514	34.992631492477
1	4858	224290.11168122017	502.33900065203
1	4870	225004.937241719297	442.5618476243
1	4875	225009.038209969395	346.106169262
1	4917	226475.764979551735	452.19229553754
1	4936	226736.831787504387	44.606700656709
1	4951	227761.886179507283	835.70251160188
1	4956	227790.924862862125	781.71772731085
1	4980	228879.697512637377	298.53894844464
1	4995	229545.828865156237	783.28130695775
1	5000	229687.71570939526	751.42061613426
1	5012	230258.054503549871	1129.1710994185
1	5017	230328.91882143522	84.684935075761
1	5022	230544.780114437269	289.86769369374
1	5065	231317.628878186409	13.721463503396
1	5121	233653.682173974663	91.01345161415
1	5126	233768.549615489645	123.35595233729
1	5140	234477.778833745019	0
1	5156	234738.819145840987	0
1	5165	234962.444984465267	103.35423216502
1	5173	235040.826100167278	62.238136274195
1	5183	236386.815995021477	0
1	5191	236646.363804411848	12.45395795332
1	5226	238715.201335419859	0
1	5243	239982.042176073636	200.99353931256
1	5273	241570.384311596167	438.32333705381
1	5288	243078.683865244318	418.30559124505
1	5296	243159.275193311864	18.305665401505
1	5312	243372.130717888105	41.81377717709
1	5328	243713.793787429741	0
1	5348	245267.826423827013	239.06328817436
1	5381	247147.56293278243	0
1	5398	247949.472117356396	0
1	5424	249236.419356101311	17.085393840913
1	5441	249836.670482709552	0
1	5449	249927.982236476375	0
1	5461	250979.001468213986	908.16970919526
1	5473	251761.186492604134	283.01962004316
1	5478	251886.414958258693	338.65517296451
1	5490	252135.980145230739	125.43594164698
1	5509	253147.637139902658	0
1	5518	253593.383017122443	0
1	5534	253968.750506404116	0
1	5542	254013.462261982258	40.240358033004
1	5550	254195.449496994391	0
1	5576	254537.026685624933	240.96467170144
1	5584	254798.602270750801	343.95827620247
1	5592	254968.668278097235	481.21172570633
1	5624	256116.793540480718	860.36813221355
1	5666	257527.252783540116	720.23678345249
1	5671	257612.549395078622	665.61131094458
1	5727	260356.798557547951	0
1	5752	261142.728945513757	0
1	5776	261721.570393209455	33.376349329446
1	5788	261892.122139654279	69.876907454971
1	5793	261914.509646317684	50.124144061787
1	5804	262341.210017818171	171.98613416893
1	5818	262706.17885803508	0
1	5827	263323.915408227258	210.95731025864
1	5835	263726.880352833337	0
1	5844	264210.394379745808	0
1	5864	264831.893703870519	97.157892051193
1	5902	266085.914901958325	134.26988446041
1	5911	266254.718738017175	0
1	5945	268251.623652355165	0
1	5963	269704.277160381195	66.757269653204
1	5971	269817.527508863646	0
1	5980	270262.300231048364	182.42278679387
1	6005	271344.1233257453	20.298535704514
1	6014	271993.345635373299	0
1	6037	272547.843408357163	486.42027826376
1	6042	272617.180986085737	303.97584711589
1	6047	272649.265683224055	327.37414244784
1	6089	274472.019224512406	353.63398882776
1	6098	275053.183860665381	391.78998834377
1	6107	275970.794998886188	0
1	6124	276296.335679444779	0
1	6141	277173.269314468937	0
1	6176	279177.558904093405	0
1	6184	279220.712378068343	27.092874879211
1	6219	281781.47593391989	0
1	6237	282875.275140299919	0
1	6245	283227.841067800116	0
1	6270	284140.720258552607	73.955869948378
1	6279	284515.625057563111	0
1	6287	284774.91367175712	238.31435040242
1	6302	285017.278874800709	113.89302985953
1	6338	286809.421085228569	10.211522846524
1	6346	287240.012467095131	0
1	6373	288960.669187342547	0
1	6383	290744.08138671013	0
1	6392	291559.433036676431	0
1	6428	294145.057851142019	315.41189728647
1	6436	294315.99965897282	0
1	6456	295379.492475191258	84.86784349645
1	6461	295483.689061411571	112.51555351673
1	6470	295953.686954909946	122.25347597069
1	6478	296002.527020824206	0
1	6498	296856.5784294862	35.397510142498
1	6513	297980.497385078913	0
1	6524	298221.518714053368	59.124391235459
1	6549	298636.048211269672	159.34986547278
1	6579	299999.800542219356	322.03054571764
1	6588	300050.122348381387	0
1	6596	300550.655254161476	0
1	6604	300712.487629775004	0
1	6632	303150.043951780705	0
1	6643	303560.932216658682	21.539730924606
1	6654	303717.17877748998	30.658976985939
1	6685	304207.837751092699	43.705703945167
1	6690	304332.855793051418	139.71481747996
1	6707	304921.942999691082	156.53139779845
1	6719	305500.887733274302	9.546226525306
1	6773	306759.462961577183	0
1	6810	308739.931594763077	325.37802992841
1	6838	313653.089026565018	0
1	6847	314317.482805868622	0
1	6874	316521.174552564083	0
1	6882	316689.855444042739	0
1	6901	318818.56568106764	0
1	6909	319383.684670409317	0
1	6926	320005.21989400094	47.477180111834
1	6947	321575.686341878415	248.08781863336
1	6955	321730.073512776522	117.97737374301
1	6964	322109.198008713436	52.307342506109
1	6976	322599.684555284581	340.1088298561
1	6984	322762.610136021847	400.80137051093
1	6992	322914.145541245322	291.08341271404
1	6997	322944.212042456582	41.74399225638
1	7008	323043.855077588045	77.48483314617
1	7029	324165.087476341351	190.22894769707
1	7048	324470.591826625273	78.896745013265
1	7062	324815.687720953114	47.412361055312
1	7098	325685.869824351249	106.8848774381
1	7130	327109.70588170399	1060.182697658
1	7135	327202.818030614844	523.89369023394
1	7140	327232.410183976492	218.3019617562
1	7206	331977.323861939447	0
1	7215	332363.610999335207	57.666890947826
1	7223	332971.465171508641	0
1	7233	334056.64713587354	0
1	7260	336134.369233452429	0
1	7268	336584.887217213632	0
1	7302	337635.195686910356	0
1	7319	338912.866101970834	689.42670080108
1	7340	339906.982740489644	536.39890502722
1	7371	341949.028399745333	0
1	7380	342462.623723489875	319.79260635842
1	7389	343184.645045326691	0
1	7398	343905.001383491353	0
1	7409	344023.799705060518	46.208508297757
1	7431	344730.328414583911	47.180361699786
1	7440	345042.176491255825	99.90536105576
1	7454	345229.485397702903	149.12738066315
1	7490	347044.135731490992	0
1	7508	348361.569147903764	0
1	7525	349014.8805576701	20.555282733402
1	7545	349736.162243348057	32.397554287305
1	7563	353389.442990952646	0
1	7581	354819.173430649916	0
1	7589	354993.349788202824	163.76837473465
1	7607	356384.508555564945	0
1	7615	356530.256682446445	0
1	7647	358166.048207674541	478.94245054203
1	7656	358702.32191261918	965.16191685514
1	7665	359394.404751751405	161.63301203301
1	7695	360725.116268838232	192.57733597679
1	7718	362053.524915496356	992.12311222255
1	7744	363144.105617158287	0
1	7752	363298.171022839294	59.355504332824
1	7779	365395.865310154884	0
1	7787	365634.681020998595	0
1	7805	367343.128138930301	0
1	7814	367652.12392894785	0
1	7839	368855.232636334781	0
1	7851	369288.638699268496	372.25039297661
1	7873	369843.814809289137	0
1	7881	369997.933565973292	0
1	7898	370704.71703475615	118.38050826595
1	7906	370740.448169295456	4.278480573829
1	7920	371226.055699717783	170.2078385049
1	7929	371619.755552372386	466.66140541721
1	7937	371708.097883558972	13.815756997764
1	7945	371874.338476891389	108.84747680647
1	7960	372520.399279729644	428.81851087105
1	7987	373130.2094205564	218.30372162706
1	8018	374448.029916608964	307.8159566304
1	8032	375526.114464927383	0
1	8074	377036.994213543547	266.66178592845
1	8083	377414.450970560472	0
1	8091	377915.915955284547	0
1	8100	378703.417373510812	0
1	8130	380811.676608501944	1.560511071559
1	8148	381581.392388834631	597.51487972719
1	8153	381696.590147846065	613.56706484001
1	8158	381701.675044588503	280.8356023552
1	8167	382059.272237334419	32.610910163521
1	8199	383608.927660553903	858.25390638488
1	8204	383686.735683221615	390.5466958252
1	8213	384172.069690429146	129.98437812427
1	8272	387716.480538383739	0
1	8281	387872.546698212681	0
1	8309	391144.538120777376	0
1	8326	392092.322042984156	0
1	8357	393766.985766583977	467.54405686067
1	8362	393779.192314715428	354.43069522674
1	8381	394978.852915313365	68.158665674709
1	8396	396048.888748375981	0
1	8407	396689.924996419967	575.31642789415
1	8419	397429.211507993377	1134.8962591004
1	8425	397503.833569425193	774.77857993203
1	8450	398372.260599257698	435.01791852275
1	8472	399105.182845979651	0
1	8498	401148.351592476581	0
1	8513	401454.399113175654	163.45977692501
1	8518	401463.664188264685	168.49539117304
1	8540	402381.13564640896	0
1	8575	404829.174680581016	0
1	8601	406256.277382137243	84.715629480455
1	8610	406767.761792408262	131.21501927809
1	8620	408052.7728633997	0
1	8649	409103.907981500281	632.28022761733
1	8654	409138.21487563468	595.8296498788
1	8665	409346.265424657311	748.53822044265
1	8674	409692.284761550408	502.63075721336
1	8679	410217.354938131951	882.71294821342
1	8696	410770.423147329746	215.31014721103
1	8726	412514.395310138448	304.67031778246
1	8746	413516.862591833419	384.99330995798
1	8751	413721.98813076201	507.42723732938
1	8782	413883.704009854781	8.37774286773
1	8805	414846.735806543068	0
1	8813	415417.792218900938	0
1	8825	416076.522463041416	44.078808610066
1	8857	417893.864418814266	0
1	8901	421203.549403714075	120.63901159137
1	8909	421407.048198953628	160.01835231604
1	8919	422504.20795090509	0
1	8938	422881.142306254197	198.1908844589
1	8947	423192.199078729222	374.74311169932
1	8952	423206.709656265804	215.43829957098
1	8960	423327.30340976264	0
1	8972	423970.494061560374	161.70493847934
1	9012	426377.867087418916	0
1	9023	426608.832210341232	216.7364564821
1	9028	426620.029748815752	53.57443074341
1	9048	427343.789528412531	335.09552370348
1	9069	428780.726659939385	468.78462374762
1	9086	429501.153066336181	495.47617331059
1	9095	429756.245533162851	690.9111118054
1	9120	430616.828442481185	547.52284542921
1	9125	430846.066379555492	552.12659812957
1	9155	431992.588400678087	97.389172732853
1	9197	433271.524725858254	35.943052194362
1	9223	434702.713198533506	315.55666734613
1	9232	435401.064250478748	588.28377387847
1	9240	435651.437442318135	147.54615779312
1	9269	436933.444867063655	227.81214911722
1	9291	437928.918454308189	0
1	9300	438364.781561326404	0
1	9327	440623.185272211295	0
1	9336	441237.748564924563	0
1	9346	442970.915222907348	0
1	9364	444696.15288697393	0
1	9390	445578.539078026948	74.176593450845
1	9415	446286.809876082319	0
1	9423	446405.695739753581	12.432497265822
1	9431	446506.339171382189	0
1	9439	446517.491374384799	0
1	9458	446934.778823202647	21.44371484338
1	9472	447386.294809632392	0
1	9496	448633.55786336497	477.28748462602
1	9511	449980.844341723201	1261.0020532095
1	9523	450606.021343574689	1666.7164463141
1	9529	451070.375779276882	1153.1235575489
1	9534	451076.479601350437	817.06687699266
1	9550	451448.182508077692	101.32442124662
1	9575	452574.551805272353	0
1	9607	453974.312225566815	560.04303281968
1	9612	454028.818738139873	446.61434951606
1	9644	456681.136109702619	0
1	9656	456958.229011984065	92.050730783489
1	9669	457421.889757209508	118.4675373486
1	9686	458084.801659800291	0
1	9712	459735.382376685447	0
1	9730	460964.171242244421	0
1	9749	463061.41321096	0
1	9777	464004.723946192159	20.722073269446
1	9785	464193.081322308191	61.170485779809
1	9817	465838.646238991166	0
1	9833	466377.870127049424	0
1	9843	467413.913263749782	0
1	9858	468120.821064873501	443.3092123034
1	9863	468263.687906000529	476.65046513741
1	9875	469245.88271557948	1229.2662619947
1	9889	469632.217427029578	113.72096632805
1	9922	470340.996924505844	125.56099102838
1	9933	470395.935557979689	5.004563643261
1	9942	471030.691055160566	109.9380682496
1	9960	471700.924459173682	0
1	9986	472776.284199687476	0
1	10022	473846.555857458129	128.63585654008
1	10034	474673.128113813779	899.6431909709
1	10043	474919.737969083299	924.23773978005
1	10048	475326.584632447971	537.17964246775
1	10062	475646.570025164995	138.22734114585
1	10082	476490.999645162217	228.30947554146
1	10096	476734.566353830698	372.62085540749
1	10104	476767.854737891828	258.82633973285
1	10110	477220.073027143096	464.37715587233
1	10128	478873.038293452626	762.33464114055
1	10198	481849.280012387615	0
1	10215	482977.475560581806	0
1	10224	483651.901031122671	0
1	10239	484412.072351756262	700.33667844295
1	10245	484619.001301392927	767.10262662122
1	10250	485025.19305316404	711.04779641179
1	10262	485615.435226570225	205.87732553346
1	10270	485832.92475918052	190.38114405988
1	10296	486870.122316089038	219.11466038716
1	10320	489465.891711370947	0
1	10347	491254.165134400757	316.07670711636
1	10358	491868.952156533428	326.93029383189
1	10367	492594.703506815366	637.01511117557
1	10378	492734.060843986645	124.59387707878
1	10384	492759.46124713027	39.873574760696
1	10398	493771.199732311265	0
1	10406	494018.793934951807	0
1	10414	494090.446328946137	0
1	10423	494543.795830736126	0
1	10448	495193.439985508959	0
1	10479	496288.485736826406	159.74248985901
1	10498	496649.603647947993	0
1	10523	497617.385210430764	0
1	10535	498260.775817339746	619.90917458937
1	10547	499037.085824241436	190.97636991215
1	10565	499538.891907432664	482.95395830803
1	10577	500509.031602030705	1041.2516592821
1	10585	500860.441673801815	861.86997041941
1	10591	501127.010267567957	525.1264464204
1	10612	501344.6015686704	20.427411975323
1	10630	502242.18554416582	58.589338568294
1	10645	502753.509027157143	126.18807980646
1	10670	503538.782895665191	292.73953316656
1	10686	503996.601822493983	268.86457572521
1	10702	504804.51269369484	1000.053466493
1	10707	504898.187999423948	281.94624982801
1	10734	506546.53891085617	253.62197119924
1	10764	508363.954271926145	149.87659557841
1	10791	508959.98740892595	47.934272588007
1	10815	509699.903365385599	203.45517338297
1	10829	510361.371891070779	420.99047356961
1	10842	510741.392749732469	180.97731768124
1	10863	511980.376446721285	332.00165569183
1	10892	513035.807692115743	251.47482056851
1	10903	513593.027128767025	578.42311413962
1	10908	513661.577103403788	385.33169347206
1	10920	513780.677729353717	28.997774854582
1	10934	514157.782856452216	40.546939667032
1	10974	515045.039213972424	45.283210804753
1	11013	517034.686546417546	0
1	11041	519326.793287995332	1523.0659663143
1	11047	519888.329752483412	1397.2258658022
1	11052	520116.6130574907	1255.5785431104
1	11077	521025.785433018086	283.61041921485
1	11111	524310.362565210768	0
1	11127	525757.63988185952	1006.1663012904
1	11132	525780.164005146213	358.2626971222
1	11140	526219.343878709942	505.82880988955
1	11163	527940.432762517411	0
1	11180	528537.797067415868	71.3893996227
1	11189	528778.688642206004	0
1	11197	528895.727961674681	89.710894061209
1	11206	529759.255246831085	0
1	11217	530231.228412669375	395.60781774825
1	11239	531346.063379443349	362.85843219079
1	11247	531480.788179073588	208.28848644888
1	11262	532185.563692523348	584.96242670203
1	11270	532327.203687980076	13.412171489625
1	11309	533481.547397534226	255.87074353604
1	11324	534097.460203535836	650.86513276971
1	11332	534112.878462872672	566.24038553618
1	11337	534116.745681741143	543.13688103101
1	11342	534241.471717276979	510.70077909587
1	11350	534403.853977041987	304.2449226157
1	11355	534412.72234019556	43.173937473427
1	11372	534909.94102173211	352.16416081081
1	11380	534957.792361461259	10.695267294331
1	11426	536642.88708814532	428.45554996502
1	11440	537047.133547421002	260.34202433085
1	11453	537269.028851236417	17.558948409364
1	11471	538166.864310273031	420.43147490985
1	11479	538302.524106315026	366.4556975589
1	11494	539249.586914487512	1074.6339523011
1	11558	541570.324849232198	414.52656152977
1	11572	542182.143822082598	961.12635160906
1	11591	543276.792641840698	1426.7802818261
1	11596	543644.776199810006	1598.5375954832
1	11602	543863.191219101488	1685.6566466656
1	11617	544906.99360380589	2219.7614086448
1	11626	545832.420479684514	3012.2273914363
1	11642	547456.935400095411	4592.8253172788
1	11648	547514.825350237766	3374.8845132813
1	11656	547694.563837948289	3056.8475332513
1	11667	547914.09269696818	1204.8890748468
1	11672	548022.258764147644	403.70660158517
1	11691	548521.748045507657	102.75238565577
1	11705	548920.320229134365	215.61794957692
1	11720	549195.325569191476	488.15276119969
1	11725	549630.873776455924	741.26891041956
1	11780	550557.913275092847	83.793367243918
1	11788	550789.749694052653	183.13545624519
1	11805	551501.766223712006	488.74284696997
1	11810	551549.166145854206	129.22303846767
1	11840	552668.449022669753	211.93604705153
1	11876	553596.565811980104	116.74124581068
1	11888	554377.977615809082	667.80423454642
1	11899	554611.7270734569	167.53117741523
1	11917	555066.221189404516	556.18723703601
1	11925	555200.187780929524	202.48701680252
1	11949	556922.663753907259	858.02791954188
1	11958	557714.622407813032	1399.4786867362
1	11963	557852.591732692228	1085.3603366116
1	11972	558388.539103915448	221.94906958253
1	11990	559000.181167393936	587.09112492761
1	12002	559689.523522848746	1117.0748351328
1	12011	560356.789557680513	1527.1843804251
1	12019	560583.284819677819	1621.1000159469
1	12027	560617.982404800111	1234.1807967853
1	12035	560671.090501272854	100.04980498482
1	12053	561141.168493958586	538.6531221648
1	12058	561141.759128495876	421.73952966966
1	12077	561338.811671218749	101.74132201634
1	12103	562407.872279478091	226.50148696703
1	12127	564004.862420818987	38.42916817703
1	12145	564433.654570529016	150.34527108359
1	12165	565025.783266929854	454.26983918602
1	12173	565411.715905354627	419.6234329514
1	12181	565460.358604655766	224.64547754516
1	12186	565465.186134348984	24.298646598427
1	12195	565898.588322159908	185.49883594529
1	12209	566172.819620550857	244.51802175839
1	12226	566617.587562515	205.28167916864
1	12250	566950.620671509074	228.46702304293
1	12295	569145.330533386693	361.82698719727
1	12311	570140.40825727721	1085.6815043407
1	12319	570293.463095227095	963.20256025234
1	12334	570801.010539016102	844.63259875703
1	12339	570840.359152650874	594.79833854613
1	12356	571382.932806158167	888.78565558966
1	12362	571525.838000017329	795.03390391182
1	12374	572317.11289776097	1408.9725514546
1	12393	572815.240768478642	279.76802762043
1	12407	573410.127504668052	350.86947514286
1	12443	574322.718368239164	257.46783124728
1	12449	574828.10784031037	732.2157942407
1	12486	576768.374488927119	92.475162447078
1	12497	576818.758999089495	35.726310019934
1	12505	576953.031830076441	128.75797415492
1	12522	577610.328557733287	14.184933413493
1	12542	578478.468346289509	159.43859517108
1	12566	579901.684409548429	273.58136347081
1	12582	581647.043799785027	1768.3770569707
1	12587	581857.355228417306	1597.8738148478
1	12592	581878.066979816726	578.32985811767
1	12670	583642.954430598838	95.526826716854
1	12692	584822.229511858233	130.72099885486
1	12701	585097.250297509461	97.681466737616
1	12737	586515.060642429694	596.31947001593
1	12745	586763.126346367283	490.70587437333
1	12755	588003.130065292135	1126.851646002
1	12763	588065.647658788212	21.511456138142
1	12779	588528.058400706677	161.27548833711
1	12784	588638.270803678927	245.80485655234
1	12811	589719.634215297032	476.81985444303
1	12819	590042.786990865795	122.11704205915
1	12857	591710.768981502368	1306.6090118
1	12866	592078.888593588527	1198.5793485216
1	12871	592174.656002521749	1266.4456836834
1	12879	592408.933929101436	1350.9361978194
1	12885	592681.758621007436	1597.3473859118
1	12896	592818.294054831921	1294.7572053214
1	12917	593626.727129620041	863.8975041689
1	12925	593820.969617598255	625.5377775482
1	12931	594399.10354944533	1095.4969789042
1	12940	594776.782333114843	1134.1982909792
1	12951	595065.672018880859	50.101637080963
1	12968	595507.840212917619	48.396934979463
1	12990	597173.982601195651	723.71507038625
1	12995	597281.394701539135	139.50891599363
1	13006	597507.382800771778	88.573738021654
1	13021	598351.328194987169	646.32496672897
1	13027	598562.1484034383	667.48073711504
1	13064	600745.373863216942	128.55310233596
1	13073	601283.079474646123	614.238505746
1	13081	601398.136456074501	435.08014714335
1	13093	601927.994234001849	555.52760918618
1	13099	602370.129686973264	587.69100544752
1	13148	603487.66051311708	82.160815391221
1	13157	603995.268170356159	233.80390232955
[...]
7	15772	707069.197470859126	7
7	15805	707686.986318228039	6
7	15811	707882.000369920393	5
7	15815	707936.625376468734	6
7	15820	707998.17739346267	7
7	15830	708043.289767310866	6
7	15833	708071.099797516	5
7	15854	708403.545279360674	4
7	15858	708457.650359735903	5
7	15866	708930.383769061648	4
7	15871	709178.931609384848	3
7	15875	709645.553891228462	2
7	15899	710303.69011755588	3
7	15904	710517.099894187843	4
7	15908	710660.001053640674	3
7	15915	711051.557326172885	2
7	15919	711066.038812973733	3
7	15924	711347.652823733125	4
7	15938	712662.12680603137	3
7	15941	712901.720779965446	2
7	15945	713041.661301916835	3
7	15960	714017.405279299541	4
7	15973	714384.045593964224	5
7	15987	714875.724479089622	6
7	15991	714885.910648798268	5
7	16009	715919.662068389147	6
7	16011	716070.943612520259	5
7	16027	717377.104814136585	6
7	16035	717804.634194054047	5
7	16039	718185.309828445655	6
7	16043	718209.248887361977	5
7	16050	718777.156833244248	4
7	16062	719606.703461242987	3
7	16066	719873.60172846929	4
7	16071	720005.267630284262	3
7	16075	720273.171514298354	4
7	16084	720424.509542936697	3
7	16101	721502.138567459163	4
7	16105	721615.751832222789	3
7	16109	721838.433926931888	4
7	16123	722587.271035772508	5
7	16136	722862.15879161766	6
7	16146	723228.283970523825	5
7	16149	723459.823281122753	4
7	16162	724008.802029472889	5
7	16175	724737.001667491347	4
7	16181	724993.131818674009	3
7	16184	725160.699167960311	2
7	16194	725438.755435545374	3
7	16199	725533.065876781612	4
7	16203	725536.164155827558	3
7	16211	725733.015393890478	2
7	16229	726055.141247320487	3
7	16247	726587.205466762131	4
7	16256	727353.733636496401	5
7	16258	727381.409715131271	4
7	16266	727485.260522377985	3
7	16276	728351.593071204742	2
7	16290	728894.487897568816	3
7	16293	729528.45650835307	2
7	16302	729786.666638220351	1
7	16311	730561.609686449465	0
7	16326	731256.304307482859	1
7	16334	731691.331213446564	2
7	16344	731904.605276830005	1
7	16349	732029.964077166367	2
7	16357	732258.411286443739	3
7	16365	732392.497395036474	4
7	16370	732691.707616588753	5
7	16378	732917.106714082873	4
7	16391	733430.099391213626	3
7	16396	733731.966227723178	4
7	16400	733790.401349891586	3
7	16412	734550.380069643126	2
7	16420	734824.086552946354	1
7	16443	736135.120510167485	2
7	16448	736299.316114955982	3
7	16457	736617.970724227499	4
7	16462	736916.707787507921	5
7	16467	737364.741021465237	4
7	16470	737376.362537236155	3
7	16477	738258.366537888872	2
7	16482	738881.84285157647	3
7	16487	738963.15436012791	4
7	16506	740362.015514283496	5
7	16511	740781.873590917132	6
7	16516	740829.050983530937	7
7	16527	740916.459111630942	8
7	16533	741087.287038243957	9
7	16538	741089.342952571054	10
7	16542	741120.838589828446	9
7	16546	741207.131093418011	10
7	16555	741298.423202890888	9
7	16571	741622.701379952399	8
7	16575	741853.078970905945	7
7	16579	742131.118969279607	8
7	16586	742440.77207071242	7
7	16597	743257.419153889409	8
7	16606	743324.164924831915	7
7	16612	743479.135608299498	6
7	16628	744325.249661526722	7
7	16633	744527.383680511722	8
7	16641	744655.76911617259	9
7	16646	744695.170735341247	10
7	16661	745015.182077368276	9
7	16669	745349.372115372294	8
7	16679	745975.643640625398	7
7	16682	746114.704547362463	6
7	16685	746231.173005584488	5
7	16695	746279.928702674307	6
7	16703	747015.872294287721	5
7	16707	747027.149282643784	6
7	16712	747078.336304395311	7
7	16722	747194.591920372237	6
7	16733	747525.220865578646	5
7	16741	748090.541838087281	6
7	16746	748146.686957489707	7
7	16751	748368.497557520369	8
7	16755	748436.516882508194	7
7	16759	748506.527716877259	6
7	16763	748556.295571626033	7
7	16789	748969.208102320269	8
7	16799	749215.19902021428	7
7	16803	749319.499462651515	6
7	16813	749496.010316727469	7
7	16818	749506.545114434185	8
7	16822	749547.022545592842	7
7	16825	749634.456676015131	6
7	16828	749710.908850840978	5
7	16832	749782.452690844584	6
7	16837	749892.750100074013	7
7	16842	750087.31580630621	6
7	16846	750165.0340635315	7
7	16855	750290.742423963578	6
7	16868	750567.675014702752	5
7	16875	751103.455732611984	4
7	16878	751176.538648753853	3
7	16887	751487.824534217125	4
7	16897	751590.715866498265	3
7	16900	751750.688847695349	2
7	16917	752648.299443117831	1
7	16921	752951.817919731306	2
7	16936	753606.741952302511	1
7	16954	753978.02134136619	2
7	16961	754199.174822265283	1
7	16975	755391.988383887806	2
7	16980	755676.117003765272	3
7	17019	757523.73348157741	4
7	17023	757760.746682463754	3
7	17027	757927.758532439166	4
7	17049	758738.060205656697	5
7	17054	758847.043186198029	6
7	17074	759341.764872344279	5
7	17077	759382.771835234186	4
7	17101	760525.484088225826	5
7	17109	760770.727125595241	6
7	17111	761139.323577888444	5
7	17131	761862.372654025065	4
7	17134	761885.884602024229	3
7	17138	762221.529189814992	2
7	17145	763184.43454611226	1
7	17149	763416.652701121735	2
7	17154	763439.133522066382	3
7	17162	763569.963267296809	2
7	17169	763607.252385598263	3
7	17180	763717.657638822385	4
7	17185	763915.770331509337	5
7	17190	764094.753303248605	6
7	17195	764132.283759182984	7
7	17200	764189.305102958813	8
7	17208	764502.715267054728	7
7	17214	764668.574239691503	6
7	17224	765267.467752714867	7
7	17228	765293.391918959752	6
7	17231	765682.289261602931	5
7	17235	766071.462168289818	4
7	17239	766089.847685611215	5
7	17269	766946.665769725496	4
7	17293	768666.678895856988	5
7	17316	769714.479427764134	6
7	17321	769761.974472532952	7
7	17323	769869.923315295205	6
7	17337	770037.083281217809	7
7	17340	770276.848104731331	6
7	17354	770506.075328954321	7
7	17356	770630.44876113046	6
7	17365	771010.795229188547	5
7	17373	771584.064587378193	4
7	17382	771813.74316969263	3
7	17399	772313.405570165034	4
7	17404	772391.958600885949	5
7	17415	772576.93245118474	4
7	17421	772651.342733295475	3
7	17425	772913.483907224747	4
7	17430	772976.471395834913	5
7	17435	773174.707798297977	6
7	17439	773198.710821803144	5
7	17443	773370.494657492447	4
7	17449	773677.543445237397	3
7	17461	773936.529425329964	4
7	17467	774155.749012138729	5
7	17480	774290.676669730188	6
7	17484	774379.52547829286	5
7	17487	774457.001687832631	4
7	17493	774498.34446334108	3
7	17497	774890.602369402746	2
7	17509	775112.457982051894	3
7	17513	775222.010288262555	2
7	17517	775422.599940237116	3
7	17527	776141.621284193564	2
7	17551	776901.58868572918	1
7	17573	777516.392991120385	0
7	17591	778238.15976228802	1
7	17596	778247.39669510163	2
7	17604	778307.92393732642	3
7	17606	778395.508614952245	2
7	17612	778712.302714493759	1
7	17621	779262.566771914357	0
7	17641	782083.300967306554	1
7	17651	783200.626215345631	2
7	17665	785267.075858422217	3
7	17673	785426.972757887587	4
7	17684	785778.082302799857	5
7	17688	785828.450375949975	4
7	17691	785837.984563164435	3
7	17699	786305.35891454858	4
7	17718	787787.966270107828	5
7	17722	787880.53697144839	4
7	17726	787936.061519324107	5
7	17731	788233.911955998565	6
7	17736	788237.82301303904	7
7	17745	788434.49694346289	8
7	17749	788541.490055607246	7
7	17753	789228.486478789594	6
7	17757	789465.45595893052	7
7	17761	789516.678404515047	6
7	17765	789661.915376042462	7
7	17780	789965.018287856736	6
7	17803	790548.717149850439	5
7	17806	791036.521473329055	4
7	17812	791092.436331631456	3
7	17816	791250.123735332495	2
7	17820	791308.824708561667	3
7	17824	791341.461844648275	2
7	17831	791573.159876414124	3
7	17839	791826.057849547267	4
7	17845	792009.214810953364	5
7	17853	792372.977630063999	6
7	17857	792396.545627565835	5
7	17861	792432.620065057893	6
7	17866	792465.410191394585	7
7	17870	792665.263182664261	6
7	17884	793177.853654498766	5
7	17893	794115.858565085816	4
7	17903	794674.690435415003	3
7	17922	795028.094829263778	4
7	17933	795271.964224083366	5
7	17937	795595.222270292289	4
7	17941	795789.4352542707	3
7	17944	795829.407193131462	2
7	17948	795850.487722204327	3
7	17953	795886.27305427702	4
7	17957	796461.073853217716	3
7	17961	796883.444020247316	2
7	17965	797037.761401842158	3
7	17970	797223.835610539538	4
7	17975	797338.44230745189	3
7	17979	797404.638265853851	4
7	17995	797762.364350779903	5
7	18002	797814.87541180252	4
7	18007	798098.644015961835	5
7	18011	798130.936493541342	4
7	18014	798296.931719660958	3
7	18021	798509.840170601001	4
7	18027	798908.75502558467	5
7	18031	798984.914325697259	4
7	18037	799295.980805488788	3
7	18047	799682.233031658502	4
7	18056	800014.536160984177	3
7	18075	800992.749580070221	4
7	18090	801226.381902202068	5
7	18094	801512.78598545003	4
7	18097	801513.629265051863	3
7	18101	801546.029776431615	4
7	18107	801987.078256632565	5
7	18112	802110.520065824449	6
7	18121	802745.609315810752	7
7	18125	802770.576776166418	6
7	18129	802809.773413416584	7
7	18142	802870.643687238982	8
7	18155	803163.176516464232	9
7	18160	803281.536725764876	8
7	18168	803487.333439732975	7
7	18176	803674.636949655392	6
7	18179	803801.77882155068	5
7	18192	803978.659169440117	4
7	18201	804176.057426973864	3
7	18217	805249.404071739712	4
7	18222	805285.485719219174	5
7	18226	805348.854868698375	4
7	18229	805349.490198235754	3
7	18252	806086.366488654569	4
7	18271	806413.46596820056	5
7	18306	807561.288037334983	6
7	18311	807645.334597240653	7
7	18317	807827.849435723863	8
7	18326	808369.782524933284	7
7	18338	808752.051189321653	6
7	18343	809377.857070695459	7
7	18365	809809.994284931952	6
7	18368	809882.000326696647	5
7	18371	809934.552586846	4
7	18378	810381.300615594229	3
7	18381	810623.776411478432	2
7	18397	811281.539903037879	3
7	18402	811400.808264186869	4
7	18407	811511.166754281499	3
7	18411	811672.941889112905	4
7	18415	811972.501531444583	3
7	18418	812014.00391347577	2
7	18422	812136.569081927959	3
7	18426	812182.372711342311	2
7	18435	812977.446839028278	1
7	18454	813285.977948317858	2
7	18463	813962.834433207595	3
7	18468	814020.028583527214	4
7	18473	814033.076159248826	5
7	18482	814424.1352217178	4
7	18514	815553.736693081746	5
7	18519	815565.617589502414	6
7	18523	815912.518589056437	5
7	18536	816054.090927955515	6
7	18553	816342.090101252232	5
7	18557	816365.577012708359	6
7	18566	816596.852618982554	5
7	18574	816666.591873384083	4
7	18578	816821.629647887857	3
7	18600	817333.932930659381	4
7	18621	818571.446046838184	3
7	18638	819701.724899082353	2
7	18652	820803.196249013882	1
7	18656	820879.636018367678	2
7	18661	820892.379764244929	3
7	18666	821278.081550328155	2
7	18670	821323.40278843506	3
7	18682	822460.577774596383	4
7	18690	822775.47638480118	3
7	18697	822953.896149516764	4
7	18702	822992.443147766187	5
7	18710	823070.311182026631	6
7	18715	823162.093620496869	7
7	18721	823526.568755580357	8
7	18733	823721.943770090959	7
7	18736	824195.369557236492	6
7	18746	824299.204608265497	7
7	18765	824411.807537395598	6
7	18773	824704.01246815271	5
7	18776	824713.924833077756	4
7	18779	824810.752130714721	3
7	18811	826409.594097625923	4
7	18816	826440.744985583194	5
7	18826	826510.476037402907	4
7	18840	827306.58321532356	3
7	18852	827384.539341283439	4
7	18871	828245.696062636727	5
7	18873	828281.932277112529	4
7	18887	828778.422674162097	3
7	18890	828869.743111243408	2
7	18894	828972.02154135277	3
7	18916	829708.37985988523	4
7	18921	829918.110848727277	5
7	18924	830297.773445181603	4
7	18938	830735.926174658768	5
7	18941	831368.214711555922	4
7	18946	831543.144003299806	3
7	18958	832348.0136655525	2
7	18973	832957.701958175068	3
7	18982	833641.453215736634	4
7	18985	834523.756572021655	3
7	19000	835122.324284071982	4
7	19008	835985.222039986241	3
7	19019	836518.570234020034	4
7	19030	837431.318819671329	3
7	19034	837542.000674685135	4
7	19039	837562.202217886433	5
7	19047	837839.272204031864	4
7	19054	837957.178261619954	5
7	19059	838056.916310126357	6
7	19063	838101.498253031914	5
7	19070	838193.728773101506	6
7	19074	838209.53093360596	5
7	19078	838307.935944461239	6
7	19084	838754.004709587157	7
7	19088	838893.505244212491	6
7	19091	838992.314122588293	5
7	19118	840553.900894312343	6
7	19123	840599.36503649336	7
7	19127	840741.288054054771	6
7	19131	840991.409598105528	5
7	19154	841725.528160549148	4
7	19158	841901.222920884413	5
7	19162	842233.795297361534	4
7	19166	842292.01545720491	3
7	19170	842292.389318558748	4
7	19175	842320.810652899342	5
7	19184	842371.224575842373	4
7	19199	842654.066993976542	5
7	19203	842683.801261600239	4
7	19214	843202.308426139724	5
7	19219	843379.322015840134	6
7	19225	843797.593876714217	7
7	19229	843897.714797400183	6
7	19246	844737.417244720871	5
7	19262	845348.360492040319	6
7	19267	845359.520878775885	7
7	19275	845946.790480256106	8
7	19283	846067.950716746247	7
7	19287	846257.35567227542	8
7	19291	846267.105262597795	7
7	19295	846515.158305016539	8
7	19308	846931.643797784363	7
7	19318	847613.716662608087	6
7	19322	847650.301155614495	7
7	19326	847862.165768191192	6
7	19331	848279.787968954568	7
7	19336	848368.229182577753	8
7	19351	849205.622035716536	7
7	19367	849408.26519209608	6
7	19376	849649.004394621807	5
7	19380	850186.234475359148	4
7	19390	850595.439582079651	5
7	19395	851011.982878951145	6
7	19399	851129.290414928883	5
7	19404	851262.767233427961	6
7	19442	852950.411868579637	7
7	19446	852979.58275199557	6
7	19450	853339.438235806557	7
7	19483	854124.939548328958	6
7	19487	854125.71085047065	7
7	19504	854862.471185398628	8
7	19509	854907.914195988859	9
7	19517	855107.636311645688	8
7	19526	855823.720760635864	7
7	19544	856687.352809157862	8
7	19552	856757.105630892357	9
7	19557	856942.396504380518	10
7	19559	857007.980137882825	9
7	19567	857217.524011741641	8
7	19579	857477.944381317935	7
7	19582	857501.196671462685	6
7	19592	857750.592961442212	7
7	19597	857842.017853279804	8
7	19605	857967.162396120497	9
7	19611	858199.406625071425	10
7	19615	858240.073926791157	9
7	19622	858790.186008010635	8
7	19625	859054.990156044742	7
7	19629	859088.219088462614	8
7	19633	859094.86841417792	7
7	19637	859292.492224855776	8
7	19641	859353.555947211975	7
7	19644	859426.442531935923	6
7	19664	860343.696085159406	5
7	19667	860700.38085165058	4
7	19686	861434.252239369642	3
7	19689	861537.05816802826	2
7	19706	861852.914038881154	1
7	19710	862225.885534406255	2
7	19727	862962.108138442324	3
7	19733	863354.355935324701	4
7	19766	864132.587570144015	3
7	19770	864257.740069588366	4
7	19774	864352.964313044413	3
7	19795	864880.584318658143	4
7	19800	865068.301169345393	5
7	19802	865242.915467591792	4
7	19807	865317.111025683363	3
7	19820	866021.828229152273	4
7	19828	866317.304595936052	3
7	19842	867040.150553657993	2
7	19846	867172.498660553774	3
7	19854	868070.089833312296	2
7	19862	868235.348124335042	1
7	19875	868692.998926104159	2
7	19880	868697.817062575102	3
7	19893	869095.41165825738	4
7	19905	869510.367057503831	5
7	19909	869783.980353978683	4
7	19912	869913.876983718601	3
7	19917	870187.9711812443	4
7	19936	870782.84788615654	5
7	19938	871146.936854596794	4
7	19948	872486.618020465855	3
7	19962	873026.000872250582	2
7	19965	873072.803524212493	1
7	19969	873161.438415334387	2
7	19979	873787.167481645133	1
7	19999	876012.338055298367	2
7	20008	877469.335919237359	3
7	20016	878225.130968606573	2
7	20020	878271.927298830533	1
7	20023	878899.966651817291	0
7	20028	879229.524633680979	1
7	20032	879269.196948418635	0
7	20055	881026.029115069207	1
7	20064	881517.667291758646	2
7	20069	881568.369847852828	3
7	20073	881632.271092984565	2
7	20076	881887.429635108338	1
7	20081	882014.938087457331	2
7	20086	882329.63578553196	3
7	20090	882400.503366165547	2
7	20103	882581.224616172553	1
7	20117	883267.674976677003	0
7	20145	884130.063315675733	1
7	20154	884409.121905322652	2
7	20157	885478.819107631643	1
7	20184	888081.496878269724	2
7	20189	888440.697731261954	3
7	20194	888485.009740576774	4
7	20199	888505.018398718224	5
7	20201	888634.221899938452	4
7	20210	889075.755504067732	3
7	20220	890657.505988118773	2
7	20225	890934.489299785063	1
7	20246	892554.282595673689	2
7	20251	892913.797453862845	3
7	20256	893116.155177045077	4
7	20260	893233.128711237686	3
7	20264	893484.284623307674	2
7	20267	893695.845608767897	1
7	20279	894663.837953031227	0
7	20290	895156.759049882721	1
7	20296	895730.195185148602	2
7	20301	895873.408403272473	3
7	20310	896042.22709146704	2
7	20325	896565.349652098201	1
7	20330	897069.363428252285	2
7	20335	897123.223076040013	3
7	20367	898699.100150482724	2
7	20371	898731.913920074151	3
7	20379	898753.326576786662	4
7	20388	899430.283678351074	5
7	20393	899449.623229464564	6
7	20400	899978.053202095065	5
7	20416	900952.22996006671	6
7	20424	901266.858266052948	7
7	20427	901742.730378499	6
7	20445	902734.113101531935	7
7	20449	902920.498301663859	6
7	20453	902921.532398106315	7
7	20461	903502.766507431395	6
7	20467	903792.744585612143	5
7	20475	904145.501436755745	4
7	20484	904839.569481097577	3
7	20496	905385.208444240264	2
7	20510	905995.878538244658	3
7	20518	906510.903614527341	2
7	20523	906849.946912348805	3
7	20531	907539.212324438714	2
7	20544	907711.240723000345	1
7	20548	907857.996598232308	2
7	20555	907953.109135650011	1
7	20568	911288.283605810495	0
7	20583	912486.368509719097	1
7	20592	913078.272689906692	2
7	20601	913847.32364444745	3
7	20609	913905.290275338417	4
7	20612	914586.067949346799	3
7	20621	915171.631258122546	2
7	20637	915432.548170268451	1
7	20652	916534.452093591313	2
7	20657	916655.20080276662	3
7	20661	916836.215627284261	2
7	20665	917061.701082156237	3
7	20669	917195.746632066474	2
7	20677	917569.992541419956	3
7	20682	917655.528310809542	4
7	20687	917774.133190281087	5
7	20696	917941.887935236328	4
7	20700	918137.916201114232	3
7	20717	919138.048602200126	2
7	20722	919521.885256853429	3
7	20729	919743.015042136834	2
7	20738	919899.123451737856	3
7	20746	920477.2189778142	2
7	20758	920686.172935835321	3
7	20763	920984.487977518313	4
7	20768	921193.794474816332	3
7	20790	921895.555669546862	2
7	20804	922233.167524570628	3
7	20813	922856.853322659869	4
7	20815	922986.168856736092	3
7	20824	923860.609622462837	2
7	20839	924750.992041615792	1
7	20846	924810.212051246031	2
7	20851	924949.873430841462	3
7	20865	926204.350905854707	4
7	20868	926327.093015085479	3
7	20882	927086.112821944985	2
7	20889	927240.027121187021	3
7	20894	927553.963586188424	4
7	20910	928113.688564232696	3
7	20914	928181.083163174454	4
7	20920	929388.430778038933	3
7	20924	929413.815758983435	4
7	20933	929578.140462046506	3
7	20945	930596.463109242665	2
7	20964	931978.899402931442	3
7	20969	932065.225484876158	4
7	20978	932394.620855291257	5
7	20986	933103.607308010006	4
7	20990	933457.000124724046	5
7	20998	933826.513849656432	4
7	21006	934140.003865902651	3
7	21011	934315.440089253356	2
7	21020	934700.701758466671	1
7	21032	935254.030833382587	0
7	21036	935505.23528512462	1
7	21055	936315.685078311839	2
7	21059	937702.646752343933	1
7	21083	938478.985781750101	2
7	21097	938985.074883722688	3
7	21102	939022.042617891851	2
7	21106	939105.47238926735	3
7	21111	939301.184041670512	4
7	21115	939484.122958828572	3
7	21120	940006.638093736733	4
7	21125	940042.809140529757	5
7	21130	940191.577124508545	6
7	21134	940374.47233121713	5
7	21147	941211.205263762099	6
7	21152	941399.644602170122	5
7	21155	941415.264099402551	4
7	21177	942391.232824017651	3
7	21188	942794.00380957345	4
7	21193	943173.49555209054	5
7	21198	943446.301124155144	6
7	21215	944192.128936090737	5
7	21227	944425.575225261388	4
7	21234	944570.608189505909	5
7	21239	944788.28966991323	6
7	21245	945494.147708931371	7
7	21251	946100.209999015706	8
7	21262	946277.501207113722	9
7	21266	946290.565355198409	8
7	21271	946509.138247161962	9
7	21276	946755.458054603114	10
7	21280	946760.331461571995	9
7	21284	946815.639760669365	10
7	21288	947237.896802214314	9
7	21292	947274.152044493024	8
7	21295	947340.687733192744	7
7	21309	947965.29347869157	6
7	21314	948006.450051089157	7
7	21319	948023.526652443458	8
7	21323	948040.64645042216	7
7	21341	948953.15448599967	6
7	21344	949244.815781277497	5
7	21347	949281.08869538941	4
7	21350	949314.814213238552	3
7	21354	949428.037212458465	4
7	21360	949804.22348062553	5
7	21365	949827.753893274687	6
7	21369	949850.041682273588	5
7	21372	949914.517866019791	4
7	21383	949978.633333018107	3
7	21391	950281.604678714761	4
7	21396	950321.827656924153	5
