file 412364 1483967551                                          
version 2
run QueueMeasurement-71-20170109-14:12:31-5894
attr configname QueueMeasurement
attr datetime 20170109-14:12:31
attr experiment QueueMeasurement
attr inifile queueStudy.ini
attr iterationvars ""
attr iterationvars2 $repetition=71
attr measurement ""
attr network controltower.SimNetwork
attr processid 5894
attr repetition 71
attr replication #71
attr resultdir results
attr runnumber 71
attr seedset 71
param SimNetwork.a.parkingLot.parkingDelay exponential(45min)
param SimNetwork.a.runway.landingTime exponential(5min)
param SimNetwork.a.runway.takeoffTime exponential(5min)
param SimNetwork.a.runway.throughputCheckInterval 12.5min
param SimNetwork.wg.interArrivalTime exponential(12.5min)

vector 5  SimNetwork.a.runway  landedThroughput:vector  ETV
attr source  landedThroughputSignal
vector 6  SimNetwork.a.runway  tookoffThroughput:vector  ETV
attr source  tookoffThroughputSignal
vector 7  SimNetwork.a.parkingLot  parkingOccupancy:vector  ETV
attr source  parkingOccupancy
vector 4  SimNetwork.a.takeoffQueue  queueLength:vector  ETV
attr source  queueLengthSignal
vector 0  SimNetwork.wg  responseTime:vector  ETV
attr source  responseTimeSignal
vector 3  SimNetwork.a.takeoffQueue  queueTime:vector  ETV
attr source  queueTimeSignal
vector 2  SimNetwork.a.landingQueue  queueLength:vector  ETV
attr source  queueLengthSignal
vector 1  SimNetwork.a.landingQueue  queueTime:vector  ETV
attr source  queueTimeSignal
0	1435 53614 1363 22172 61674.784751156987 949917.444859654476 1237 704.33079879122 30994.226665185 10140104.716127 117172430243.26
1	55049 50133 1384 22174 62431.751518280756 949917.444859654476 1223 0 4071.481565074 540538.93183691 603742650.54189
2	105182 72022 1378 22174 61852.0574601225 949917.444859654476 2446 0 9 2727 6815
3	177204 50948 1365 22166 61674.784751156987 949603.455257261794 1236 0 17653.974594879 4529796.1327174 39517935644.693
4	228152 72925 1360 22166 61659.590654599476 949603.455257261794 2459 0 35 14831 218041
5	301077 19618 1358 22179 61500 950250 1186 0 6 1223 2563
6	320695 19618 1358 22179 61500 950250 1186 0 7 1239 2991
7	340313 72051 1359 22177 61659.590654599476 950132.643498143199 2446 0 11 10537 55083
