version 2
run QueueMeasurement-80-20170109-14:12:36-5903
attr configname QueueMeasurement
attr datetime 20170109-14:12:36
attr experiment QueueMeasurement
attr inifile queueStudy.ini
attr iterationvars ""
attr iterationvars2 $repetition=80
attr measurement ""
attr network controltower.SimNetwork
attr processid 5903
attr repetition 80
attr replication #80
attr resultdir results
attr runnumber 80
attr seedset 80
param SimNetwork.a.parkingLot.parkingDelay exponential(45min)
param SimNetwork.a.runway.landingTime exponential(5min)
param SimNetwork.a.runway.takeoffTime exponential(5min)
param SimNetwork.a.runway.throughputCheckInterval 12.5min
param SimNetwork.wg.interArrivalTime exponential(12.5min)

statistic SimNetwork.wg 	responseTime:stats
field count 1185
field mean 7397.1194618238
field stddev 4450.4013212725
field sum 8765586.5622612
field sqrsum 88290480107.738
field min 593.29922774641
field max 26943.961543039
attr source  responseTimeSignal
scalar SimNetwork.a.landingQueue 	queueLength:timeavg 	0.50630658483425
attr source  queueLengthSignal
statistic SimNetwork.a.landingQueue 	queueLength:stats
field count 2368
field mean 0.96621621621622
field stddev 0.94399516328908
field sum 2288
field sqrsum 4320
field min 0
field max 6
attr source  queueLengthSignal
statistic SimNetwork.a.landingQueue 	queueTime:stats
field count 1185
field mean 380.67428948116
field stddev 451.23058491545
field sum 451099.03303518
field sqrsum 412794908.14986
field min 0
field max 3930.7507768107
attr source  queueTimeSignal
scalar SimNetwork.a.takeoffQueue 	queueLength:timeavg 	3.8724204630248
attr source  queueLengthSignal
statistic SimNetwork.a.takeoffQueue 	queueLength:stats
field count 2372
field mean 4.6391231028668
field stddev 5.0785931665855
field sum 11004
field sqrsum 112202
field min 0
field max 24
attr source  queueLengthSignal
statistic SimNetwork.a.takeoffQueue 	queueTime:stats
field count 1185
field mean 2904.1510281676
field stddev 3346.7982064768
field sum 3441418.9683786
field sqrsum 23256453385.466
field min 0
field max 14880.031648647
attr source  queueTimeSignal
scalar SimNetwork.a.parkingLot 	parkingOccupancy:timeavg 	3.6310511751877
attr source  parkingOccupancy
statistic SimNetwork.a.parkingLot 	parkingOccupancy:stats
field count 2372
field mean 4.1433389544688
field stddev 1.9553498356964
field sum 9828
field sqrsum 49786
field min 0
field max 10
attr source  parkingOccupancy
