version 2
run QueueMeasurement-55-20170105-15:37:13-4598
attr configname QueueMeasurement
attr datetime 20170105-15:37:13
attr experiment QueueMeasurement
attr inifile queueStudy.ini
attr iterationvars ""
attr iterationvars2 $repetition=55
attr measurement ""
attr network SimNetwork
attr processid 4598
attr repetition 55
attr replication #55
attr resultdir results
attr runnumber 55
attr seedset 55
param SimNetwork.a.parkingLot.parkingDelay exponential(45min)
param SimNetwork.a.runway.landingTime exponential(5min)
param SimNetwork.a.runway.takeoffTime exponential(5min)
param SimNetwork.a.runway.throughputCheckInterval 12.5min
param SimNetwork.wg.interArrivalTime exponential(12.5min)

vector 2  SimNetwork.a.landingQueue  queueLength:vector  ETV
attr source  queueLengthSignal
vector 5  SimNetwork.a.runway  landedThroughput:vector  ETV
attr source  landedThroughputSignal
vector 6  SimNetwork.a.runway  tookoffThroughput:vector  ETV
attr source  tookoffThroughputSignal
vector 0  SimNetwork.wg  responseTime:vector  ETV
attr source  responseTimeSignal
vector 1  SimNetwork.a.landingQueue  queueTime:vector  ETV
attr source  queueTimeSignal
vector 7  SimNetwork.a.parkingLot  parkingOccupancy:vector  ETV
attr source  parkingOccupancy
vector 4  SimNetwork.a.takeoffQueue  queueLength:vector  ETV
attr source  queueLengthSignal
vector 3  SimNetwork.a.takeoffQueue  queueTime:vector  ETV
attr source  queueTimeSignal
0	1314	61614.294596065186	2548.3253744638
0	1366	63267.778963369135	1995.6061477733
0	1371	63275.269285763017	1774.0994761804
0	1399	63791.852123096206	1785.9366529429
0	1413	64140.78708865956	1618.2087126634
0	1431	64679.055718352642	3330.7307546726
0	1504	67296.420991210942	8266.6333007422
0	1527	68813.527220130618	8967.1392948884
0	1536	69295.967291773782	7482.5402897807
0	1541	69484.526825916804	16693.425405652
0	1546	69571.609317043561	3651.8110314377
0	1558	69792.980778035532	4931.3760499416
0	1588	70728.817437288548	6485.4970685755
0	1602	70847.57588903163	6504.3787738668
0	1613	71259.137404725356	4327.5524489034
0	1618	71421.948520400461	8010.1062569528
0	1630	72320.84063255497	6901.3443945882
0	1665	72974.997088385473	3093.8818982302
0	1679	73263.950228223248	3558.2523620396
0	1702	74597.294306995836	8524.3865825146
0	1707	74805.070434584492	7863.8939924866
0	1722	75028.12354414848	11551.407369785
0	1735	75282.265454317053	3604.6252074295
0	1757	76738.187146843033	5912.6733400183
0	1775	76924.435436073377	17472.443326443
0	1783	77211.115937365004	4208.6712142088
0	1789	77630.384857665336	13098.573041799
0	1803	77860.285339992844	6279.1118264406
0	1832	79001.776115829661	6593.7989827875
0	1885	80548.23279630041	6823.6294567399
0	1893	80682.732544550969	10626.689429682
0	1898	80735.64842950342	5857.2490866757
0	1903	80924.79854984666	8472.3241385269
0	1912	81064.923144460948	3395.1650022432
0	1922	81583.796186898344	4836.3942791008
0	1934	81879.552504823885	6109.3989491239
0	1944	82223.569657617153	4485.6130007877
0	1949	82288.548003147746	3917.9260299081
0	1954	82489.605013761129	3901.2945601009
0	1969	82774.459822918568	3576.7634543455
0	1998	84332.208248612645	5113.7755454852
0	2077	87205.952403240723	7500.5256313681
0	2088	87501.49271553658	4867.2350861997
0	2107	87821.961510599081	5133.1663272341
0	2112	87872.94667942436	3660.9389991081
0	2117	87951.240579203809	6339.2451493031
0	2132	88990.926136941221	4266.3963386244
0	2152	89761.111692616426	8788.2165759925
0	2167	90354.019696919295	4760.5981007012
0	2194	92325.585364185661	6101.4382772464
0	2269	95745.87284714034	11890.211988636
0	2303	96158.042835385926	11046.375049634
0	2318	96750.092222081153	9316.0821625082
0	2326	96935.532268141204	9569.281682783
0	2339	97315.97659651204	13556.225651861
0	2344	97365.849699890623	12484.726775558
0	2349	97418.616423738	5708.4012954435
0	2354	97444.737992484928	9169.3884500049
0	2363	97815.959132803253	5402.4988264857
0	2368	97906.170629375074	5610.9775112965
0	2376	98164.008112480216	5610.3946097904
0	2382	98442.305708658482	3239.1090946645
0	2390	98998.087016132724	3350.440067112
0	2401	99509.753926686396	6108.7845712502
0	2416	99993.819503706405	8266.829393809
0	2427	101248.146746897836	11315.66787369
0	2436	101481.054413982968	5614.4091007315
0	2444	101633.972849732062	4815.7423255587
0	2453	102044.608207754634	11899.457174621
0	2474	102588.37647129773	8160.9108037615
0	2514	103729.360544592401	3934.8297929218
0	2519	104013.872156375757	2066.6224019043
0	2538	105165.154627693306	10396.515205666
0	2577	106836.680446212276	8198.4083063966
0	2617	108099.016570187655	5570.5762342653
0	2657	109977.096867250232	6923.7246500449
0	2697	111173.221899057093	6639.3025461818
0	2707	111375.490622648497	8613.6565993198
0	2712	111406.385985717907	6288.8691605933
0	2717	111499.902697059324	9406.0042014486
0	2722	111517.425815021557	4398.1331675999
0	2727	111737.134304455158	4914.0231092292
0	2733	111940.394811304034	3354.2096029915
0	2738	111995.130986240868	3956.4785056494
0	2749	112218.679676068779	8103.2831908035
0	2763	112568.474359724481	6905.7024614344
0	2773	112925.705106263269	3345.2395757898
0	2781	113249.649630064174	4443.9412076998
0	2802	114164.38976595619	1665.0085017484
0	2810	114585.186864291232	4710.6017370225
0	2835	116956.143174481481	3413.0983829339
0	2898	119391.794677682445	9228.4231562717
0	2903	119437.384140125704	4924.295960736
0	2912	120322.29542709562	4085.4981556901
0	2920	120612.698851902695	9463.0689183873
0	2946	121778.385654388567	5457.2168833351
0	2955	122931.451225253064	5509.3662780249
0	2966	123090.141675286718	6091.4647295159
0	2974	123115.580826056405	10939.595188837
0	2979	123273.569845957063	4882.0142706535
0	3008	124870.305330499069	1362.91239941
0	3021	125094.263602361847	7524.7498652766
0	3030	125513.570159303482	5004.1241665714
0	3038	125780.331621969445	1800.9965443689
0	3058	126647.3455730103	5999.2032975551
0	3064	126763.143347116755	1938.9839411908
0	3081	127944.617886214142	1916.1513610391
0	3124	130177.97677366444	1772.6551872201
0	3141	130722.541882712646	1690.4203225759
0	3149	130839.02147267762	1606.8517467108
0	3175	132102.229467136351	4388.8432942203
0	3275	137442.791546645526	8188.1872583978
0	3326	140320.176274182681	9806.4762545588
0	3339	140601.864558068889	18298.410258061
0	3349	140714.019493326304	9263.0741934731
0	3357	140912.961341960875	33658.588122584
0	3365	140945.791590157039	7190.5348088114
0	3374	141652.636583808028	7568.2790583301
0	3392	142523.300485724035	7863.0122558946
0	3400	142738.755388688756	7551.40840459
0	3408	143011.815966127141	11885.748127547
0	3422	143607.59757251735	6241.5347395472
0	3431	144139.871723755046	7103.6496960423
0	3442	144839.194843970269	11083.37560663
0	3450	145353.1156298742	6042.5259814801
0	3455	145475.749223882188	13196.388828436
0	3461	145518.59750968378	11022.358159462
0	3466	145554.867023669834	5018.3726867751
0	3477	146177.008954120056	8003.9899250847
0	3505	147384.449606469702	9436.0223389659
0	3518	148705.6012379405	7477.6995443583
0	3540	149251.548278956806	6442.9534361548
0	3545	149579.06907023693	3967.5977728457
0	3550	149609.353270662802	1492.8766334299
0	3558	149770.072694238007	3689.4231416951
0	3566	149912.460151089522	2706.1614610324
0	3592	152399.604220756573	8574.3870860884
0	3619	153425.08569610633	4617.6098838686
0	3640	154878.729080556175	2965.201419646
0	3699	158574.891705821369	5377.3708820947
0	3745	159860.557389927753	8537.626547304
0	3755	159968.537963278926	6091.3289262021
0	3766	160310.201826908341	4028.3608106058
0	3777	160514.839766582446	5076.9189708061
0	3782	161055.984026884329	5319.8486689332
0	3794	161488.577662194358	8795.3596754157
0	3809	162330.835480150034	3835.3504969812
0	3824	162458.472745495866	3746.5989116165
0	3829	162516.436108702153	8013.3408671911
0	3835	162790.806607545323	3142.0027126939
0	3840	162799.23980002785	5887.2844822798
0	3857	163624.787078437913	3516.4468795506
0	3874	164989.265075281105	2727.1851833836
0	3883	165536.588152325676	2534.4412672329
0	3958	169129.21105767052	7315.0275815444
0	3967	169522.931747639768	5190.7115806915
0	3972	169915.944227913618	1851.2301464254
0	3980	169997.71735837073	2295.7264726524
0	4006	171033.726096162968	2757.6435564314
0	4019	171109.534190592847	2742.1119904847
0	4028	171776.970079838093	3256.5950645233
0	4037	172911.963550750315	2807.6542222881
0	4047	174214.9857931382	7761.2968838986
0	4081	175805.231737231631	5838.1480767691
0	4100	177383.729443467031	2584.9718469146
0	4139	178779.873421158536	7826.388497764
0	4147	179112.167030040344	4247.7332333595
0	4169	179534.526639628267	11636.408706851
0	4187	180799.816782797288	3840.5038058103
0	4198	181042.552594475753	22010.324940565
0	4211	181469.326864549549	6047.3026848597
0	4220	181741.128685317007	3760.1223734522
0	4248	182479.220932163103	3136.3332932532
0	4256	182845.128210044148	1969.8385847605
0	4280	183881.00701807952	6396.9081243196
0	4301	184826.010068676181	6024.4215624579
0	4309	185180.789439292533	1851.6210188381
0	4343	186204.928379723524	475.02520101556
0	4351	186430.382035276856	1159.217236177
0	4360	186850.862772363477	3320.4921541784
0	4377	187288.080338824165	4665.6396144867
0	4382	187354.574297032955	5682.8763219723
0	4387	187457.11172192637	4080.0076321447
0	4396	187923.790170496975	11085.936727454
0	4427	189003.96847254743	3082.0971371956
0	4435	189240.642799067999	1282.5912561676
0	4444	190337.156923407452	2872.7775558392
0	4488	193836.653907364506	14380.911523214
0	4526	195316.863873144323	3716.5436265628
0	4534	195540.741090490418	13655.363456127
0	4539	195701.048782056947	3514.9183002888
0	4565	197575.207887852	5130.0731978306
0	4580	197701.149178578631	3939.3003288019
0	4589	198399.214923259714	9702.3814660594
0	4594	198644.681417211738	4940.8202265759
0	4603	198800.984253327077	6121.2919525965
0	4788	205864.931225034481	9656.6028268887
0	4793	206209.272875382047	9418.2810626469
0	4798	206227.862359488407	7447.0113003466
0	4807	206566.475447603019	6938.0291584846
0	4812	206632.193611376796	7615.9072909605
0	4826	206925.894504842187	7058.0867194168
0	4838	207477.678967750126	8500.1030550106
0	4913	211411.526037333137	10888.180503371
0	4938	212449.756812368452	11620.390385697
0	4943	212722.198947336722	9232.4350034862
0	4948	212895.414077211902	8747.1755691553
0	4958	213818.897302283366	11817.270952321
0	4963	213991.413001412813	19542.966849892
0	4971	214382.721020348324	10556.245921101
0	4976	214496.520347359101	10679.663667298
0	4982	214578.371148781888	12740.352645468
0	4987	215137.18077459004	15342.484688845
0	4992	215235.62156317103	10694.976218083
0	4998	215427.75526484219	7499.648616038
0	5003	215536.000501454035	12359.460832442
0	5012	216405.646990013986	8347.3012970588
0	5025	216532.295248114642	6784.1090309782
0	5039	216810.808702739709	13198.805989956
0	5044	217051.04174447624	16975.557635119
0	5049	217198.231969466636	7532.2469898054
0	5054	217480.159976117117	10435.065743019
0	5060	217706.009013106123	9260.3046805569
0	5065	217762.610184022222	7109.3768606615
0	5086	219099.718040709071	2578.1058428064
0	5123	220502.183313773615	1355.67112065
0	5162	222412.04692491915	4028.6827451263
0	5174	223004.406445800054	7256.2081284804
0	5184	223188.719058486883	3104.7098697599
0	5296	226667.213736327275	5215.2444443403
0	5322	228095.768173774639	5496.1910330821
0	5333	228461.599620880403	4678.0213837333
0	5347	229174.737701975122	10106.177386519
0	5352	229236.820430181126	8713.8496934914
0	5358	229544.046642938234	5351.8912636271
0	5366	229760.919494738569	5425.4555556757
0	5375	230261.885109772133	5931.6555792563
0	5385	230518.89573814673	10135.10023372
0	5390	230581.055523833938	5759.9005038305
0	5395	230953.240097047978	8822.9253845952
0	5400	230957.730224031743	6646.5501182026
0	5409	231248.812675122986	5833.5060595442
0	5414	231349.030754211771	4976.0124488008
0	5419	231368.975615182177	5850.4890908824
0	5431	231788.729135797302	6964.8289642849
0	5436	231840.936108468914	3682.7236115238
0	5453	232865.227301777541	2893.4044503896
0	5471	234695.464483736198	8306.5135551265
0	5518	238555.522582389208	3503.2172607964
0	5551	240109.074955997343	6959.8428763866
0	5565	240461.037766263147	1771.5367984127
0	5587	241355.178171015778	5456.4539069396
0	5592	241431.885958884093	2684.3138308822
0	5601	242210.312688354518	5999.4445499937
0	5622	243048.615399787905	5116.8457737916
0	5633	243532.500674733627	3307.4591691399
0	5731	246909.737414490744	8444.4640229809
0	5741	247047.527118052824	3489.8225942668
0	5753	247810.944827523794	4094.5837910813
0	5769	248236.362353949453	4654.4475425223
0	5780	248946.83755498154	6631.4246123566
0	5795	249119.051665660201	6010.0736869941
0	5805	249278.32799479584	5560.1954531504
0	5810	249389.661032146641	5295.2016567931
0	5815	249606.401398691502	9406.9805681455
0	5821	249987.722829549013	17688.644417444
0	5826	250077.74081186302	6116.8676586834
0	5831	250100.575677400331	4439.3456281257
0	5839	250339.761521044162	2975.1143725433
0	5845	250668.066983321502	5953.5611597426
0	5866	252538.121731481056	4489.7719648574
0	5960	256041.582949880383	2422.8126065504
0	5988	257008.933538187417	2870.7145428281
0	6001	257139.554231122329	8121.7931912821
0	6006	257159.088263511153	2892.4356265921
0	6015	257402.452673545002	4105.7231179116
0	6030	258160.387031453461	6970.3310561265
0	6052	258949.055922116529	5490.1323133884
0	6057	258968.92292895889	2794.525535849
0	6066	259544.176819062741	5517.1814090321
0	6071	259870.809268507121	5816.8748985464
0	6076	260029.141795663205	7556.7302261415
0	6081	260106.363980808973	5647.4849817838
0	6093	260541.428124253007	2725.207311228
0	6115	261025.463573713623	500.38827039227
0	6130	262013.891157020981	6109.7449599035
0	6144	263121.373552443234	5255.5790485025
0	6251	268168.435525128062	5507.7270722934
0	6259	268297.757648309078	6531.9758230409
0	6265	268585.815063852854	5284.5037240294
0	6280	269282.398969004354	3989.7502900784
0	6293	269990.567198966577	6180.4773684542
0	6311	271014.237845871403	10277.044838616
0	6324	271433.357533067375	7861.3010814624
0	6330	271542.676313140528	4170.9860972121
0	6338	271770.090421313361	6286.0789540923
0	6347	272352.313325946718	3499.0624340116
0	6352	272553.148450440803	15799.857582517
0	6364	273002.947165560366	8251.1906203011
0	6379	273331.871485582911	5930.2831317764
0	6394	274237.81372428656	3459.9988522017
0	6416	274819.060685072887	2252.0509808625
0	6425	275680.016076921078	3010.7070148203
0	6430	275707.289929797951	6003.8493590839
0	6455	276449.39275342381	10964.955648179
0	6487	278018.702151710817	780.18986435718
0	6501	278603.474595539511	2793.0647911993
0	6506	278656.905001222444	2730.3553758773
0	6526	279659.546534368962	5754.0285749062
0	6549	280773.818746014274	3277.1245390069
0	6558	281279.903644608361	1839.9323852744
0	6576	282743.60109832789	5009.6823802625
0	6596	283654.242647247475	9735.5862896225
0	6622	285302.885802215907	5688.8326952129
0	6627	285312.548940416742	1973.1945081872
0	6644	286271.398644196029	4032.2399253958
0	6664	286948.101466073318	2392.2582709736
0	6689	287811.223735272929	1383.3315426091
0	6694	287875.506041608541	7721.1243327233
0	6740	289660.06124595362	2798.6615106302
0	6751	289783.385599916687	3919.5588264245
0	6777	291065.496259587428	2971.8519340434
0	6788	291551.028987314002	3176.3884171718
0	6805	291860.769881605449	4881.1732580331
0	6837	293434.375479225219	11048.942818652
0	6845	293696.910049155356	4491.0701611512
0	6856	294022.517804434189	4356.404230379
0	6861	294086.438413795445	5858.6017193804
0	6866	294149.195927657157	3978.4204208722
0	6881	295431.81364395915	4089.1989748357
0	6892	295762.179826255349	3437.416741873
0	6897	296010.851960134132	4406.3737973395
0	7022	300351.697839084596	3788.9077799803
0	7027	300509.575749340307	3385.2043662991
0	7042	300955.713555829864	7446.3605748987
0	7069	301520.038143313244	4218.481632412
0	7089	301815.44575768776	4023.8032945918
0	7108	302749.18014423476	4142.15210449
0	7119	303204.906289428952	8165.64128749
0	7140	304139.572154530581	5219.2468872523
0	7156	304504.296605678946	4805.0524770077
0	7161	304539.060374302602	6116.728607324
0	7172	304844.577340355817	6028.7712635361
0	7192	305398.733047883654	7092.8112907107
0	7219	306808.789234622973	7704.3968796414
0	7298	310103.999074963482	8295.4019051397
0	7309	310237.244877496764	6907.4409062301
0	7323	310544.492671451607	9831.059347881
0	7331	310647.10421247861	8991.3144142092
0	7344	310893.022601375763	9913.6554231243
0	7374	312237.249082742371	14359.862172424
0	7471	315660.950247844512	14354.54542395
0	7490	316863.376386374331	12782.364884285
0	7550	318439.520210787137	13634.830883979
0	7555	318541.01177189596	12165.852756181
0	7571	319649.687810572465	11493.593041812
0	7581	320002.384222199806	11601.168289743
0	7586	320154.162607963604	17556.627525568
0	7592	320401.669320899526	10279.144380526
0	7607	321058.046017565111	15875.993358489
0	7612	321101.963353109176	10510.39747104
0	7620	321223.597834719142	12842.395913873
0	7634	321871.779231355097	12908.916078807
0	7643	322996.851211534543	16499.163727503
0	7649	323330.889960212079	11657.672152629
0	7657	323895.656378121123	13030.228469215
0	7677	324841.031629729276	16364.913801318
0	7685	325471.591594726184	14104.136358718
0	7700	326314.077674494217	13279.280201373
0	7726	327791.050290667443	15399.908728077
0	7731	327912.75468651919	16478.301219055
0	7736	328101.563830359065	14890.929574764
0	7744	328243.468191956042	21077.723722953
0	7762	329351.544086938666	12519.85170507
0	7767	329659.377653423412	12948.289956797
0	7772	329777.09690331684	12890.603071641
0	7787	330218.743727835133	13388.475133292
0	7803	331082.283847883328	17395.797160099
0	7812	331546.142681125718	14641.427062981
0	7817	331862.581917760956	18240.915729274
0	7822	332196.447351460381	12695.230729601
0	7834	332787.825749138777	15169.896800294
0	7844	332899.160988963447	16855.12392527
0	7853	333442.791482949092	9744.502537841
0	7858	333480.057745211559	12260.871593981
0	7866	333671.492480193743	7591.2546877164
0	7883	334189.509429983823	10005.967547883
0	7897	334644.960934250044	4801.8839616716
0	7902	334836.176461723878	6659.4341586719
0	7907	334932.261673336296	8214.9143680062
0	7912	335017.751906350794	9798.9145957083
0	7917	335021.337416579036	4962.7873085712
0	7934	335976.856031608257	2347.7088170684
0	7943	336261.699253294996	4023.1513898961
0	8021	339828.716624722968	5814.6093837279
0	8026	339908.375671653068	3545.6771001107
0	8034	340191.398148264601	3671.4712935983
0	8042	340384.499570787854	4958.8827540555
0	8060	342823.602687395758	5887.0693020017
0	8084	343506.622455154251	5952.3994372823
0	8110	344270.60815345846	5487.6157616498
0	8152	346202.289605195118	8632.9274682974
0	8160	346276.681681206262	4686.2491751608
0	8171	346807.984777286034	9874.4260167525
0	8189	347905.524200143741	6581.1229076584
0	8247	349617.635225130103	5386.0974538957
0	8252	349683.238478749783	5102.3082788361
0	8266	350115.174966432545	9558.9795085038
0	8283	350465.945059385175	2713.2841123996
0	8288	350718.037132160006	2454.1887960579
0	8293	350735.705512029925	3343.3177039238
0	8301	350795.453059389885	7077.1248264883
0	8306	350827.393263979247	3545.4528504482
0	8344	352351.813813111725	4110.6877564137
0	8363	353032.456177902496	2170.0056761651
0	8368	353131.549455670498	9994.0710453837
0	8373	353178.191173161843	4784.3085947369
0	8395	354463.025806945411	9467.9949151007
0	8410	355644.190254377843	3759.6359072382
0	8418	355908.948354936558	4879.0798863062
0	8424	356622.945261858467	9407.1751761082
0	8429	356700.511315025234	10450.252441906
0	8435	357048.050797776895	7204.7882163173
0	8470	359356.223683732816	1943.4129617063
0	8479	360714.744046797245	2637.9205121823
0	8488	361383.251531159833	9173.7701144126
0	8531	363407.880152167514	1482.9313703045
0	8549	364948.705977410302	6116.2536091993
0	8573	366717.759996712966	2466.0702403885
0	8587	367152.779292730743	5175.9692813775
0	8610	368422.06200104425	5696.3319446111
0	8629	368914.361646136271	14821.93164431
0	8638	369062.318320181132	7634.5902805443
0	8646	369104.456545858868	2757.0478767853
0	8651	369197.358709905319	1656.4874457562
0	8694	371270.385147502632	2508.4596363717
0	8713	371718.517662946719	2279.8782780206
0	8722	372021.449827962702	2297.9722129758
0	8733	372447.870836496967	7014.0414506965
0	8755	373458.151940743709	6353.6372212641
0	8778	374157.461261558448	2114.4155950528
0	8832	376355.721068545663	5273.7363906384
0	8867	378306.606758726337	5352.5190622985
0	8878	378555.753324801588	8272.0029587197
0	8892	378948.971510662384	5185.8754205686
0	8905	380344.882090500382	4271.1071201867
0	8910	380550.130578557156	6534.9924157832
0	8922	381371.811429047169	9985.9017351745
0	8927	381560.172847863228	7297.8197363539
0	8933	381767.871212352472	6350.2659457339
0	8938	381987.933650116149	9482.0176050033
0	8943	382017.818394643073	5189.6364325037
0	8948	382110.952642949031	5570.5002069483
0	8969	386022.292330602374	7494.2842342487
0	8988	387803.893134354527	12676.4613769
0	8996	388357.665921731454	4472.0385276154
0	9036	391805.710418491632	5664.3788887017
0	9042	392268.111450704214	2098.4862904143
0	9055	394177.945476903408	5676.144649634
0	9098	398640.262397600122	2846.8695488246
0	9108	400391.987348347114	6260.6174458676
0	9117	400604.643542425098	5508.0873390609
0	9221	404197.326081476106	6094.9974278199
0	9237	405088.226710243667	3648.8973052364
0	9245	405212.305312920384	3795.3758303272
0	9423	412063.216494469392	11402.287419279
0	9428	412142.470887876585	10684.018622062
0	9440	412630.506933745484	10898.075508007
0	9445	412652.269502898291	10992.816163583
0	9457	413403.581301234068	10744.821192998
0	9482	414373.379481339727	23295.216784708
0	9501	415019.505751230253	12024.970234211
0	9506	415027.629480924698	13868.909808137
0	9530	415768.446743502469	10298.166595681
0	9551	416329.857756579522	10864.913867352
0	9559	416542.612948444704	15532.627295519
0	9579	417300.491351222094	10534.419310655
0	9595	418668.541388625626	13415.472441208
0	9692	421332.062242728505	14566.409928486
0	9710	422032.945335779556	16881.335848588
0	9744	423413.862968768314	17733.845567735
0	9765	423832.682789973209	15722.614930646
0	9793	425445.218250139148	18965.190407601
0	9817	426641.043662808863	19716.372854734
0	9833	427113.468512293816	16692.406166137
0	9841	427329.976868039306	18233.005435148
0	9849	427443.453968632725	16204.841716249
0	9869	428122.226231011644	16934.838318647
0	9875	428455.789938866686	15276.208638338
0	9886	428875.574207666187	18669.939484397
0	9905	429600.466876985153	14558.702867215
0	9915	430790.481707451304	15646.803677748
0	9957	432518.951574308952	24332.496479337
0	9969	433049.784793170409	18842.604744762
0	9975	433601.668662838734	15845.635094343
0	9980	434108.838359789202	18629.094224241
0	9989	434359.461364214531	15213.363128655
0	10006	435042.740281950247	20812.611396453
0	10024	435621.881517619744	17513.619386541
0	10076	437408.584424574103	20876.679582377
0	10137	440538.668289893009	20701.698577716
0	10157	441918.336545510537	29015.808336043
0	10168	442172.059125071489	23176.705737924
0	10186	442577.971666815667	22204.218171615
0	10273	447701.900667403946	29701.044175136
0	10279	447865.453017060848	26765.952429717
0	10287	448248.257562333508	29290.394671736
0	10299	449067.60391271906	28713.301903716
0	10325	450284.463204600868	26487.073287583
0	10330	450374.448511732369	26896.558516079
0	10335	450401.389317188005	28108.46785199
0	10353	451193.432788300415	29136.576362121
0	10389	452295.849493049992	26674.161200854
0	10400	452574.863959607149	27825.865081145
0	10472	455332.086070149634	29079.645059209
0	10489	456208.691830630705	34615.791671124
0	10547	459225.829047263299	31854.253131269
0	10560	459727.032906416319	31075.899609997
0	10583	459892.564523349581	29697.137135716
0	10616	460996.794313950538	32335.203602535
0	10621	461022.785968685447	30185.857943347
0	10640	462115.918588192506	30818.521404051
0	10650	462473.545300174139	27019.852135303
0	10655	462668.58753133635	27900.054821979
0	10671	464021.688607376283	29866.023964482
0	10682	464542.935124390371	28702.228817971
0	10691	465108.556880035555	30333.82408093
0	10701	465357.246183331263	29148.598686168
0	10706	465663.825548364589	34823.128246882
0	10714	465668.947211080858	28595.868157566
0	10728	466053.882504619981	25842.24788431
0	10736	466201.590230672235	30420.326427646
0	10749	466412.195023382348	27723.748077545
0	10811	468343.294979224959	25808.430990793
0	10826	468932.439612945946	31926.676744382
0	10831	469146.008653906425	26958.654806979
0	10836	469249.734849796951	26774.949319595
0	10841	469267.99646897169	25323.736365718
0	10850	469548.860869766009	32492.483683747
0	10855	469654.184126791044	28299.276804199
0	10860	470032.602782341136	31747.098557508
0	10871	470138.748390700717	25917.579789938
0	10885	470719.246724340005	24845.889248672
0	10902	471749.137640575907	21267.992331502
0	10911	471935.301711593699	22880.711708361
0	10916	472032.943676590357	23123.628460832
0	10921	472425.612915435497	21720.631920739
0	10926	472460.293371364609	21453.803536264
0	10932	472531.369631094709	28570.284909237
0	10937	473232.472933319315	30895.017503452
0	10943	473753.366831642611	22625.086866848
0	10956	474902.139735253997	22397.180053092
0	10966	475062.842916195814	19795.301754089
0	10971	475071.247283105876	18727.109607607
0	10980	476059.501949051109	22336.07068373
0	10985	476132.199691868817	22979.737031534
0	10990	476247.685838158109	20177.920017696
0	11002	476309.439398736704	16577.964149435
0	11024	477390.386590707153	21737.485815726
0	11058	479213.142637616721	19863.547016756
0	11063	479245.703477218936	19490.766876198
0	11069	479278.198297945537	24643.187959907
0	11080	479392.229872791288	22953.999209895
0	11085	479676.619037533156	25671.518624967
0	11093	479745.362994280263	22674.65648244
0	11109	479959.663313528436	20182.770917089
0	11129	480864.89804292739	19439.888414323
0	11134	481014.305732387538	14874.592678601
0	11139	481247.674712668522	27495.142898055
0	11144	481454.381517727459	13991.605935294
0	11150	481514.787478308758	15850.228086488
0	11155	481579.020869346375	15184.719917688
0	11166	481936.065911037891	23168.194909296
0	11277	486380.36944277495	18873.059102808
0	11288	486561.196541474299	21696.202898657
0	11311	487433.03483783473	20597.461198504
0	11322	487920.767249484847	25199.745777095
0	11333	488107.485928694938	20422.436037407
0	11366	488742.601802837223	18642.648398924
0	11372	489037.414752768316	18362.878838082
0	11386	489594.551630276824	15700.643510142
0	11397	489838.424126292366	13566.714959896
0	11402	489866.587626683324	12847.911212564
0	11410	489922.141555208372	13652.497646248
0	11420	490031.716684159475	12371.219069837
0	11425	490097.963178566715	23637.912736565
0	11433	490320.377040997841	11711.657753831
0	11439	490794.416534723635	10267.833521257
0	11448	491308.793502756661	11410.509305647
0	11459	491763.941290371731	9730.1506129986
0	11467	491928.738676227871	12233.824130628
0	11472	491975.46898385086	9430.4201111127
0	11478	492061.357707925051	8468.5385638266
0	11483	492253.361793479807	10008.864701543
0	11488	492511.636713039606	8729.0480267845
0	11493	492659.065879617751	10729.033661239
0	11499	492888.753468575345	10189.433506777
0	11504	492977.496550289527	8452.0694514512
0	11525	494136.978921995172	10289.794005516
0	11630	498453.95482829165	10353.823967769
0	11641	499036.604617893559	16487.692061871
0	11649	499265.852418650083	12760.646489434
0	11660	499653.173830475975	14477.748794487
0	11669	500370.003152777509	12112.299251392
0	11680	500786.815699593927	13849.934014504
0	11689	501420.443033270106	13189.388568638
0	11697	501514.937481381234	8255.240417687
0	11711	501855.735041590152	8467.9280488451
0	11716	501918.731025175457	8159.3959479939
0	11721	502204.265864759005	12328.217649497
0	11727	502669.99595476033	9523.3693799613
0	11741	503051.693778256688	5984.3209454652
0	11765	504207.655009415253	5880.7312334752
0	11799	506041.602289527644	8998.2981332131
0	11814	507028.836432035337	17865.188768251
0	11831	508247.446347377645	11846.475755592
0	11840	508855.223131350328	11205.487613595
0	11845	508927.031047374577	13034.916876969
0	11854	509315.331230391345	10216.453230547
0	11859	509357.730879306651	14242.479011979
0	11864	509504.692248700901	16523.779697451
0	11869	509763.051072815158	6372.1341075822
0	11877	509920.561210471273	6925.5871764362
0	11891	510606.004890965667	6101.8854437982
0	11902	511415.962877197561	5434.1673328745
0	11911	511723.117169425107	10248.580741318
0	11933	512650.055822923664	9213.0075439497
0	11984	514488.695801988389	2788.4690988402
0	11995	514909.887828694996	8199.451047895
0	12000	515066.242341395744	2395.6782920233
0	12005	515214.015406532789	2171.1212747907
0	12066	518145.964665177765	4901.9977187954
0	12071	518150.007160704654	6426.682327901
0	12080	518581.202815406548	8670.7779423214
0	12085	518610.939712424352	6072.9997967065
0	12090	518787.436779601662	2855.6988888617
0	12119	519964.419090856782	6208.6664080663
0	12124	520405.428341845582	10047.641796434
0	12133	520654.161070100763	4560.0806163061
0	12144	521183.723743270231	3766.0630415285
0	12178	522415.512940187867	3612.0910758215
0	12186	522737.150450884414	3806.1255606117
0	12200	523397.398250572468	1968.0517296747
0	12214	525025.075139458371	7485.6239789528
0	12219	525394.540662253738	10078.502914633
0	12252	527823.519351660655	5087.9183073345
0	12271	528649.578146140733	1129.2680063684
0	12352	532307.019212985079	5851.0866571688
0	12360	532456.633349640654	11360.572419456
0	12375	532963.539222210645	5175.828739879
0	12427	533864.440672269909	5158.7228115325
0	12436	534308.143378815082	3838.4064756442
0	12445	534941.384726876637	5440.4400113996
0	12456	535221.063362556151	13227.613444919
0	12461	535286.1205844803	8343.7830538493
0	12471	536297.845560632474	5051.7652993226
0	12481	536797.152963101546	7560.3261544035
0	12486	536904.175475928519	6625.77941112
0	12492	537170.333614537292	4317.8283573833
0	12497	537287.46982874802	4055.3939940924
0	12515	538331.555911468196	9224.6913406173
0	12531	539018.406083958684	6059.5444930974
0	12543	539790.119123216973	7212.6794800059
0	12554	540032.480811366445	6713.5101933488
0	12559	540112.4814318023	2066.7228674894
0	12567	540612.599284903097	2450.1024933994
0	12586	542431.137183722458	2671.9371904856
0	12612	543906.975101318752	7725.4403640299
0	12629	544366.388467319597	1858.5692848128
0	12645	545058.493754343576	4433.3982394867
0	12654	545516.854131666347	1543.8528898279
0	12697	547941.862959969795	1221.4412340594
0	12706	548445.132560133028	4246.1660755359
0	12741	550159.486325474321	7587.1520127709
0	12820	553424.561459261854	4757.7368050243
0	12838	554247.650343332047	7048.778244598
0	12855	554698.925587379892	5187.6403088235
0	12916	557769.8444154881	11079.837958597
0	12983	559425.064627631967	8654.1471351498
0	12998	559770.489557841402	7921.4972215826
0	13011	559868.775789572396	12645.254557782
0	13016	559872.665704669152	9111.6103096422
0	13021	559983.535208957885	9399.2890168119
0	13029	560050.109912410667	7958.3066333126
0	13035	560282.960836568864	5846.3161109899
0	13040	560311.125696515312	5511.7502011664
0	13049	561213.843064509291	7041.8650388972
0	13054	561326.269427415446	3446.7995610531
0	13065	561561.312979192965	4746.3879794562
0	13118	563034.647189374083	8393.9532696604
0	13124	563447.295872051151	5537.9944299239
0	13129	563722.602497511019	12724.195373662
0	13134	563850.443041809583	8806.2875463699
0	13140	564012.979696051471	6760.3573763096
0	13148	564451.780261806498	5762.2416312364
0	13165	565387.385095636544	16490.94402407
0	13185	565920.184082173861	10554.888999241
0	13197	566737.471069789612	7000.6354803642
0	13210	566956.525345205967	8219.0698946316
0	13237	568846.876670096515	7120.1130910737
0	13254	569631.150934734965	8089.1895363642
0	13290	572283.862645166932	10775.511617762
0	13295	572445.296920709792	21007.948942826
0	13300	572632.498265490535	10853.183029825
0	13315	573690.316534424739	11046.645262049
0	13332	573971.640115390097	9798.1821309954
0	13407	576224.346965038318	11163.837986795
0	13415	576316.232236813871	9628.2767908293
0	13423	576404.934916651942	7920.6189714061
0	13442	576905.986171113622	9951.3167407229
0	13456	577216.457827574228	7423.2061241148
0	13486	578084.952023378207	8711.8305582262
0	13498	578543.042895469169	4575.7982973672
0	13517	579107.397230261842	5233.8503589829
0	13525	579746.227392729416	11839.355104547
0	13531	580035.012199827112	8880.4183909351
0	13536	580090.826046692513	4649.3199475782
0	13548	580679.162190330324	5056.9347567915
0	13553	580729.606004149331	4264.1292108368
0	13558	581244.451944426668	5477.5899897068
0	13564	581250.766933300849	4175.6068839605
0	13585	582284.744913750842	6330.7213822083
0	13623	583089.238021154449	4733.6359647757
0	13634	583187.659773838733	6862.0703003557
0	13698	585366.332723883193	10928.480731827
0	13706	585440.849292763438	8108.9565401434
0	13717	585731.077382143016	3788.5999842822
0	13734	586171.76598436389	9229.6273943219
0	13768	587277.912732453178	5324.7545452004
0	13779	587595.117928842452	14151.534228658
0	13788	588043.353150234893	4859.8983452353
0	13796	588375.853855658736	4510.7141995475
0	13801	588442.127996425536	14125.431465554
0	13809	588744.920456416167	5503.7506830915
0	13831	589408.541594422156	5638.3759698781
0	13840	589783.915072372231	3354.6965751863
0	13845	589948.425419559212	7695.339673276
0	13857	590468.413503911656	5416.9697509614
0	13885	591077.309273013515	7125.4049189064
0	13904	591384.928911515828	5221.49213469
0	13937	591981.280121026312	3277.6282578258
0	13954	592527.240119183376	9348.6181707802
0	13968	593363.644541614881	3165.0253629219
0	13977	594153.868847818113	7681.1975684848
0	13993	594647.194430186932	4137.610301238
0	14012	594840.417613743856	3959.8931710188
0	14017	594950.18057967769	16571.10431747
0	14022	595126.262403283674	9588.1274733675
0	14027	595163.307676377135	12310.528274752
0	14035	595198.482736710622	4004.9061116097
0	14044	595554.943633657014	4367.8995476249
0	14075	597786.570215957314	3592.2517826178
0	14106	599857.964409248259	5509.4651319143
0	14120	600007.051965570049	8910.8360172234
0	14139	600204.045905817487	8292.0449115325
0	14156	600831.812422479588	6702.8967531883
0	14161	600977.953409911366	4418.4054794128
0	14170	602028.32256104986	13115.456812041
0	14194	603246.873312338833	5646.1823714985
0	14241	604760.265387687817	12320.814562197
0	14249	604819.369760136759	4647.3232950264
0	14259	605188.448230064331	6773.448446717
0	14268	605740.146211606312	3471.9459723006
0	14285	606735.408962550569	3565.0914296264
0	14302	607267.946202017652	2498.8112204626
0	14311	607750.754340335741	7830.5345464837
0	14381	610417.968557549622	7859.9230923312
0	14393	610669.56678320422	6967.2990396642
0	14401	610991.245368269235	3479.7772464984
0	14418	611511.077848296508	11662.252973043
0	14428	611883.784975614993	5569.8392376932
0	14437	612144.14135317949	3631.442075041
0	14442	612209.706777937595	3807.2187917599
0	14447	612590.752748947603	1629.8854095866
0	14459	613075.478517531502	4808.5760544008
0	14468	613533.698286554586	18090.627116514
0	14515	614694.566329202058	6153.5972433355
0	14532	615010.305880601205	11506.033352519
0	14542	615246.740775723066	7405.7506570899
0	14547	615299.816298630666	7130.5028770094
0	14558	615340.936818496924	888.01097961125
0	14584	615929.320419779242	14356.098691803
0	14600	616370.821655742919	1727.2571600845
0	14656	618615.607364017255	13095.118991684
0	14675	619881.125606710828	5807.6763144018
0	14711	620727.758898986145	5048.5053310227
0	14716	620768.569497766029	6672.3620222542
0	14725	621044.776221090694	4917.855951549
0	14730	621110.051648907806	7627.9109877943
0	14735	621134.00273126465	6323.3521865689
0	14740	621159.35912571779	4157.9239448387
0	14745	621283.178971198597	9858.7828993156
0	14756	621535.549332760179	5241.3595241991
0	14767	621862.140867571861	4420.236311694
0	14772	621919.727093868421	5317.8256199611
0	14787	622681.93479215235	7344.6810327334
0	14815	623952.888340430288	3721.8760285902
0	14869	625882.633464186376	9272.2915780809
0	14874	625951.253142026541	3504.4358125337
0	14879	626204.63792988074	6469.0397854363
0	14891	626640.255098398911	7872.0767011237
0	14896	626747.460729311933	2720.1541104192
0	14911	627250.088841044387	2448.4376123971
0	14933	628195.542380092919	4414.3492933776
0	14947	628619.781861617864	3768.2503440971
0	14956	629629.643815168035	8326.2324021841
0	14961	629662.457949347297	7094.798071153
0	14966	629686.349844034984	2916.1162959427
0	14975	630524.846716351908	5027.6715124367
0	14992	631485.270003305249	4376.6968996091
0	15020	634121.507306150154	6103.4264156279
0	15062	635918.651248516231	4214.8788668246
0	15076	637534.341102437905	6590.9132680474
0	15084	637893.658523068894	2880.9234615137
0	15092	638247.430906919913	5769.8178472496
0	15098	638415.929637732095	4017.9563655492
0	15125	640719.486694867001	5631.5810806982
0	15139	643227.5632835101	8479.1225293025
0	15156	643766.690151719954	3761.8025215686
0	15178	644726.744234906064	997.328138048
0	15188	646198.124746513823	3209.4216616093
0	15283	651773.964571809636	7724.6356470423
0	15300	652748.597091663016	6397.0550442441
0	15308	652912.860268224386	3965.2018498056
0	15318	652935.861587994953	4470.8992895742
0	15326	653124.133150171353	5834.9507575948
0	15338	653555.187144905265	6646.7740082904
0	15355	654116.37560271451	14562.024554512
0	15365	654392.623726781569	4235.4139478903
0	15373	654739.411215787617	5473.5317575085
0	15382	655065.09790286632	2285.4063982835
0	15394	655831.869387591349	4805.8065720353
0	15409	656090.083581701476	2834.1710080881
0	15427	657226.041579650872	6775.0413461546
0	15463	660597.850444211935	6574.9686696498
0	15489	661693.839426111859	3408.3118606927
0	15500	661843.405610345695	3263.1992239662
0	15542	662962.494490153979	7661.2552610302
0	15553	663305.420734620541	3563.3893015258
0	15564	663471.120350518163	8354.4242282202
0	15570	663943.4602456191	2931.1163178309
0	15575	664127.931619797547	7780.6253259777
0	15580	664197.298944313628	2018.4375347106
0	15590	665857.113927903434	4682.1144352982
0	15599	666264.892225447699	3852.9677270776
0	15608	667017.679783694441	5247.3269438474
0	15635	669382.475758862083	6511.7362179595
0	15660	670100.366330469141	410.67994759993
0	15688	672944.573682615571	4145.0398019213
0	15708	673911.580296116199	4045.3960817861
0	15725	674321.557719597043	2732.008451544
0	15742	675713.704238321091	7925.5612759956
0	15759	676294.157126657222	2899.4032419666
0	15780	676928.597082086983	3083.0790558209
0	15856	680698.594494942829	4272.4275005208
0	15865	681530.385237130533	5103.2502471391
0	15870	681688.270790204802	6118.8855614647
0	15882	682304.240175862836	5600.7509067745
0	15901	683278.279794791675	9063.5034358425
0	15917	683587.806663987268	7115.9430413746
0	15927	683738.895647816837	5487.2184875299
0	15939	684709.27278266315	6571.7617848083
0	15948	685242.721047516906	8787.1171701592
0	15973	685886.02103637448	5558.6423545274
0	15983	686164.90665340045	3581.3883416874
0	15992	686505.379105323596	15399.664054356
0	16005	686767.528578359216	3410.9380640997
0	16023	687901.572550815262	2499.7148770895
0	16028	687941.23149906009	3103.8259483661
0	16036	688223.92423884193	2373.6765254992
0	16106	692241.583069551923	5960.2807212884
0	16112	692318.749279877385	12209.421185296
0	16117	692329.117704989907	2471.1518284465
0	16125	692418.155321095816	2805.6881953565
0	16139	693671.077198080371	7088.179356309
0	16149	694641.855488062669	3254.2097629003
0	16161	695382.764083800742	3507.0624007183
0	16166	695822.401370979361	4123.7070846191
0	16192	697464.714241558337	6810.1026267346
0	16209	698237.339539647119	2082.1126036197
0	16218	698998.093485513065	2941.3219002584
0	16235	699658.952096187441	7304.3220854855
0	16253	701010.805722699624	3449.4604557331
0	16331	704402.30443853513	2428.8374810644
0	16344	704715.96473640893	1863.8303651435
0	16349	704913.680393416568	2142.6821081625
0	16355	705047.347943076635	4390.9481329078
0	16363	705612.473617843094	1938.1444814491
0	16389	706289.198656464135	2789.9679767919
0	16456	708727.775354462676	5417.2098970939
0	16462	708903.742894057873	2155.2095110419
0	16467	709028.608581100194	5236.674922011
0	16478	709317.754749043446	2693.4046913158
0	16492	709968.82742567383	3769.1783379131
0	16506	710262.455697408089	11199.178408381
0	16538	711899.27140796185	2427.197139579
0	16566	712801.161979832339	3726.6529247174
0	16571	712822.631718694727	2282.8627213053
0	16577	713270.370958570697	8919.4355701991
0	16582	713355.763015054219	1762.1970097391
0	16611	714682.536605303018	3699.5446735084
0	16643	715390.486069542683	8094.6260744559
0	16648	715406.789858660193	7881.7174678367
0	16667	716332.358046593101	1745.9474461985
0	16684	717027.437710586368	8761.6316887197
0	16695	717440.418429153462	3409.6066866873
0	16757	719523.418347975547	5073.2280273118
0	16765	719692.585918196194	5213.2683869397
0	16773	719954.04139167578	7672.4715383877
0	16787	720222.180697934412	4583.3890725779
0	16792	720264.191061546985	14566.386065613
0	16800	720455.49271462057	2568.4607844615
0	16822	720985.057095326191	2467.2653181751
0	16833	721372.372276808069	6437.6252535701
0	16847	721793.001049002249	4265.7762969221
0	16856	722287.362278949075	5019.3043239483
0	16874	723381.207688583827	17216.576783133
0	16983	728369.699147908487	10913.634590283
0	16988	728408.432551231289	7937.0385221167
0	16996	728565.345825805001	8281.5967504054
0	17001	728659.788922189841	9865.0428268136
0	17015	728910.162039844487	4863.3740610573
0	17029	729106.004594069535	7936.3293330313
0	17040	729347.651375670321	6051.9137843672
0	17078	730393.449877780525	10625.683769771
0	17087	730509.165063565397	7943.5047549193
0	17097	730935.702973697293	3173.4119032187
0	17102	731100.381405929582	4608.1422977086
0	17107	731153.666434888437	6826.1882907019
0	17116	731304.433751411019	3090.2118214168
0	17129	731469.562122437418	2161.253188567
0	17137	731824.077688756084	8696.2660072104
0	17161	732436.130734753072	6945.6282704606
0	17212	734388.355526163145	5207.8743905227
0	17217	734417.735006021421	9485.6014366585
0	17222	734440.953387820819	4899.082075125
0	17230	734779.251007652359	9407.2353935752
0	17249	735148.1313637478	4727.3030971863
0	17257	735483.532836212949	4232.0676211068
0	17267	735541.271546732088	6753.5884094679
0	17282	736417.238520074451	4303.6501012028
0	17287	736432.008722317163	1935.9848721296
0	17302	736627.775019800642	3504.6477615697
0	17313	737482.780185308504	5379.5105366782
0	17318	737528.625773323029	7588.5817104191
0	17360	739364.310164501711	1681.658357165
0	17369	739787.095985684106	4889.1707913799
0	17383	740125.857603142557	6620.8596653031
0	17397	740440.219616358459	5107.8052986907
0	17406	741366.123724352302	8663.5945896768
0	17423	741918.644868095328	1818.4361401335
0	17472	744307.837524423903	7695.4645310808
0	17480	744522.54924353012	2324.6006006445
0	17490	744680.796595533643	6070.4439807839
0	17496	745143.770276122546	3836.8754098422
0	17529	746221.87636172753	1901.3520359799
0	17548	747005.876315182963	3480.6768015885
0	17561	747582.884207371713	5892.5150663356
0	17602	749909.071639485205	7673.00494122
0	17661	751100.378650995736	13115.645313629
0	17675	751546.311703989287	6012.9993992425
0	17680	751627.814300660378	5916.0272995895
0	17688	751733.57694121497	13647.21177789
0	17706	752306.112763828304	6419.0501266765
0	17725	753294.201249162626	5613.1457615837
0	17730	753369.993033382823	5363.8145168534
0	17739	753945.395563512137	6006.7075619573
0	17759	755135.905514602604	7538.5586878612
0	17778	755689.707128981352	6275.4423427524
0	17786	755866.518487604979	7706.5365584024
0	17806	756254.783136001273	9287.3752200565
0	17814	756380.325562859978	4022.4703538529
0	17831	756857.372177188029	2280.6151570571
0	17869	758528.19975867846	7646.9408847069
0	17899	759213.804882647535	9998.7446972967
0	17912	759727.173387903758	7571.1857701817
0	17925	760661.5969777871	7190.4580121912
0	17939	761400.573345554485	5130.0796014303
0	17949	761747.283898507511	6024.0387137253
0	17954	761980.791054319385	6960.1776390696
0	17967	762815.459533348783	14031.525454825
0	17978	762858.72865216593	6047.791300213
0	17983	762991.37597089265	6394.6987223186
0	17994	763300.013644728307	4514.7628107898
0	18016	763734.150745894796	6140.1151465575
0	18038	764415.297226004173	6584.8719413858
0	18046	764465.048245140457	4067.6340327296
0	18074	765710.963290382031	6548.4688407195
0	18085	765985.138951925827	2941.5517743305
0	18093	766161.447383060946	2581.1457161441
0	18118	766595.807646376499	5263.8965567046
0	18126	767053.305939528908	2614.9173332952
0	18131	767144.83853941159	3933.313047167
0	18138	768404.694758674657	3559.9198026912
0	18143	768474.198246459502	4799.2113547265
0	18162	770286.828218537929	4208.7298232224
0	18187	771560.570759217132	6121.1769560659
0	18200	773229.07221331431	7038.5321897906
0	18292	776954.045480475307	2631.6183389786
0	18315	778425.035266886766	7869.0886495263
0	18324	778645.64519366768	9174.9447296647
0	18329	778695.285310977064	5411.8379074313
0	18337	778843.072401497881	5366.1263893504
0	18379	780536.063823681362	7535.3296813593
0	18385	780971.783899514866	6913.7752982057
0	18390	781338.968055168874	4686.7535154368
0	18395	781466.09732078229	10468.367599847
0	18401	781601.43822409662	6921.4890338792
0	18415	781976.252060254322	4759.5439153909
0	18420	782134.103312790491	3113.836771401
0	18438	782952.696274703896	8341.2333098884
0	18454	783442.617921937352	9221.7911700854
0	18459	783559.972496671478	4429.2987614868
0	18493	786189.80779687888	6741.4296225072
0	18529	787625.798225433111	5216.3028175203
0	18538	788389.741421751225	5448.4276632184
0	18546	788460.215084843746	2911.8628486028
0	18558	789523.173731140673	10823.830604077
0	18567	789917.916141549111	5161.3901013542
0	18594	792017.839014218863	6711.9489265682
0	18627	792767.096515026794	3031.0446751741
0	18632	792917.995169867243	6259.0033076335
0	18652	794083.316767312358	2168.0202772657
0	18669	794761.016940147056	9338.5002696015
0	18674	794802.853342877424	7605.1250204648
0	18683	795162.694963069179	2696.5414576852
0	18701	796973.611330491084	4509.2887865963
0	18756	799512.304049546232	5616.6139767297
0	18780	800091.402312133486	2756.2537330413
0	18785	800142.174396396	2180.7446135587
0	18795	801205.71325667215	8132.5846023856
0	18813	802417.182490542663	2936.6715662287
0	18849	803613.396377011768	5468.7884264762
0	18857	803741.718804649087	4981.5254284906
0	18877	804047.645127064616	2102.2220464033
0	18942	806109.143832656841	6420.7613899866
0	19021	808447.708427819501	4744.349111832
0	19035	808634.791200655626	6938.5881789195
0	19040	808744.058440745175	6672.8762455844
0	19051	809112.351214429428	5092.1381018359
0	19056	809207.97140810564	18174.81315778
0	19062	809387.666603624712	5203.494554656
0	19073	809563.266628205882	12836.325891734
0	19083	809991.76218768587	4132.9460071614
0	19089	810087.615969246871	5579.7499527501
0	19094	810380.994058174827	5928.7712243747
0	19106	811111.430811242519	4769.7207827746
0	19118	811751.633094016529	4530.7844263709
0	19136	812072.377867218184	14057.514266196
0	19151	812512.584935824239	9459.4733157887
0	19182	813968.446625743769	9934.4668645558
0	19190	814282.588337617859	8359.5200954151
0	19207	815068.5238762166	7525.2744059166
0	19216	815399.891109249384	8462.2488464919
0	19221	815479.174022277948	3656.4176386469
0	19229	815775.665319929007	6366.3316384477
0	19234	815857.330791009437	7436.9432430375
0	19239	815882.841402389351	3447.3910162779
0	19251	816057.931578072122	10100.469762307
0	19333	819978.538863996662	7717.0633075664
0	19348	820504.660164651472	8316.7230427911
0	19381	821561.037710851212	5616.2152455907
0	19386	821778.753344481091	7572.374150954
0	19397	821907.672756325626	5137.4871250153
0	19409	822281.386191467685	4415.9599049736
0	19423	823040.631498786099	6405.5034961447
0	19440	823631.153500686518	2893.5611160512
0	19445	824047.152760113784	12628.394998147
0	19454	824458.267154427432	4096.19456806
0	19463	825154.195206321275	7852.5991228241
0	19476	825601.614341986864	9012.8672143086
0	19487	826027.753568433173	4793.5721104213
0	19492	826082.22652581413	7799.9807224666
0	19500	826347.912113341808	10451.333789424
0	19532	827517.638374244466	8396.5530156566
0	19542	827708.790410494531	2108.3105675987
0	19554	828518.447809453126	1919.3601804297
0	19583	831652.942774713582	9551.5508809026
0	19651	834548.030787935945	7781.6213076064
0	19660	835133.646912822965	4737.2814713359
0	19670	835208.928763680389	7952.3821705587
0	19678	835239.140947572869	10167.143535797
0	19683	835458.509738106405	2998.1307097397
0	19689	835508.523871968883	4536.2208515836
0	19713	836021.059077792173	4033.731092665
0	19725	836311.24560519556	2538.0950541314
0	19744	836833.143074906823	3579.0505785596
0	19758	837147.79040954643	8698.6707131519
0	19766	837489.380792272456	14885.825323495
0	19786	837847.757146379544	2168.9385841555
0	19840	839922.49860706578	4376.6144769576
0	19882	841278.247422435429	6684.0559505123
0	19891	841643.859308171195	10675.663802484
0	19908	842066.67013172791	3628.4060634716
0	19929	842925.035912972818	5548.950513024
0	19938	843362.280902896734	6658.6494928421
0	19943	843580.958063742795	5760.7962380644
0	19951	843670.046086784686	4409.1845941241
0	19987	846223.978448940467	8086.6124556858
0	19995	846268.617749103554	6582.9669420684
0	20000	846378.208726315313	6869.0715160563
0	20006	847445.247926609099	7554.9758041868
0	20015	847593.351384101223	8979.3018047848
0	20031	848071.790656383866	6180.4173049312
0	20073	849313.232399665384	4817.0556947794
0	20078	849319.082785659315	1458.2194589285
0	20083	849478.330705484893	5865.5538007445
0	20100	849763.107236036286	2213.1810728216
0	20131	851105.943533974294	9452.9262127838
0	20140	851353.669785009896	1298.9834271187
0	20145	851576.125525618568	3216.2692959298
0	20150	851595.514591584228	15304.700940798
0	20170	852192.294763755786	2577.4176070618
0	20175	852386.103168575109	3784.3453845448
0	20213	854540.242477342126	4195.2469389963
0	20227	855511.816002849234	10728.217366638
0	20242	856035.939738031409	4152.7409531986
0	20272	856696.631695699596	14750.085931811
0	20280	856736.752000381583	3158.1420046905
0	20308	857662.255355750969	3859.2183945595
0	20313	857681.568972628716	9563.5626841493
0	20319	858126.931383167635	3624.686482569
0	20346	859747.441006176613	3979.925383624
0	20367	861306.651903079013	4451.3548072481
0	20401	862551.71098455061	8711.095106412
0	20406	862789.747206280037	6610.9307338608
0	20411	862879.123246079842	6368.9296912284
0	20417	863585.112495155358	3459.5123537369
0	20432	864026.040855128519	7312.2162990738
0	20480	866940.944243975559	6715.8996133287
0	20499	867201.147177418534	3567.2017812037
0	20517	868120.020831294473	2523.2090282729
0	20530	868491.896862876411	7090.7862154784
0	20544	868923.847485695801	5148.4849576305
0	20575	870789.673514152983	2329.9360396026
0	20642	873090.440962938096	7024.2798091621
0	20650	873689.353841381618	6888.573295829
0	20675	874644.296818581007	7676.4585610498
0	20692	875660.371678100328	6840.078753293
0	20704	876591.645786361435	18359.560249879
0	20715	876769.481855829877	6165.2098368086
0	20720	876873.974517468764	5544.8798817641
0	20725	876887.395947686347	6625.1284851126
0	20730	877007.288179258407	13284.921773181
0	20741	877311.819934377719	4769.9114878011
0	20752	877698.95778344514	6830.6462249653
0	20757	877945.864251969957	10231.442547658
0	20762	877974.622685176371	18581.395613699
0	20768	878270.915252976524	8328.771399777
0	20773	878292.657217692983	5672.4375808672
0	20778	878452.900282771151	4449.6311086505
0	20813	881781.457897009873	5303.0026118054
0	20846	882894.820974599419	5608.9108680191
0	20864	883335.75227187539	2631.9089963252
0	20876	883886.715172122741	3055.064871306
0	20882	884308.340289455651	2632.7685322243
0	20906	884948.21786806186	5978.7902323735
0	20936	887208.584213723465	6766.7321989989
0	20995	888256.949824916824	3507.083331733
0	21005	888534.720382685911	4060.7288003073
0	21013	888645.091280520556	5871.2169676902
0	21022	888889.401624764122	1506.6198973355
0	21027	889272.753259338477	2101.2987959946
0	21032	889475.400974642848	1936.3961932224
0	21052	890152.518745869688	7384.6205609747
0	21058	890276.83512744628	2910.7205080635
0	21070	891145.347555661078	2895.5266575348
0	21075	891226.009256705059	5176.4334513227
0	21110	895073.379455773137	5410.7054921495
0	21121	895534.756933585349	7931.0928059726
0	21129	895908.362144647711	8992.7163840559
0	21173	898365.408921282384	4041.3300414777
0	21183	898460.169482304628	6613.3798322285
0	21193	899269.987388869689	4287.6418583874
0	21198	899424.081109259822	3102.3355159891
0	21214	899768.858577625304	3802.1797091166
0	21231	900663.614007409841	2495.2887253164
0	21260	903858.610294508885	7629.8305873959
0	21268	904017.059372804955	4172.6141619641
0	21280	904606.525456290781	5083.2104572906
0	21293	904873.260143441788	2041.4952395785
0	21328	906606.378746934127	2096.3437717157
0	21347	907026.02216574764	1721.310084758
0	21353	908175.915714982639	6024.4214667221
0	21371	909051.190327241838	3659.5759852024
0	21382	909624.580706759688	3524.5581032643
0	21433	911287.404758095822	5403.3669291854
0	21470	913009.956889920716	2881.0325570429
0	21475	913220.655028954697	3716.2107074728
0	21480	913469.616519267975	2136.105092917
0	21489	913698.147584706251	2937.1091677966
0	21510	915240.999499978219	3259.8009269928
0	21515	915294.134197542706	4105.7795272607
0	21534	917889.11580589354	7599.0465093721
0	21543	918115.32809207338	3745.9033012372
0	21554	918444.953429550683	10197.483889218
0	21568	919259.782509248488	9366.6934529697
0	21622	921480.326239989922	1906.1620549239
0	21630	921682.772906913113	3304.9323540518
0	21667	922517.408290960966	2720.9134249976
0	21675	923018.776127550407	3025.4071259023
0	21689	923499.979310049937	1768.6348609937
0	21715	924757.63437187542	1522.4615190611
0	21723	925133.624369358115	2306.3156681541
0	21728	925208.53049405373	5320.6644831944
0	21737	925624.250647385021	9022.9511447657
0	21772	928276.569609466288	6724.4901048401
0	21781	928734.566428735358	6968.571356397
0	21793	929310.798229101538	5543.1288682958
0	21798	929485.049766464018	2558.6700904616
0	21835	931097.151288856112	3823.9437506175
0	21840	931212.186307102799	3284.7193129781
0	21849	931635.075534413591	1766.0965343315
0	21857	931913.099772525078	11390.115026488
0	21883	933539.347696273849	3328.1819147046
0	21919	936421.519023706682	3319.2002496509
0	21937	936772.96712362804	1563.6745750415
0	21966	937456.161005266822	2966.7900860862
0	21989	939042.250860854873	2532.4207530121
0	22062	942379.918353084096	9944.853508406
0	22067	942411.494535815256	6681.6337486357
0	22072	942600.755950724792	5967.9046011369
0	22090	943201.092541330485	12693.030010363
0	22122	945045.539608976684	4985.1043623334
0	22133	945741.281083991265	9181.9263375893
0	22207	948715.153453620647	9385.945622577
0	22213	948779.126705292935	10259.623084915
0	22221	948988.657019534592	9584.2287087707
0	22226	949140.759894651853	11208.945550525
1	1316	61614.294596065186	342.1217804693
1	1321	61663.045742771532	314.72077909145
1	1326	61741.020658273635	239.85084869104
1	1340	62165.58113897504	352.15413698199
1	1349	62699.384737580315	693.46926742705
1	1354	62907.481178584609	384.90280258844
1	1376	63411.842263447629	0
1	1384	63486.54952346003	9.833349096361
1	1433	64679.055718352642	435.73534963956
1	1445	65403.526764728105	1060.3296495633
1	1460	66142.608467402041	1610.7966515354
1	1465	66635.123321134482	1773.5185930405
1	1471	66752.508457532647	1333.0122195659
1	1476	66842.945048080089	923.14676247424
1	1481	66849.328059259461	776.42033477822
1	1506	67296.420991210942	364.83603538898
1	1512	67683.034600681107	741.85815858321
1	1560	69792.980778035532	87.282911851929
1	1571	70161.449295636631	280.33410548133
1	1576	70499.462607641628	443.41949277308
1	1604	70847.57588903163	22.062082206942
1	1632	72320.84063255497	739.66711900277
1	1646	72507.603813597602	829.96356671001
1	1651	72657.951682902119	249.97454985993
1	1657	72813.772434357087	361.29802303733
1	1681	73263.950228223248	261.50550506703
1	1694	74472.857188856007	748.25384929549
1	1724	75028.12354414848	149.72420132076
1	1759	76738.187146843033	968.03359114305
1	1767	76827.704973257042	80.303065459541
1	1805	77860.285339992844	190.52719777508
1	1811	78115.226148428488	377.26949159903
1	1834	79001.776115829661	631.15414258997
1	1842	79189.988611295529	601.67815763527
1	1853	79391.888720133145	194.19235156008
1	1858	79474.867513077737	256.43480995031
1	1870	80234.521358987483	529.09458711485
1	1914	81064.923144460948	92.02802783702
1	1936	81879.552504823885	267.55707492313
1	1971	82774.459822918568	140.20219358167
1	1976	83086.322605793925	397.52742242892
1	2000	84332.208248612645	572.45730396117
1	2005	84561.170371962144	705.5095134575
1	2017	84950.643531667043	738.63585135074
1	2028	85203.878056895463	479.34825857864
1	2033	85259.862259967366	378.73933563467
1	2038	85384.810212442457	273.14242669008
1	2054	86309.281718732177	715.86012251408
1	2059	86324.84492551414	100.69783857485
1	2090	87501.49271553658	135.24213017837
1	2098	87571.150040186171	137.13998061322
1	2134	88990.926136941221	715.57659446123
1	2169	90354.019696919295	421.54082371133
1	2174	90744.341091995457	599.19005886153
1	2196	92325.585364185661	615.37023589112
1	2201	92347.765041484008	620.77493158657
1	2212	92564.480731135953	269.28761305738
1	2227	93464.603272887409	1051.1429665698
1	2236	93934.936052743335	1381.3225500535
1	2241	94136.158152093091	735.18879665691
1	2271	95745.87284714034	1318.4071796041
1	2276	95824.589858711285	1055.9504366844
1	2281	95857.05727698462	653.86066299061
1	2289	95988.129551890123	340.48260286938
1	2295	96102.811592260195	236.16627900873
1	2328	96935.532268141204	117.3017439678
1	2392	98998.087016132724	359.81487631703
1	2418	99993.819503706405	199.28875203578
1	2455	102044.608207754634	97.358453283156
1	2463	102160.224900205297	66.326404594598
1	2476	102588.37647129773	59.936135375395
1	2488	103027.279730972587	265.44570764394
1	2499	103236.270033668292	182.89781646301
1	2540	105165.154627693306	1049.758142428
1	2545	105362.898201161228	828.97884828597
1	2557	106126.449621434978	1008.9327963103
1	2562	106138.679973756837	475.90807546676
1	2579	106836.680446212276	13.569250986337
1	2597	107708.62009697074	589.3274495491
1	2602	107970.941700402738	716.56848102543
1	2619	108099.016570187655	60.364089596216
1	2627	108629.441723562995	43.256515250447
1	2639	109132.490301555072	326.78187919066
1	2659	109977.096867250232	396.63133677677
1	2664	110075.685540209243	201.10041294051
1	2686	111098.660365679139	935.28884426842
1	2699	111173.221899057093	23.59196554174
1	2751	112218.679676068779	42.694038849188
1	2765	112568.474359724481	69.093095516679
1	2787	113543.04479154763	0
1	2812	114585.186864291232	72.098684901553
1	2837	116956.143174481481	719.34590307594
1	2846	117363.629593269657	1042.4608222162
1	2858	118027.76969716227	1029.0927513915
1	2873	119039.793992164769	1617.7090449366
1	2878	119071.55935504755	1502.0456179623
1	2883	119082.879984829103	691.32440952554
1	2922	120612.698851902695	103.25285917059
1	2935	121647.585062034253	999.44278657909
1	2957	122931.451225253064	627.99692524541
1	2984	123507.392931089065	0
1	2993	123979.335077600586	0
1	3010	124870.305330499069	46.145924573117
1	3044	126028.466525175067	0
1	3070	127713.38617291603	0
1	3087	128405.321586444327	0
1	3096	129032.12156013679	0
1	3104	129232.169725966841	0
1	3112	129422.859549605384	168.25526135763
1	3130	130513.700019623899	0
1	3154	131126.067838579755	0
1	3163	131450.945299853191	0
1	3180	132279.360395446437	0
1	3205	134152.579650532578	397.3228691869
1	3210	134177.422118035111	421.60288069501
1	3222	134353.105073697421	268.74754821954
1	3240	135591.577188097842	1095.3378378762
1	3246	136032.935456302743	1372.6472264733
1	3255	136870.831626827606	1683.4846427288
1	3264	137275.111650959899	238.88962324719
1	3277	137442.791546645526	76.728713675378
1	3292	138175.436475297746	227.00920779393
1	3303	138687.410071836138	514.39104280082
1	3328	140320.176274182681	1009.5866257886
1	3341	140601.864558068889	65.370221174199
1	3376	141652.636583808028	424.73489022583
1	3410	143011.815966127141	203.22112332516
1	3433	144139.871723755046	314.65458908692
1	3479	146177.008954120056	565.53765672882
1	3488	146483.566770851693	402.91721830877
1	3497	147211.458350114414	5.15966005729
1	3520	148705.6012379405	589.12460070758
1	3528	148998.270236203157	190.79442396541
1	3573	151322.930842623741	0
1	3594	152399.604220756573	486.07655984641
1	3603	153143.031450354952	449.81346357628
1	3611	153258.038320796036	60.517497069342
1	3625	153877.209037076779	0
1	3642	154878.729080556175	375.63383904515
1	3657	155826.759939470211	388.83914369391
1	3670	157289.399814853752	1553.2644569027
1	3675	157379.983742425408	1098.1427261229
1	3684	157925.755828504567	1013.8005107565
1	3701	158574.891705821369	79.406722652496
1	3709	158845.402009945297	133.52817606594
1	3721	159230.834581222353	198.60692731115
1	3747	159860.557389927753	211.75349507631
1	3768	160310.201826908341	201.86162802103
1	3811	162330.835480150034	516.65200402394
1	3816	162372.995389369064	110.91549747155
1	3845	163002.146885092766	0
1	3863	164332.22016694828	0
1	3889	166453.68890923958	0
1	3899	167701.990885718281	0
1	3907	167903.216254405306	5.098321628113
1	3916	168064.71408148823	0
1	3924	168279.404895017268	3.322355285745
1	3932	168422.354165737907	54.931965629751
1	3941	168781.679990918234	261.30497560341
1	3982	169997.71735837073	30.633697908183
1	3990	170104.309328462199	0
1	4008	171033.726096162968	80.241172768419
1	4053	174798.757596552459	0
1	4061	175306.976767699623	442.54297101875
1	4069	175422.024179689836	0
1	4102	177383.729443467031	545.87600042445
1	4110	177511.229587835037	551.91661084806
1	4122	178005.518408243896	521.41951448401
1	4127	178350.330034833407	369.32372296856
1	4149	179112.167030040344	310.57852382207
1	4158	179386.174875027039	43.287236117185
1	4171	179534.526639628267	78.784255477645
1	4200	181042.552594475753	167.26296919206
1	4222	181741.128685317007	69.430710256313
1	4230	181916.607210837152	31.229576474025
1	4258	182845.128210044148	222.68748570667
1	4282	183881.00701807952	551.83859762504
1	4287	184312.841872619742	935.73778283811
1	4292	184389.321798802285	858.9511806172
1	4315	185271.164799099889	0
1	4323	185729.903178707961	0
1	4331	185929.297288821711	7.425953469863
1	4398	187923.790170496975	459.41080292874
1	4406	187971.786835377639	13.735292477251
1	4418	188702.585754932806	5.752297732473
1	4451	191600.320246581525	0
1	4463	192240.051738792629	53.921257024449
1	4490	193836.653907364506	1391.5192173431
1	4495	193966.216192804501	1286.5238920739
1	4503	194074.46604059953	370.60484996373
1	4509	194408.395378490575	646.54652871389
1	4517	194932.264740868416	483.81858934795
1	4567	197575.207887852	1366.8794897063
1	4572	197607.882707713731	816.89089497855
1	4605	198800.984253327077	20.133194185251
1	4619	199237.057342041188	259.48142930165
1	4638	200274.853253807133	1258.5669333908
1	4643	200409.68299518985	781.23670607147
1	4657	200848.585688621764	1053.8896028771
1	4663	201042.984028241739	1175.1762428164
1	4675	201881.867626472926	1806.3835171152
1	4689	202156.332718535421	1632.9871845737
1	4695	202612.784738801182	1783.4183121296
1	4700	202859.345127020355	1021.3266237067
1	4715	203762.677921020692	1761.0515710586
1	4736	204232.269169507865	1055.7295004959
1	4741	204531.958095652111	1042.1941518016
1	4750	204869.58682033836	1257.5841075547
1	4755	205014.940505738045	1198.0838256774
1	4760	205266.001836068898	1439.5267368216
1	4771	205419.791129144603	1271.552621088
1	4777	205501.24674503891	960.60139995076
1	4840	207477.678967750126	432.58473465162
1	4859	209017.265419444178	1089.15877064
1	4865	209319.119825566444	1260.7741326112
1	4882	209961.905375419914	1516.2010428706
1	4888	210034.784078374732	368.79909871349
1	4896	210605.607822416899	857.42160528041
1	4905	211257.399348687017	604.1660253263
1	5014	216405.646990013986	657.44867269433
1	5027	216532.295248114642	10.683050211966
1	5071	218383.36417979285	0
1	5088	219099.718040709071	31.157725252692
1	5096	219343.076012150424	196.56381902682
1	5105	220084.009188726981	0
1	5125	220502.183313773615	118.3878093464
1	5133	220894.375363515053	371.40462682536
1	5145	221848.803528124222	396.83423613724
1	5154	222362.06360978428	231.74889733148
1	5176	223004.406445800054	404.82930510753
1	5190	223783.578237147108	0
1	5211	224455.048840947069	262.89346163597
1	5216	224607.128193357692	295.94808752859
1	5221	224636.509417927638	306.27988741185
1	5232	224930.371229011383	594.90728994849
1	5250	225311.344146627606	490.1891266242
1	5264	225536.691896062458	712.79172455005
1	5272	225567.78086166407	152.47424608526
1	5277	225722.452406750495	203.96588245073
1	5298	226667.213736327275	294.19543091634
1	5313	227358.826458804284	969.87553019456
1	5335	228461.599620880403	303.38712393526
1	5377	230261.885109772133	290.06225838415
1	5441	232299.07841210454	0
1	5458	233149.232079610695	0
1	5477	235052.305321592825	0
1	5486	235898.724264076171	0
1	5494	236210.868138360772	0
1	5520	238555.522582389208	623.7529563929
1	5525	238608.967981869571	143.69459035969
1	5536	238933.646245280275	244.1452774298
1	5542	239849.482350957715	1101.9102229559
1	5567	240461.037766263147	261.61693571713
1	5575	240601.053626314758	376.01212072102
1	5607	242315.412942624891	0
1	5635	243532.500674733627	423.52269606749
1	5646	243693.756569995566	136.05204620956
1	5661	243973.434875469946	391.52006404278
1	5669	244150.086754897283	433.72571845478
1	5674	244259.637435355441	541.50489370996
1	5683	244696.290617475484	735.4174642959
1	5692	245257.633940556382	1163.1745652029
1	5697	245351.097927211952	636.59210363309
1	5733	246909.737414490744	1248.5073652161
1	5755	247810.944827523794	446.29767902298
1	5771	248236.362353949453	188.01258732578
1	5797	249119.051665660201	101.29062582
1	5850	251190.055975326962	0
1	5868	252538.121731481056	65.710161959324
1	5877	253455.991896195448	159.26234056206
1	5889	253804.569755811456	345.64614708336
1	5894	253808.923686766543	190.15334343657
1	5912	254412.145637363088	385.15022733241
1	5920	254590.164793282776	536.23042332208
1	5929	255192.520591385886	1054.3015960266
1	5934	255450.397150816584	1183.7445138975
1	5939	255615.582690023545	1156.7036909983
1	5962	256041.582949880383	137.43675276294
1	5973	256218.87983247254	44.482439362615
1	5990	257008.933538187417	255.64267026399
1	6032	258160.387031453461	344.16621842845
1	6043	258469.013820618221	603.21931667752
1	6095	260541.428124253007	16.352820931656
1	6103	260737.193007255624	0
1	6132	262013.891157020981	248.10933175283
1	6146	263121.373552443234	460.66509960862
1	6155	263476.625214696179	175.31387487277
1	6174	265383.871855982883	1811.8154043779
1	6186	265635.571718827316	1825.4818883149
1	6195	266448.624789852534	1696.8682445933
1	6200	266552.204477562442	1259.5557986365
1	6205	266783.975010053257	1299.9635428322
1	6210	266855.465648364266	1371.0285431196
1	6231	267416.855163820821	45.164947892415
1	6243	268098.976458228111	697.38810442159
1	6282	269282.398969004354	429.14807706928
1	6295	269990.567198966577	287.12662825251
1	6313	271014.237845871403	236.42297378658
1	6366	273002.947165560366	435.93746134999
1	6371	273134.612348650656	465.30328654984
1	6396	274237.81372428656	332.29576482379
1	6405	274710.505644876969	791.849287252
1	6435	275810.40980434025	0
1	6443	275926.549625345169	0
1	6461	277238.512287353633	0
1	6469	277496.694207007419	0
1	6489	278018.702151710817	284.78343364543
1	6512	279439.971259333965	0
1	6528	279659.546534368962	45.493427365991
1	6537	280154.38170888527	0
1	6578	282743.60109832789	504.44237952765
1	6584	283165.696670631295	780.2640100577
1	6598	283654.242647247475	314.8882150179
1	6607	284712.617446355392	156.77425125565
1	6633	285863.826773492148	0
1	6649	286427.892192663797	0
1	6666	286948.101466073318	86.701730749892
1	6674	286979.59662357231	0
1	6700	288093.644325543998	0
1	6714	288502.863143034389	275.02644861934
1	6723	288911.129617449448	536.48904730724
1	6731	289411.441542163118	205.601654159
1	6753	289783.385599916687	117.27202586155
1	6768	290540.830385100003	370.05487831504
1	6790	291551.028987314002	208.41431819056
1	6807	291860.769881605449	256.29171881083
1	6822	292906.812387413162	582.04930303077
1	6847	293696.910049155356	187.5570682242
1	6883	295431.81364395915	392.54864202023
1	6903	296562.790059104331	0
1	6912	297124.371383041182	0
1	6927	298125.750935732224	824.19442483102
1	6932	298132.568069491533	340.92560639557
1	6937	298137.495326771149	260.10841645246
1	6967	299055.001883456261	749.08012628333
1	6972	299074.370791673513	652.03902469488
1	6981	299341.333330431577	734.30529068684
1	6986	299481.450733156377	665.64465633668
1	6997	299855.338619311507	935.01335203324
1	7003	300011.705683331571	907.31332835004
1	7008	300038.046222161114	338.80209348983
1	7044	300955.713555829864	242.28023225926
1	7055	301396.4283247046	417.06114645309
1	7060	301417.767726185098	111.36290229084
1	7091	301815.44575768776	159.65595941835
1	7096	301874.041274768292	65.444104944557
1	7110	302749.18014423476	151.64506183954
1	7142	304139.572154530581	809.76818326395
1	7147	304361.186214964276	280.17471287489
1	7174	304844.577340355817	39.888013548065
1	7194	305398.733047883654	216.68038880759
1	7221	306808.789234622973	433.63021890845
1	7226	307075.356807438002	577.66932340668
1	7254	308725.052999916023	1559.3085309127
1	7259	308802.759819568524	646.66505080762
1	7267	308845.195886448032	463.99396560232
1	7276	309251.654965160651	850.43903270342
1	7284	309583.225998988397	1107.1081705775
1	7290	309840.693499927782	877.83034738001
1	7311	310237.244877496764	114.71993712351
1	7333	310647.10421247861	55.538330409258
1	7346	310893.022601375763	27.594692469559
1	7376	312237.249082742371	869.79384673397
1	7397	313191.220086272891	1756.7666188082
1	7409	313623.211019181984	1949.9932115989
1	7417	313751.759594106529	1360.6180315157
1	7422	313798.660763631133	763.86329051038
1	7427	313892.367220298324	681.73296470341
1	7432	314010.500826252153	388.83463776551
1	7440	314135.386967202153	448.90027941767
1	7492	316863.376386374331	819.33932268053
1	7506	317106.470929968259	395.383233342
1	7511	317178.048408713934	347.7798141709
1	7517	317469.216724854988	637.52434298657
1	7522	317613.86741690055	727.37358522463
1	7530	317695.175828182401	790.46021003769
1	7542	318390.199428796996	772.27047995215
1	7573	319649.687810572465	148.47118871276
1	7622	321223.597834719142	4.41168348846
1	7659	323895.656378121123	197.36743301302
1	7668	324387.996150498015	204.45426839688
1	7687	325471.591594726184	252.75428408368
1	7702	326314.077674494217	233.83988201691
1	7711	327135.099560422793	417.7522550927
1	7746	328243.468191956042	66.725888904083
1	7789	330218.743727835133	375.66675525666
1	7795	330835.9697744813	777.41966647342
1	7836	332787.825749138777	549.2778857399
1	7868	333671.492480193743	42.345265653841
1	7885	334189.509429983823	175.40218898879
1	7923	335425.616816732378	0
1	7948	336362.698571542357	0
1	7963	337093.506327885488	573.57947321918
1	7968	337325.855563034684	392.29680250117
1	7980	338023.808761227593	1087.2753758336
1	7985	338245.947220051925	691.72420218
1	7991	338355.423823737598	786.06168683985
1	8006	339227.698615326956	444.70622351831
1	8062	342823.602687395758	2267.407229467
1	8067	342965.156293658722	1640.7550011733
1	8072	342994.901683088187	1404.4691770427
1	8086	343506.622455154251	369.1440448675
1	8112	344270.60815345846	552.2799205569
1	8120	344693.099182912606	461.56141167818
1	8129	345325.123979302002	744.19377938831
1	8141	346038.965296396661	1043.9344045519
1	8162	346276.681681206262	26.422808086624
1	8191	347905.524200143741	689.75411439344
1	8197	348221.176119061282	939.23570553023
1	8214	348715.155093354699	1322.7672852485
1	8220	348954.777020016153	1202.1160730306
1	8225	349072.864732106951	831.73867540894
1	8230	349224.336608639824	960.4882725377
1	8235	349361.174485823194	967.29190739827
1	8268	350115.174966432545	271.91238497295
1	8311	350862.450501737373	0
1	8323	351220.339282156724	190.4708135264
1	8346	352351.813813111725	467.25946597209
1	8351	352493.415794276235	283.93437752902
1	8397	354463.025806945411	370.59580511901
1	8440	357412.81072202653	0
1	8449	358405.433898214779	328.61036359985
1	8458	358832.45236821103	0
1	8493	361427.728039636861	0
1	8505	362081.518165566078	156.5693837031
1	8510	362167.721541777556	190.9115304243
1	8519	362725.73005643312	0
1	8537	364251.689756324447	0
1	8555	365433.829385800443	0
1	8575	366717.759996712966	370.35132763941
1	8589	367152.779292730743	48.264573251144
1	8598	367540.871264149151	0
1	8615	368761.925511130939	0
1	8656	369438.639384926132	0
1	8664	369723.477614986911	0
1	8673	370351.82405539128	68.073689309422
1	8682	371081.984677907297	0
1	8699	371385.909693872641	0
1	8735	372447.870836496967	404.82516999129
1	8744	372756.041158006078	250.1251128932
1	8757	373458.151940743709	504.06424431588
1	8780	374157.461261558448	394.36517146466
1	8785	374205.584939923702	190.44677714979
1	8797	374651.067093375398	388.71398186604
1	8809	375260.966771534066	133.53501407914
1	8818	375803.586234780371	385.98096816177
1	8834	376355.721068545663	281.94609823195
1	8843	376712.313451580895	171.86101558021
1	8852	377314.841445064678	486.65948292532
1	8880	378555.753324801588	27.745228447947
1	8955	383885.627394116011	0
1	8974	386141.331529789885	0
1	9002	388501.800827269396	0
1	9012	390169.625160289934	0
1	9021	391078.162696631696	0
1	9057	394177.945476903408	46.5755744239
1	9066	395096.556203364189	0
1	9075	395793.392848775536	0
1	9086	398102.328653656176	0
1	9122	400660.92907519005	0
1	9130	401051.169875878069	41.184222951947
1	9139	401293.559511445133	134.83983865731
1	9153	401506.374682488075	89.445199894862
1	9168	402126.29045678495	686.9610517777
1	9173	402352.193822002239	893.7415561878
1	9178	402497.603644640774	838.15030532572
1	9193	403123.044344332332	1390.6129185941
1	9202	403882.059897428617	1223.2997891924
1	9210	404057.980361183469	1063.4448441639
1	9247	405212.305312920384	60.695825729194
1	9268	405780.065139628221	526.99619221097
1	9273	406089.290524435333	624.34663520758
1	9294	406777.274600108998	1306.9944522874
1	9303	407266.776750117435	1586.7593490842
1	9308	407624.235042853407	1144.2072003155
1	9313	407744.430160563853	978.77784632086
1	9334	408674.53332589693	1908.4612853297
1	9340	409023.40893537521	2098.7381273006
1	9348	409224.120608831888	1114.0527495049
1	9360	409611.594183138956	1425.1390881669
1	9381	410914.364447101794	1817.3930142104
1	9386	410918.324901441619	712.69017817243
1	9391	410961.528092264032	540.4657461077
1	9406	411283.738548808543	96.350636443778
1	9411	411411.988985174922	173.37673279113
1	9459	413403.581301234068	501.05309176696
1	9467	413891.653983537625	712.07268300944
1	9484	414373.379481339727	166.19943293114
1	9489	414672.231759522537	442.1028740249
1	9532	415768.446743502469	726.68273373199
1	9537	415842.720601307894	699.04257160458
1	9542	415920.233482840526	440.48934729238
1	9561	416542.612948444704	10.708106247687
1	9597	418668.541388625626	912.5078201295
1	9602	418882.161634512647	881.30514224506
1	9616	419231.52943238547	1123.2673013066
1	9622	419493.656517196195	535.79362659896
1	9627	419759.159556796029	763.80616964839
1	9635	419858.394049616167	712.29581405676
1	9644	420181.378216629284	344.40850445209
1	9662	420767.744078675315	413.44206967217
1	9667	420781.138376360286	407.38488116002
1	9684	421206.547251580902	107.04666423728
1	9712	422032.945335779556	440.04517627294
1	9727	422520.430302337911	463.57387615849
1	9733	423182.098742420021	889.17727722227
1	9767	423832.682789973209	354.79279431942
1	9776	424848.425387457575	1051.0354704393
1	9784	424966.192759226597	217.19388076481
1	9819	426641.043662808863	1019.3553706131
1	9825	426853.09257043039	600.65155948942
1	9851	427443.453968632725	71.878052638022
1	9888	428875.574207666187	224.44091124665
1	9894	429096.093044680805	434.5023332652
1	9917	430790.481707451304	595.05431981742
1	9935	431529.062876153681	692.13485081565
1	9940	431704.934167372374	864.2368658897
1	9948	431940.180419199998	642.78323505853
1	9991	434359.461364214531	203.79672132068
1	10008	435042.740281950247	274.20757259275
1	10013	435083.59469361858	308.86189451253
1	10026	435621.881517619744	168.18835274819
1	10044	436422.740836875613	641.47703384927
1	10050	436618.803978935539	778.09767251647
1	10055	436797.974974234833	589.32747707198
1	10078	437408.584424574103	402.82155601018
1	10083	437534.052371402484	477.67518538346
1	10105	438801.644155728246	1728.5651022137
1	10110	438823.656503669313	538.15227883597
1	10121	439417.182167740452	728.73522190317
1	10139	440538.668289893009	327.03366958328
1	10148	441670.290618693471	315.38329610121
1	10188	442577.971666815667	390.61781988821
1	10196	442994.510347239944	657.05491737286
1	10201	443143.291336759883	668.50580655773
1	10216	443983.329466445748	1448.465478014
1	10225	444247.603123310342	303.34302005684
1	10230	444301.469306054942	340.38458419734
1	10235	444454.223582086851	233.05498132452
1	10261	446687.426016450922	814.06854078341
1	10301	449067.60391271906	158.28869696057
1	10313	449812.733235261921	758.1432320294
1	10355	451193.432788300415	712.28747922602
1	10360	451323.143678487978	618.16268379185
1	10365	451413.67298512242	407.18315002214
1	10371	451541.959262263704	413.67929746912
1	10402	452574.863959607149	69.904277444679
1	10417	453293.822682104387	141.36002176912
1	10438	454114.170137673834	390.73887235276
1	10450	454639.640551321854	887.10873670869
1	10455	454973.498615876434	968.39820330984
1	10460	455069.326829887508	434.31649184867
1	10474	455332.086070149634	64.544908042678
1	10491	456208.691830630705	555.79105564924
1	10502	456731.318427889541	661.55260742791
1	10514	457351.444331886931	1007.3066563885
1	10520	457566.977207650781	1128.746544755
1	10525	457670.353492936952	599.64698109636
1	10549	459225.829047263299	457.95804552131
1	10562	459727.032906416319	377.43728555578
1	10585	459892.564523349581	161.08927404805
1	10590	459916.036219953743	161.09961893326
1	10595	460033.354250651519	256.46185421163
1	10642	462115.918588192506	690.90895958799
1	10673	464021.688607376283	1300.667134986
1	10693	465108.556880035555	243.56323721852
1	10716	465668.947211080858	4.387819260142
1	10738	466201.590230672235	61.877176885229
1	10751	466412.195023382348	17.894071723961
1	10759	466481.647399765897	21.596957764663
1	10771	466900.033367689584	64.45972835905
1	10786	467702.78934430615	240.01376187287
1	10791	467768.610712275432	261.3003723081
1	10799	467949.311260821174	264.26136953353
1	10873	470138.748390700717	38.794986787615
1	10887	470719.246724340005	44.710809654157
1	10958	474902.139735253997	1008.2316151191
1	11004	476309.439398736704	39.795489776686
1	11009	476564.202077820511	292.49291142419
1	11026	477390.386590707153	371.71017658801
1	11034	477749.729759763964	89.232145441126
1	11047	478648.03876364879	39.319476482297
1	11095	479745.362994280263	50.448448679906
1	11111	479959.663313528436	61.379116419117
1	11120	480599.635196375804	73.052182909496
1	11168	481936.065911037891	6.033692659108
1	11176	482105.581747180818	71.791069807716
1	11188	482405.576590684752	161.07949874805
1	11202	482668.880940986153	123.83206824802
1	11211	483094.987501220685	546.07494519811
1	11232	484079.522367184862	1380.202405386
1	11241	484696.650546080423	1103.831401982
1	11249	485218.192999748823	1435.6043134937
1	11255	485376.100463946072	1528.9155474665
1	11260	485637.860511136353	1112.4334122981
1	11268	485998.941557337326	823.5165213487
1	11290	486561.196541474299	55.990612258239
1	11313	487433.03483783473	496.15315274516
1	11335	488107.485928694938	7.355068172778
1	11350	488281.372282148304	50.317817515719
1	11358	488379.925071728226	122.22117034299
1	11388	489594.551630276824	430.90396649218
1	11412	489922.141555208372	46.093339946331
1	11527	494136.978921995172	1156.0663707455
1	11533	494438.751996836959	1292.1254220379
1	11539	495017.251842697505	1757.5547790033
1	11547	495124.416778929183	1736.6097861841
1	11552	495515.453195754253	1756.1181185727
1	11561	495887.560723240675	772.30885591342
1	11569	495962.014052528858	69.899882123724
1	11578	496732.577553348816	331.60696156324
1	11589	497171.963227742057	128.65907142748
1	11594	497178.566625623856	111.19379283241
1	11615	497932.728558537249	282.99304078144
[...]
7	16607	714674.689836618108	5
7	16617	714842.36823866993	6
7	16625	715120.296657125285	7
7	16629	715122.351928019657	6
7	16633	715129.555886437902	7
7	16638	715348.822500169643	8
7	16651	715520.191911329906	7
7	16656	715526.552208538663	6
7	16659	715613.849447078172	5
7	16672	716345.643989815094	6
7	16676	716423.838131653135	5
7	16679	716995.287848592012	4
7	16688	717169.211567578105	3
7	16707	717773.629433037456	4
7	16714	718088.479138936881	3
7	16718	718094.479823606746	4
7	16722	718157.263596395227	3
7	16730	718757.062298065358	4
7	16735	718769.582123085355	5
7	16743	718949.608607035768	6
7	16747	718985.55526677821	5
7	16752	719485.636426895673	6
7	16761	719635.716618888071	5
7	16779	720093.95240045446	6
7	16783	720173.572795018821	5
7	16808	720542.835751881801	6
7	16812	720693.038174261607	5
7	16817	720941.143412405753	6
7	16826	720994.614948488733	5
7	16839	721594.270365822543	6
7	16843	721604.911592092695	5
7	16851	721976.922927989159	4
7	16860	722464.092461370404	3
7	16878	723401.22021268727	2
7	16890	724682.086347490563	3
7	16902	725425.241207936909	4
7	16910	725590.904800395484	5
7	16915	725769.801934172213	6
7	16920	725963.397626864646	7
7	16925	726001.299800697208	6
7	16929	726200.528490774605	7
7	16934	726228.325303311706	8
7	16941	726572.814074113796	7
7	16944	726575.781894269329	6
7	16947	726709.945682585097	5
7	16953	727674.465704499917	6
7	16960	727862.678017688787	5
7	16964	728117.79664718028	6
7	16972	728221.640794698144	7
7	16978	728267.58792677275	8
7	16992	728549.437322164714	7
7	17005	728662.949721027032	6
7	17008	728685.653507502154	5
7	17019	728928.12193108578	4
7	17024	729062.462753595416	5
7	17045	729392.55279027697	6
7	17049	729494.912298822635	5
7	17056	729734.910648085021	6
7	17065	729951.412243776095	7
7	17070	729983.876231509436	8
7	17074	730015.407310001508	7
7	17092	730540.708217623411	8
7	17120	731371.611982681296	7
7	17124	731393.955673013479	8
7	17133	731533.114282275417	7
7	17141	731902.600548751755	6
7	17144	731997.546626739268	5
7	17154	732176.516014971787	4
7	17157	732265.960483151949	3
7	17168	732734.642040309246	2
7	17173	733008.309795217785	3
7	17184	733523.091359808872	2
7	17188	733744.968321464135	3
7	17193	733888.96605527686	4
7	17198	734041.041985643888	5
7	17204	734284.418659521697	6
7	17208	734298.798349390902	5
7	17238	734918.332643463922	6
7	17243	734949.279001872315	7
7	17262	735520.831496194617	8
7	17270	735959.527234863188	7
7	17275	736046.41538709117	6
7	17278	736288.286633960755	5
7	17292	736596.984226650118	4
7	17295	736608.116683757637	3
7	17307	737015.422506196353	4
7	17333	738177.497083007184	5
7	17338	738404.719143355307	6
7	17342	738423.187949314581	5
7	17350	738914.641688822799	6
7	17355	739249.229055984633	7
7	17363	739605.430253271186	6
7	17371	740010.8307562982	5
7	17376	740058.15467410998	4
7	17388	740153.874931794053	5
7	17393	740318.519872091044	4
7	17411	741411.130208168365	5
7	17413	741677.234233230144	4
7	17434	742484.636926116575	5
7	17439	742496.703349419368	6
7	17445	743519.508392853582	5
7	17452	743581.949117363125	6
7	17456	743655.90218268248	5
7	17460	744058.346419961249	4
7	17463	744180.057630713735	3
7	17467	744276.457468475557	4
7	17485	744609.145947044352	5
7	17508	745774.610696457931	6
7	17513	745830.504960045435	7
7	17521	746056.231148696903	8
7	17523	746114.956922710823	7
7	17532	746620.041457613846	6
7	17537	746682.168957573206	5
7	17543	746977.520746117425	4
7	17553	747293.460922271402	5
7	17557	747542.759868604773	4
7	17571	747709.702674491883	3
7	17581	748112.73031383092	2
7	17595	749282.772336161909	1
7	17607	749915.179018981798	2
7	17612	749942.863873172457	3
7	17618	750083.154109245825	4
7	17623	750345.34841741982	5
7	17628	750370.561678872805	6
7	17632	750449.441409038811	5
7	17635	750583.841803737908	4
7	17639	750644.463452421484	5
7	17644	750701.465437646573	6
7	17650	750820.425802942691	7
7	17657	750897.566852577723	6
7	17666	751190.682496422535	7
7	17670	751196.415786192037	6
7	17684	751656.1485563635	5
7	17692	751829.735844329027	4
7	17695	751992.994680372971	3
7	17698	752135.620281162986	2
7	17714	752562.90266286927	3
7	17720	753160.200594324111	4
7	17744	754251.685208655268	5
7	17748	754342.865341927645	4
7	17765	755443.018415876291	5
7	17770	755498.419640181048	6
7	17774	755677.252330532618	5
7	17791	755909.452112487124	6
7	17795	755923.664582674958	5
7	17799	756036.206358567389	4
7	17802	756066.635052157144	3
7	17819	756548.089119459957	4
7	17835	756977.232963052831	3
7	17839	757196.161655347805	4
7	17843	757275.07407397647	3
7	17846	757323.270863575565	2
7	17851	757542.873905782571	3
7	17861	758213.046095048814	2
7	17865	758430.377240029053	1
7	17874	758641.883188993367	2
7	17882	758791.805920562581	3
7	17886	758896.694727860106	2
7	17890	758904.838671816686	3
7	17903	759377.407720459128	2
7	17907	759433.105541532301	3
7	17917	759889.184368362059	2
7	17931	761276.36652760198	3
7	17944	761646.692919359714	4
7	17959	762637.91890175268	3
7	17963	762752.979640048605	2
7	17971	762831.564442473412	1
7	17974	762847.710764393591	0
7	17999	763320.001262385349	1
7	18005	763566.835876603575	2
7	18020	763738.256387374723	1
7	18024	764142.751832331067	2
7	18030	764259.757973500026	3
7	18034	764302.739378233243	2
7	18050	764635.025119060237	1
7	18057	764945.826352682081	2
7	18063	765302.037530007924	3
7	18070	765486.487382689903	2
7	18080	765818.989511510929	3
7	18101	766344.728272206574	4
7	18106	766399.628912435577	5
7	18110	766434.138674821245	4
7	18114	766517.430286569607	3
7	18122	766683.873428549874	2
7	18152	769646.601947341972	1
7	18156	770093.989277974908	2
7	18170	770892.675756850703	3
7	18179	771245.708199639952	4
7	18181	771423.529095974818	3
7	18190	772229.445150623611	2
7	18206	773276.201248732763	3
7	18217	773548.419466065451	4
7	18222	773929.453996535902	5
7	18237	774387.36650644674	6
7	18242	774488.431061879732	7
7	18254	774788.577514515778	8
7	18259	774830.927083328775	9
7	18263	774859.612424332191	8
7	18266	774911.977088161475	7
7	18269	775393.911141483958	6
7	18272	775432.054416183211	5
7	18275	775491.005287114158	4
7	18279	775790.153257697473	3
7	18284	776263.04264314618	4
7	18296	776995.625226873861	3
7	18304	777466.506042627106	4
7	18310	777837.041670036015	5
7	18320	778548.458700679729	4
7	18347	779155.587836590083	3
7	18350	779201.151074085498	2
7	18358	779504.296606968103	3
7	18363	779956.167528796278	4
7	18369	780238.360750992788	5
7	18374	780287.10215798637	6
7	18403	781774.734665180279	5
7	18408	781831.489255111172	4
7	18411	781898.63854799439	3
7	18424	782143.50276976091	2
7	18431	782676.830522736158	1
7	18444	783202.630104751729	2
7	18449	783286.320213205259	3
7	18472	785314.2453573491	2
7	18476	785350.155132327953	3
7	18481	785363.910810294964	4
7	18498	786290.211569728649	5
7	18506	787008.161375053043	4
7	18510	787102.609578679488	5
7	18518	787199.756392838305	6
7	18524	787567.772991388486	7
7	18531	787929.389057750693	6
7	18540	788439.045977763114	5
7	18549	789372.291911253206	4
7	18554	789434.875071565586	3
7	18572	790161.502838403646	4
7	18582	791450.355040912585	5
7	18584	791837.821735488647	4
7	18599	792218.264982306716	5
7	18609	792470.243644552945	4
7	18613	792490.005315416571	5
7	18617	792506.042490247004	4
7	18621	792722.505859641078	5
7	18639	793156.781187547938	4
7	18643	793362.571990231803	5
7	18657	794408.833609895726	4
7	18660	794709.181031039082	3
7	18664	794722.758084274366	4
7	18676	794906.556401117798	3
7	18693	796808.951838051058	4
7	18695	796878.024005118155	3
7	18710	797588.862275785255	4
7	18722	798128.024558987734	5
7	18730	798691.689770677395	6
7	18739	798898.751510048245	7
7	18744	799052.235967662974	8
7	18746	799111.454269457808	7
7	18761	799567.28439985003	8
7	18768	799786.953368076412	7
7	18771	799858.441431530078	6
7	18775	799905.535562519762	7
7	18788	800576.844081308372	6
7	18797	801226.869398348286	5
7	18819	802555.003300393326	6
7	18823	802587.472276540962	5
7	18827	802899.786868966087	6
7	18831	802964.875911633413	5
7	18838	803190.056664036823	6
7	18843	803210.204922748642	7
7	18862	803756.458848598173	8
7	18864	803771.053175088329	7
7	18885	804361.555896108555	8
7	18892	804472.824219111422	7
7	18898	804702.289604928893	6
7	18903	804755.830835493661	7
7	18908	804896.837017378499	8
7	18912	805013.483972520817	7
7	18917	805530.835454414319	8
7	18922	805854.934353363476	9
7	18932	805930.699207357847	8
7	18938	806042.968888813108	7
7	18947	806150.885292378628	8
7	18952	806202.117988960992	9
7	18964	807207.124005168878	8
7	18971	807265.470786891734	9
7	18975	807268.802500473943	8
7	18979	807453.367390735933	9
7	18983	807505.980524281485	8
7	18987	807541.931042085905	9
7	18994	807725.29450538592	8
7	18998	807767.411190237105	7
7	19002	807835.228094298636	8
7	19006	807851.525480581874	7
7	19009	808294.587072374037	6
7	19013	808363.481022147035	7
7	19027	808520.157686770973	8
7	19031	808535.007909701039	7
7	19044	809061.651288445163	6
7	19047	809062.276213572619	5
7	19066	809393.78192063563	4
7	19078	809811.537772889499	5
7	19099	811014.626399381919	4
7	19102	811045.486517478161	3
7	19114	811532.355244421019	2
7	19126	811843.790259268951	3
7	19131	812008.612912247199	4
7	19156	812579.828575637273	5
7	19161	812725.148138336391	6
7	19165	812833.557883085537	5
7	19169	813027.11739357428	4
7	19172	813082.384674108215	3
7	19176	813156.070529232955	4
7	19195	814443.253623422451	5
7	19199	814449.832786232126	4
7	19203	814564.304038659243	3
7	19212	815281.502958935012	2
7	19225	815597.723419134999	1
7	19263	816751.721054078627	2
7	19271	817145.893545418812	3
7	19280	817717.168180106204	4
7	19289	818276.938956130077	5
7	19297	818685.132744223222	6
7	19301	818851.845318616776	5
7	19309	819287.744071463756	6
7	19314	819296.338870125419	7
7	19319	819489.824984386908	8
7	19323	819518.063491131883	7
7	19327	819556.415634886942	8
7	19337	820028.95257743344	7
7	19340	820209.026156148989	6
7	19356	821077.034064893417	7
7	19360	821117.415506234717	6
7	19368	821260.932912482382	7
7	19373	821264.902319308753	8
7	19377	821502.843477167733	7
7	19390	821832.349309376887	6
7	19393	821844.154333840844	5
7	19405	822163.652178003685	4
7	19414	822593.05689270366	5
7	19428	823147.407052870771	6
7	19432	823467.434252194735	5
7	19436	823609.861229357438	4
7	19450	824341.218088949636	3
7	19468	825428.380350442323	4
7	19482	825871.587620367539	5
7	19494	826166.808774592838	4
7	19508	826600.781151309117	3
7	19515	826769.933275403859	4
7	19520	826826.45361457905	5
7	19524	827180.988849806952	4
7	19537	827669.211284317929	5
7	19545	828407.659721835086	4
7	19560	828981.719097041506	5
7	19563	830126.103719639299	4
7	19579	831591.808785220834	3
7	19592	832357.05339305428	4
7	19601	832679.620911111392	5
7	19605	832721.050111812485	4
7	19609	832925.578784937392	5
7	19614	833059.00091429628	6
7	19623	833347.755982516066	7
7	19627	833559.26335102222	6
7	19633	833900.277472100223	5
7	19637	833982.229156774805	6
7	19642	834015.054151673024	5
7	19646	834458.73100973353	6
7	19665	835168.026100498616	7
7	19674	835214.519550899459	6
7	19697	835613.606760203599	7
7	19704	835846.225541618239	6
7	19708	835884.32997911301	7
7	19715	836134.767974390735	6
7	19730	836358.070554543574	7
7	19732	836547.845954350526	6
7	19737	836643.847608022385	5
7	19750	837050.079711314232	6
7	19754	837059.978387008485	5
7	19771	837550.805211690588	6
7	19773	837682.528264678962	5
7	19779	837771.552261290254	4
7	19794	838183.760767577737	5
7	19806	838638.675697608891	6
7	19810	838749.198956560561	5
7	19814	839091.379088956446	6
7	19819	839112.849342158307	7
7	19833	839813.071522194128	6
7	19845	840133.984570562138	5
7	19849	840165.091731757295	6
7	19854	840219.120167275671	7
7	19858	840310.62644872583	6
7	19861	840350.763602795163	5
7	19864	840520.761486634604	4
7	19867	840585.754537704484	3
7	19871	840709.690471719737	4
7	19877	840941.317625454349	5
7	19886	841499.869869367405	4
7	19898	841685.179633086617	3
7	19914	842433.753055282346	4
7	19919	842615.868468675588	5
7	19924	842673.12132711379	6
7	19934	843005.719025218351	5
7	19956	844450.850298982757	4
7	19963	844652.178414347346	3
7	19971	845311.105976219194	4
7	19976	845967.440076125978	5
7	19982	846036.000481540055	6
7	19991	846258.608635791671	5
7	20019	847704.44996974802	4
7	20023	847742.711806251063	5
7	20039	848218.69263812453	6
7	20048	848529.376420272378	7
7	20052	848559.320967438097	6
7	20058	848742.701413983821	5
7	20062	848970.353193768362	6
7	20068	849076.223284445492	7
7	20091	849670.217911750091	8
7	20093	849738.945531322198	7
7	20108	850336.377371435332	8
7	20116	850403.493575591653	9
7	20119	850707.071102631478	8
7	20124	850983.115910294397	7
7	20127	850989.510411018866	6
7	20136	851314.929475914568	5
7	20159	852014.364339717484	6
7	20161	852139.938049891106	5
7	20166	852164.042976790016	4
7	20185	853645.547103689355	5
7	20195	853938.611219703857	4
7	20200	854280.325797408284	5
7	20205	854430.343512068047	6
7	20218	854851.929232505614	7
7	20221	855458.908507823941	6
7	20229	855519.672154539528	5
7	20234	855728.868350258252	4
7	20250	856427.061324550846	5
7	20259	856543.692750389804	6
7	20264	856548.472361287156	7
7	20268	856658.287744948818	6
7	20285	856750.071786468984	7
7	20292	857033.363245110966	6
7	20295	857117.793135980582	5
7	20299	857509.959974986982	4
7	20303	857639.65005613658	5
7	20327	858330.070283350441	6
7	20329	858726.370943177226	5
7	20335	858860.627424643489	4
7	20341	859419.131611865638	3
7	20351	860039.664085963353	4
7	20362	860734.321913340632	3
7	20375	861492.84761386499	4
7	20379	861495.487978372684	3
7	20383	861595.809956272332	4
7	20387	861615.471390454041	3
7	20392	861801.311088523568	4
7	20396	861972.994288839869	3
7	20438	864764.923999893239	4
7	20442	865120.031557758083	3
7	20450	865979.38677703548	4
7	20455	866054.498126274357	5
7	20462	866138.634828856658	4
7	20467	866658.422720543444	5
7	20472	866796.580962559622	6
7	20489	867035.070889685313	7
7	20494	867043.033082997079	8
7	20501	867595.274709544907	7
7	20510	867895.001223117162	6
7	20513	868102.276988257076	5
7	20522	868131.396107581325	6
7	20536	868780.034248439589	7
7	20549	868937.647974905532	8
7	20552	869545.652961097751	7
7	20557	869712.69501127906	6
7	20570	870697.02653810357	5
7	20582	870936.106599969185	4
7	20586	871004.981496308494	5
7	20593	871352.385724565608	4
7	20598	871656.836900146844	5
7	20602	871932.561942503659	4
7	20607	872269.516298279392	5
7	20612	872323.994562442154	6
7	20616	872389.403934186009	5
7	20623	872561.538355930615	6
7	20631	872652.103677313505	7
7	20636	872699.224619985161	8
7	20646	873246.735198150632	7
7	20658	874004.243900101677	6
7	20661	874032.535121430943	5
7	20664	874164.899633805864	4
7	20667	874190.59609080498	3
7	20670	874499.863398787141	2
7	20679	874754.957166814316	1
7	20682	874781.823098503951	0
7	20686	875236.837892407067	1
7	20697	876089.493308006321	0
7	20709	876624.81218925227	1
7	20737	877298.797957722261	0
7	20746	877342.902976299098	1
7	20788	879891.745017785412	2
7	20790	880296.897504662502	1
7	20805	880926.123729564473	0
7	20818	881976.975834854064	1
7	20824	882270.649848908868	2
7	20829	882391.023320278195	3
7	20834	882732.260206025881	4
7	20851	882980.500999851945	5
7	20856	883248.191597494979	6
7	20858	883333.711095721147	5
7	20867	883554.946717152975	4
7	20872	883624.153346727829	3
7	20893	884753.870715942814	4
7	20897	884775.894453984354	3
7	20901	884899.765267471235	4
7	20920	887031.910754371313	5
7	20924	887050.479053480312	4
7	20928	887149.437687755054	5
7	20951	887545.613891433663	6
7	20958	887690.709668755709	5
7	20962	887781.326008926123	6
7	20966	887792.535101994431	5
7	20970	887848.084867823387	6
7	20975	887966.488167824551	7
7	20980	888000.744883162961	6
7	20984	888007.502966231938	7
7	20988	888214.469573035001	6
7	21000	888534.301619424855	7
7	21009	888548.702431887815	6
7	21017	888665.501623209754	5
7	21041	889772.436133369121	6
7	21043	890030.219072790497	5
7	21048	890117.23285774475	4
7	21060	890525.340727782754	3
7	21065	890638.354075026432	2
7	21084	892438.419059768994	3
7	21094	894452.274120000223	2
7	21097	894683.288276247309	1
7	21102	894941.253467982908	2
7	21115	895404.585660504082	3
7	21123	895558.308293781359	2
7	21143	896360.052564355628	1
7	21147	896853.611665193014	2
7	21153	897289.272550786815	3
7	21157	897559.067931868035	2
7	21161	897640.317930984595	3
7	21166	897964.137758963979	2
7	21178	898436.951293783435	3
7	21188	899201.149305146077	2
7	21205	899642.339063413708	1
7	21209	899664.942871925364	2
7	21222	899993.53928530262	3
7	21225	900501.453737958687	2
7	21246	903120.11216783668	3
7	21250	903397.134379437213	2
7	21254	903707.833334534727	3
7	21262	904004.857168099902	2
7	21270	904461.848299034006	1
7	21285	904736.231059585448	2
7	21287	904826.409260964817	1
7	21302	905323.831519961602	2
7	21310	905442.512552913432	3
7	21312	905529.778705892174	2
7	21324	906331.859245973791	1
7	21333	906622.639985022898	2
7	21338	906685.225890962444	3
7	21342	906707.826428697705	2
7	21362	908614.395226490051	3
7	21365	909050.481676430639	2
7	21373	909351.07270874897	1
7	21390	909923.485729009487	0
7	21397	910258.891294978088	1
7	21409	910918.289421288546	2
7	21414	910930.561511765777	3
7	21419	910967.588620370915	4
7	21424	911136.699842705	5
7	21440	911337.002865481263	4
7	21444	911908.971868135082	5
7	21453	912285.072702726523	6
7	21457	912398.766491129817	5
7	21461	912639.311261659394	6
7	21466	912817.377045639722	5
7	21483	913626.33590666185	4
7	21498	914399.929377943364	5
7	21500	914571.894494633144	4
7	21506	915207.287156781569	3
7	21525	917123.90156352352	4
7	21528	917536.614650748918	3
7	21537	918099.406954521017	2
7	21545	918130.27876549505	1
7	21559	918652.735389269925	2
7	21562	919219.007666511789	1
7	21580	919857.13848918299	2
7	21591	920033.414413424636	3
7	21601	921012.168639072123	4
7	21605	921083.701258808752	3
7	21609	921283.086172373335	4
7	21613	921303.760359311462	3
7	21617	921403.552156431482	4
7	21634	921711.790576194431	3
7	21642	921756.719217777254	4
7	21646	921757.524180513418	3
7	21653	921978.412856600539	4
7	21658	922015.282682369473	5
7	21662	922140.295193822275	4
7	21680	923026.85246431832	5
7	21694	923561.760151152595	6
7	21703	924124.906306677859	7
7	21705	924612.157473358178	6
7	21710	924637.796236676645	5
7	21719	924767.219829653866	4
7	21731	925593.169696027897	3
7	21750	927525.033296463989	4
7	21756	927851.406638554338	5
7	21764	928002.825587036457	6
7	21766	928250.102920494671	5
7	21774	928480.719413863528	4
7	21783	928937.535412815234	3
7	21788	928976.26800871424	2
7	21810	930398.429118777331	3
7	21814	930479.210606239161	2
7	21821	930574.230667930476	3
7	21827	930772.581532983025	4
7	21831	930839.199791028496	3
7	21842	931427.877208563752	2
7	21851	931899.363731817062	1
7	21866	932568.079836364947	2
7	21874	933189.997588199827	1
7	21878	933217.329041820173	2
7	21893	934604.395055802144	3
7	21902	935653.010793729391	4
7	21909	935736.962552179456	3
7	21913	935778.839138105596	4
7	21921	936509.416535224087	3
7	21941	936870.850771566644	2
7	21945	936874.138873427012	3
7	21950	937001.244859198509	4
7	21954	937012.026267610157	3
7	21958	937013.325750476568	4
7	21962	937024.097768902018	3
7	21977	938006.216420526844	2
7	21994	939198.946753270129	3
7	21999	939213.87480801553	4
7	22010	939683.033201486778	5
7	22016	939931.437811138531	6
7	22023	940085.160489662505	5
7	22028	940796.936646108843	6
7	22034	941486.415660025589	7
7	22041	941828.096965801291	6
7	22045	941890.341752836053	7
7	22051	942065.098672185946	8
7	22055	942066.22255214999	7
7	22058	942142.037099762906	6
7	22080	942802.834163083158	5
7	22086	942931.47404257493	4
7	22094	943402.980366494948	3
7	22098	943550.077193342791	2
7	22106	944601.324015892153	3
7	22111	944683.601857045519	4
7	22116	944868.590185714143	5
7	22142	945990.900765620902	6
7	22149	946153.063412732543	5
7	22152	946196.861239413586	4
7	22159	946234.776788278823	5
7	22163	946278.147429401	4
7	22167	946298.588321863202	5
7	22179	947401.512153795808	4
7	22183	947420.156213753762	5
7	22188	947577.294551799	6
7	22193	947831.523867595089	7
7	22199	948295.065194353137	8
7	22203	948670.123039888975	7
7	22217	948844.047431122113	6
7	22230	949385.425668939343	5
