version 2
run QueueMeasurement-58-20170109-14:12:23-5881
attr configname QueueMeasurement
attr datetime 20170109-14:12:23
attr experiment QueueMeasurement
attr inifile queueStudy.ini
attr iterationvars ""
attr iterationvars2 $repetition=58
attr measurement ""
attr network controltower.SimNetwork
attr processid 5881
attr repetition 58
attr replication #58
attr resultdir results
attr runnumber 58
attr seedset 58
param SimNetwork.a.parkingLot.parkingDelay exponential(45min)
param SimNetwork.a.runway.landingTime exponential(5min)
param SimNetwork.a.runway.takeoffTime exponential(5min)
param SimNetwork.a.runway.throughputCheckInterval 12.5min
param SimNetwork.wg.interArrivalTime exponential(12.5min)

statistic SimNetwork.wg 	responseTime:stats
field count 1095
field mean 5800.9098330025
field stddev 3314.2456423513
field sum 6351996.2671378
field sqrsum 48864098855.797
field min 655.9203178232
field max 24497.172801115
attr source  responseTimeSignal
scalar SimNetwork.a.landingQueue 	queueLength:timeavg 	0.45467882059573
attr source  queueLengthSignal
statistic SimNetwork.a.landingQueue 	queueLength:stats
field count 2226
field mean 0.96900269541779
field stddev 1.0313863662068
field sum 2157
field sqrsum 4457
field min 0
field max 7
attr source  queueLengthSignal
statistic SimNetwork.a.landingQueue 	queueTime:stats
field count 1112
field mean 361.82281753212
field stddev 442.47517884028
field sum 402346.97309571
field sqrsum 363094654.83251
field min 0
field max 2824.3751639262
attr source  queueTimeSignal
scalar SimNetwork.a.takeoffQueue 	queueLength:timeavg 	1.7895215029954
attr source  queueLengthSignal
statistic SimNetwork.a.takeoffQueue 	queueLength:stats
field count 2207
field mean 2.5174444947893
field stddev 3.065104861034
field sum 5556
field sqrsum 34712
field min 0
field max 18
attr source  queueLengthSignal
statistic SimNetwork.a.takeoffQueue 	queueTime:stats
field count 1096
field mean 1398.295451157
field stddev 1789.4436804718
field sum 1532531.8144681
field sqrsum 5649241275.635
field min 0
field max 8595.3159253323
attr source  queueTimeSignal
scalar SimNetwork.a.parkingLot 	parkingOccupancy:timeavg 	3.3185663491706
attr source  parkingOccupancy
statistic SimNetwork.a.parkingLot 	parkingOccupancy:stats
field count 2223
field mean 3.8241115609537
field stddev 1.8853535172318
field sum 8501
field sqrsum 40407
field min 0
field max 10
attr source  parkingOccupancy
