version 2
run QueueMeasurement-146-20170109-14:13:16-5969
attr configname QueueMeasurement
attr datetime 20170109-14:13:16
attr experiment QueueMeasurement
attr inifile queueStudy.ini
attr iterationvars ""
attr iterationvars2 $repetition=146
attr measurement ""
attr network controltower.SimNetwork
attr processid 5969
attr repetition 146
attr replication #146
attr resultdir results
attr runnumber 146
attr seedset 146
param SimNetwork.a.parkingLot.parkingDelay exponential(45min)
param SimNetwork.a.runway.landingTime exponential(5min)
param SimNetwork.a.runway.takeoffTime exponential(5min)
param SimNetwork.a.runway.throughputCheckInterval 12.5min
param SimNetwork.wg.interArrivalTime exponential(12.5min)

vector 5  SimNetwork.a.runway  landedThroughput:vector  ETV
attr source  landedThroughputSignal
vector 6  SimNetwork.a.runway  tookoffThroughput:vector  ETV
attr source  tookoffThroughputSignal
vector 2  SimNetwork.a.landingQueue  queueLength:vector  ETV
attr source  queueLengthSignal
vector 1  SimNetwork.a.landingQueue  queueTime:vector  ETV
attr source  queueTimeSignal
vector 7  SimNetwork.a.parkingLot  parkingOccupancy:vector  ETV
attr source  parkingOccupancy
vector 4  SimNetwork.a.takeoffQueue  queueLength:vector  ETV
attr source  queueLengthSignal
vector 3  SimNetwork.a.takeoffQueue  queueTime:vector  ETV
attr source  queueTimeSignal
vector 0  SimNetwork.wg  responseTime:vector  ETV
attr source  responseTimeSignal
0	1216	65151.49565375691	9149.2189997477
0	1225	65733.040867400935	14046.39622331
0	1233	65981.588159090145	2609.5155099634
0	1242	66487.004675900693	4128.0379259637
0	1309	68937.220413105172	5390.817079994
0	1334	70050.979715808407	6173.2735644612
0	1344	70215.571419943564	3126.2646936522
0	1352	70272.129815858086	6431.1575411586
0	1358	70661.318313777022	3287.1120125012
0	1363	70700.880572730457	3925.0630917476
0	1371	71026.002624004672	4658.3571944303
0	1379	71099.339040858666	4251.4099495899
0	1390	71995.478600636497	4260.8386520475
0	1410	73630.169423831456	4424.9620330326
0	1494	77641.672096063922	11151.007140432
0	1505	77907.25685021719	6867.8808205091
0	1521	78950.434879836403	4019.441902033
0	1643	82604.850369019095	8479.7699490402
0	1673	83997.735305646625	10729.602544139
0	1737	86126.839848171903	8002.1005574059
0	1749	86842.235323240505	13591.649888241
0	1766	87521.5347540716	11571.296170293
0	1771	87749.461804268875	8716.1167101341
0	1777	88128.82099882119	11913.628444739
0	1785	88399.18748131069	10139.67199209
0	1809	89401.627731818585	8928.4913672937
0	1814	89420.998105902568	15226.112002434
0	1822	89635.550306655649	14911.863341819
0	1833	90184.03080571128	9561.0143481661
0	1838	90665.885099969377	9045.5472286919
0	1843	90729.892264130163	11115.933575715
0	1852	90819.492821500308	17545.657408419
0	1865	91109.548316651654	9486.5502761569
0	1904	92792.279245780876	18910.453191822
0	1912	92818.909123275708	12030.980499945
0	1964	93737.473584301233	8964.4565496331
0	1970	93915.436709301125	10712.848324766
0	1981	94421.228697716357	11545.986115016
0	1996	94689.437339171928	15248.708965638
0	2021	95978.491546771748	12345.728100204
0	2027	96172.725676435842	10578.557667781
0	2035	96278.039091039656	12445.617537372
0	2055	96975.982932926576	11845.226447767
0	2060	97222.786810390031	6478.1996367238
0	2069	97793.021198501764	6187.4769435272
0	2082	98163.820349340769	8536.49012181
0	2088	98252.478808811297	6654.7545368705
0	2102	98726.491101152135	5878.8871803259
0	2138	99912.842557306966	20721.160021646
0	2143	100160.832308540784	7081.2091867117
0	2157	100309.066443571009	9207.1019960406
0	2179	100988.984933398559	12678.257095076
0	2259	105151.004261316205	13955.979041468
0	2264	105429.308173647656	12565.117945991
0	2279	106043.762640100907	10982.36248359
0	2301	106585.559225314799	13774.903787215
0	2306	106743.704591930535	12106.925056777
0	2311	107162.298346205666	20706.561013164
0	2317	107288.799737433547	10003.492950896
0	2325	107567.46430410708	11355.672639606
0	2330	107761.288525259529	9040.3801985657
0	2335	107779.961484787744	14677.065800359
0	2340	107813.918525915101	8334.3944356609
0	2345	107880.786413643725	9598.7303941142
0	2350	107942.868432419462	9229.8243152445
0	2359	108215.55723014168	8032.3007165101
0	2438	111014.816344283117	9855.7313553098
0	2446	111368.962384523707	10540.583956262
0	2483	112679.14425024914	11650.756986381
0	2497	114878.81049254761	13389.962123729
0	2502	114880.81777683017	14705.344058222
0	2517	115830.540516944535	14534.820891758
0	2528	116324.111387929055	10622.389249383
0	2533	116497.266780440589	14843.871274428
0	2544	116607.341182766648	10491.053598833
0	2612	119000.584532973312	10980.502129768
0	2637	119696.058760630161	11210.13695991
0	2650	119859.061439507253	11246.971817348
0	2655	119874.098064896404	11073.769881383
0	2661	120006.132455887147	9565.8462043459
0	2666	120102.612413590189	10078.49239091
0	2674	120153.573504016996	8978.8935051795
0	2686	120869.866808384866	9340.7858126012
0	2727	121649.664050244559	5152.3788775123
0	2772	122746.741101410626	14491.970831407
0	2777	122774.47757981596	6271.630388894
0	2783	123210.012579562619	6145.9601963356
0	2791	123573.833809358019	6488.5972776177
0	2799	123737.442238735104	8454.033353976
0	2810	124196.250661354923	6879.6749732142
0	2816	124619.297861614196	6548.7382087131
0	2841	126206.14811411231	8006.176323238
0	2943	130653.933236264847	10250.106179822
0	2948	130655.822766087813	9638.9931720803
0	2956	130760.406275804634	18957.328684451
0	2970	131397.839475074854	22501.666425371
0	2982	132259.693181977715	10622.349767801
0	3003	132977.449843770104	13437.474321451
0	3030	133517.576851778212	12321.034342139
0	3044	134170.114901177825	17475.807790761
0	3068	134605.474975193639	12723.001734721
0	3073	134663.879959643674	13964.807800787
0	3078	134815.29826988825	13291.157530317
0	3086	134956.599636567498	11327.751838344
0	3091	134999.392815277763	9470.698864762
0	3100	135184.728830089461	10366.245248425
0	3145	136991.72573911033	8420.9729668057
0	3150	137200.791673764101	9718.9422101525
0	3155	137247.042505956939	8500.9578140807
0	3161	137300.924137801315	7488.5836685155
0	3166	137354.600640695044	11287.351760094
0	3171	137454.929338877387	7217.1979615025
0	3185	137972.086522783654	8304.2951558202
0	3196	138078.037812083317	7390.7438465735
0	3207	138740.472967461363	6333.3146281145
0	3249	140450.513809722408	6313.4557733912
0	3254	140687.844241540925	13876.993231396
0	3262	140766.742431764602	14269.05577885
0	3274	141385.733744102595	8272.901412533
0	3279	141431.561735024305	9082.1373335158
0	3284	141450.592173741742	7764.159080902
0	3289	141464.562049199412	5891.0151570365
0	3294	141518.290308126755	5624.2252010308
0	3299	141572.243087516654	7259.7940180841
0	3331	142513.212120531707	2752.7188953969
0	3380	144285.328854278932	8496.7250294275
0	3399	145469.388918539802	6164.4024235307
0	3408	145860.006269261732	8142.1937401562
0	3414	146427.199261715179	4375.0624999252
0	3425	146688.636879026319	8325.4014329488
0	3447	147130.647305005631	8700.9105517317
0	3460	147427.556200372282	5346.6994313742
0	3482	148558.253634373559	9431.4726834858
0	3500	149005.716706957074	13919.043652237
0	3508	149130.854693031252	2577.8515301422
0	3525	149674.339127973034	5592.325530313
0	3555	151273.735579911883	8847.5043969383
0	3591	152574.034608192433	9633.0947058907
0	3616	153421.383400428722	6961.845501471
0	3624	153432.761082798192	5050.4252587434
0	3629	153558.497866691812	9591.3104580413
0	3637	153589.588159847897	5997.6901673736
0	3642	153692.471524934673	10130.376929063
0	3648	153767.966170777144	4498.8596412173
0	3653	153875.06140489355	3435.8543285243
0	3661	154047.373344337619	3763.2324027115
0	3666	154106.199330153397	1565.8385758618
0	3675	154552.347685534764	3388.4787523739
0	3692	155454.916908150757	4549.5057272107
0	3705	155903.173808462105	6883.9471598553
0	3727	157323.562336338343	10256.504343896
0	3765	158426.526878558954	5768.7044633618
0	3773	158645.88068456313	1745.2351896618
0	3785	159305.064947005947	2159.0924505452
0	3791	160318.512425788104	6083.7948192686
0	3796	160346.133948414675	4894.5762132801
0	3817	161804.095685071048	3485.423111306
0	3883	164398.745442240597	2210.3869678461
0	3909	166092.850633987544	10184.022355638
0	3924	167188.259947386554	4781.7404510715
0	3938	167402.308936112278	3119.3432242698
0	3974	168741.306449740188	6029.831119038
0	3980	168960.306729202293	12302.509378759
0	3985	169460.644895990928	8207.4605125157
0	3997	169831.9203335328	5455.4808234897
0	4009	170743.568361183663	8741.5173538306
0	4158	175740.001576619738	15268.444636063
0	4163	175861.874755213762	8445.8008797382
0	4171	176220.556054293236	9510.1625246033
0	4177	176253.379129315423	13096.456023187
0	4185	176750.759378064874	8753.3657312563
0	4202	177272.235431461203	7125.4674992041
0	4232	178018.065588010367	10676.972439946
0	4249	178594.068578479743	6495.127537397
0	4259	179044.418636659526	8299.4855701027
0	4278	180139.171796430516	8728.568458795
0	4291	180737.391378327905	9260.0637385209
0	4305	181096.649365440897	8269.3791829115
0	4310	181130.698249565927	10230.829710317
0	4315	181189.170219368321	7992.3336766391
0	4320	181445.412226828409	10448.529960639
0	4326	181616.715531386137	7335.8369167264
0	4332	182284.633766984073	11632.365774424
0	4340	182465.721549018986	7666.1389533227
0	4350	182593.681706986206	8517.9339749189
0	4355	182685.760812902786	5938.739407483
0	4363	182920.696670214083	5691.1508649748
0	4369	183016.058347021141	5628.6610398717
0	4374	183366.518554333751	6143.2242430449
0	4379	183384.072057248774	5588.621311666
0	4388	183871.855605377246	3574.4911044293
0	4413	184544.933955751037	5966.1422514587
0	4425	185513.448446226105	3194.237736502
0	4462	188637.752419243219	4440.4218775496
0	4559	192388.941189233958	7005.2036865371
0	4613	194620.038686010438	10705.169442308
0	4638	195582.448484221891	8060.0848571584
0	4647	195873.782793192899	7449.2143594478
0	4652	196073.01795627017	9971.183490631
0	4660	196231.515519280047	8000.3948908826
0	4672	196901.946872501738	5935.4063812128
0	4682	197179.899751438881	8270.8348143378
0	4690	197226.253937278352	7365.8519749761
0	4711	198113.710852749921	6463.7131922735
0	4738	199065.041839057705	6412.5045313606
0	4743	199193.257555616918	19128.277232069
0	4752	199552.978236217305	4951.6036205183
0	4770	200378.36843270858	6160.4604411518
0	4840	203007.472422737037	9971.2803507435
0	4848	203239.279348862	14075.539542051
0	4862	203447.611254540071	8757.4897909991
0	4867	203511.134368617012	5359.1183438973
0	4876	204258.416309055109	11440.240815729
0	4898	204702.964170029092	8437.4120781445
0	4924	205700.952975509468	8496.3806726091
0	4929	206066.462754440532	14845.323816643
0	4941	206706.219734453859	16891.546185147
0	4952	207340.000617722071	6591.1204989888
0	4957	207424.633602812297	7739.0470926989
0	4969	207868.55386103179	10221.693428349
0	4979	208200.896670962211	6796.0296497049
0	4985	208621.104935602289	5387.287722808
0	4990	208624.016834786536	6821.5135488561
0	5001	209007.612843009996	10810.380846145
0	5023	209340.712269820099	9775.8789934893
0	5037	209711.090877687191	5743.1214041549
0	5057	210728.598043275636	6075.2264966182
0	5073	211206.885745262384	6184.9476536169
0	5088	212085.251461736427	10615.876718978
0	5103	213017.438656595611	6379.0659905889
0	5119	213607.227638928921	4781.1224078923
0	5128	213802.694650029873	4789.7311799399
0	5138	213859.287483971664	13770.519531251
0	5143	213992.6607332784	4459.4803264035
0	5148	214189.126183825923	3808.1812260599
0	5202	216344.149502188439	4552.8816018004
0	5216	216637.51337682712	3944.6537090487
0	5232	217190.531191698833	1365.9573963862
0	5258	218236.712958370451	1862.4134329841
0	5295	219727.415145879216	3861.0923142913
0	5301	219755.513089402233	9639.3617066702
0	5306	219767.722189682496	4614.1776097801
0	5311	219791.337383218599	12027.215065932
0	5326	220929.005517189688	7235.6024516279
0	5331	220947.499876157175	5299.8487543532
0	5336	220977.215518402756	5888.9481832493
0	5341	221234.877808631373	4001.1182330704
0	5350	221481.528778418848	3446.7470580524
0	5400	224204.47345133226	1298.2730354085
0	5448	225972.337243451826	8053.1804466743
0	5453	226067.704066827839	9432.5861271334
0	5458	226144.866092902631	3210.4908895757
0	5463	226184.179106790919	2623.7455113826
0	5468	226190.740710564303	2011.7583798501
0	5486	227770.16265580759	3463.2400845768
0	5503	228015.162361966734	2808.6960650395
0	5520	228782.547528077686	933.76761302514
0	5528	229077.017567743166	2658.6280337697
0	5541	230516.978959238843	11882.756344453
0	5546	230735.924523420063	8517.9203887219
0	5605	232820.743047987494	4476.9026731146
0	5633	233351.751714313244	2224.0751700407
0	5638	233557.614389231349	704.73834534631
0	5724	236647.052885603768	5505.1840851772
0	5745	237709.928373055067	6561.1226092358
0	5817	240892.662361879823	6890.3067312149
0	5825	241364.343659848867	10574.395796545
0	5830	241463.032455030726	17587.156518832
0	5836	241513.858309655294	7438.3482641612
0	5841	241690.093855914275	9735.6337391341
0	5853	242704.491192749304	9083.050583146
0	5866	242910.309719613427	9951.8801735977
0	5879	243918.820739016888	9762.792769795
0	5892	244317.990581714304	13180.430598747
0	5900	244396.14205396911	6283.1115099745
0	5918	245522.657576988549	10804.745894623
0	5929	246120.95982100154	9324.7562569635
0	5941	246940.818383406818	8538.1322819732
0	5954	247155.038925705674	13116.27329738
0	5965	247465.260693517592	7715.2502543249
0	5979	247827.04271809478	8560.1689819635
0	5990	248099.393183142212	8660.171880425
0	6024	249304.824174789424	13925.868631572
0	6035	249761.583878419642	8035.417804313
0	6043	249991.212619011565	6292.5955200373
0	6048	250010.217956437249	4906.2716216615
0	6057	250608.261779233131	6247.8861122896
0	6062	250796.95948535996	2728.2106511683
0	6070	250969.600712028879	13804.610166392
0	6080	251108.810766697492	3200.648163592
0	6085	251196.704235911777	4594.4174585177
0	6106	252614.302517233166	3928.9573108583
0	6115	252848.50184711092	4477.9486754762
0	6143	254078.384616429265	2695.6635745468
0	6161	255031.496781913315	7851.645368156
0	6179	255269.273052013644	1316.3281225108
0	6204	255912.651935566357	1203.3487036258
0	6212	256288.090072213871	3652.7204984466
0	6242	257736.280053175878	2321.5824768433
0	6281	259321.169709981479	5918.0674632538
0	6290	260101.275139926062	5118.577573396
0	6344	262114.091828297456	4674.5360907257
0	6352	262373.880828920568	7024.8555937595
0	6358	262683.159279229783	11714.169168801
0	6366	262816.014027157844	4217.1335784889
0	6383	263348.708765981232	2933.9090173263
0	6396	263461.023642033421	6805.9358146672
0	6407	263735.090019215701	4091.0948722247
0	6416	264460.606831779379	7123.1566193555
0	6429	264650.361989093291	3038.2908599654
0	6441	264933.589044960416	4741.1606478265
0	6456	265381.117132395696	4038.4691324939
0	6490	266610.724257788015	3905.357081162
0	6502	267292.177563046828	1749.8752063397
0	6516	267843.866150203634	2362.1481809461
0	6544	269005.670721202783	1872.5852242961
0	6549	269036.556139450124	4155.7258969439
0	6602	270849.923809405205	5965.8552984433
0	6634	272381.977856149703	9203.2103133354
0	6644	272590.327646265692	15001.669420358
0	6649	272934.649369065084	4488.7241730548
0	6655	273029.92206000439	5084.2749076278
0	6660	273678.530146846243	4429.0736123006
0	6666	274082.992261987933	8269.2390951112
0	6671	274462.967167805368	10045.7059271
0	6688	276351.865445864395	6555.6997990588
0	6703	276454.65578199433	5649.8310360858
0	6714	278393.903501180857	7866.528249858
0	6726	279034.741521687091	4468.5153278337
0	6731	279056.488885343569	7125.8659360785
0	6782	281818.04986315223	12600.614895085
0	6827	283271.236298750672	3062.6910624929
0	6836	283686.809448562167	4499.3861526268
0	6844	283917.513212293011	1699.5220703076
0	6852	284152.489961335857	8425.0374336235
0	6858	284337.009804746769	3314.6044179225
0	6867	285164.203274368095	3837.0984271967
0	6879	285975.588153900386	6505.1039502198
0	6884	286411.374543787361	4331.6050521634
0	6907	291099.045245948506	8384.1472626973
0	6949	292885.643780190764	928.62420724562
0	6957	292933.700050122042	367.20002791138
0	6966	293795.493360521074	1707.5733933285
0	6975	294071.415827933566	4632.976887696
0	7015	295657.700403605896	13837.25544818
0	7029	296343.874195558812	3604.2452999183
0	7034	296348.256694421784	1886.6868354716
0	7045	296708.516654313501	1859.8283295901
0	7062	297182.836962988004	2387.9020822541
0	7074	297807.043393015101	2397.0761190924
0	7100	298397.661403185221	1942.9485861282
0	7118	299355.674445052937	1681.8110657901
0	7147	301473.423642825789	3566.6625757507
0	7169	302190.86495659451	4834.1584334766
0	7181	302911.760712723816	4317.8756356263
0	7200	304850.927445171132	4645.3623468423
0	7205	304855.405270257022	3257.6681164826
0	7225	305828.428055438162	2950.2806992927
0	7230	305831.924016258619	4805.636296953
0	7261	308944.259767511266	1324.0548222398
0	7267	309224.140143238607	4110.8573634141
0	7294	311755.835604822005	3753.0203611978
0	7329	313670.108302657829	2552.8543851467
0	7337	313898.236602057575	13111.531558197
0	7347	315018.656125030348	4455.9311944533
0	7381	317616.712722727407	4898.2166578883
0	7411	318320.800746347054	5416.2403749704
0	7427	318889.095728632198	5640.658121223
0	7435	319325.225875921669	4206.4212269609
0	7447	319897.063666477639	3331.8533727071
0	7469	320984.416783047482	3412.6366109524
0	7486	321624.885389732978	3512.2692786806
0	7503	322302.556893941314	2429.7472778466
0	7512	322512.114227748165	6567.1058105575
0	7517	323106.995405656362	3548.2264589494
0	7525	323206.98971883625	5223.1181928307
0	7555	327679.437185028213	3638.9415530791
0	7564	328208.466081095451	7443.707830339
0	7573	328636.881175753385	7047.4989798438
0	7639	336325.401201704492	11120.313071241
0	7662	337026.69701483735	5492.1267283249
0	7667	337427.374039017176	8678.6769183791
0	7676	337686.870519378804	3573.6525144476
0	7685	338657.702122464656	3704.0829732331
0	7707	339462.929731999267	3132.4001219286
0	7722	339915.025691208183	2103.6780752397
0	7744	340593.294218647224	6668.5746941271
0	7779	342888.917503874609	9581.6481119432
0	7784	343174.848122693333	4143.9092054396
0	7796	343695.220995022618	3945.8349224906
0	7840	344818.378761056536	2529.9828988014
0	7849	345027.499658830586	4999.5796187703
0	7854	345104.544959995358	4453.1923370255
0	7860	346335.833782584411	2508.1282519909
0	7868	346422.320206606542	2481.2561353173
0	7895	348231.598016521862	4157.8053162755
0	7904	349098.130409662988	8610.8676789981
0	7929	350216.955583249896	6528.9372806709
0	7938	350369.3465767276	3261.4170979239
0	8001	353543.935483530725	6403.2667382307
0	8006	353574.046278671979	4287.4884059843
0	8015	354016.141291745539	2294.0295273757
0	8039	354490.636725975359	4985.9196805918
0	8051	354993.762336531274	3904.6987737447
0	8056	355004.43909960152	3034.2692527866
0	8064	355344.014950807717	4193.4363816797
0	8079	355934.739696502203	1734.9168529046
0	8113	357195.717942612801	5423.2485632035
0	8181	359747.490764627779	8384.188509416
0	8205	360587.080504791368	6247.4553742578
0	8229	361397.675040271398	4531.0944483079
0	8238	362065.159694932919	6582.1174086848
0	8244	362431.845438597223	4523.261873796
0	8255	362809.606356113697	5476.8685540786
0	8275	363912.376440167057	7580.9839864349
0	8280	363981.54196244734	6753.1528337953
0	8285	364219.585756829923	7928.0471547452
0	8297	365178.713695660908	6078.640347341
0	8303	365534.702060096523	5396.4034773159
0	8308	365585.102166150065	7328.2759458504
0	8316	365900.06307454813	3249.4590121175
0	8334	367243.824526307958	6902.8135899577
0	8349	368573.753932160652	8618.836196584
0	8358	369117.362159650762	5939.7684031223
0	8400	370791.386383531249	5001.010599593
0	8420	371621.685975393195	1457.3670614598
0	8431	372532.063753414477	3939.9171054359
0	8475	373929.314731149926	7881.2090749928
0	8497	375077.943537646732	4648.5634332239
0	8505	375134.57073711442	4097.9193068863
0	8523	375871.284607155838	5752.1260733119
0	8550	376686.501615820884	3384.5060460679
0	8561	377327.645200348216	8171.103300085
0	8566	377380.950050050613	4052.6402036496
0	8574	377688.076235749811	4309.7461182343
0	8599	379758.448865425511	4534.5289890153
0	8678	382315.144351721936	9266.8896497023
0	8686	382494.595901845103	7243.8291406827
0	8703	382741.464928519846	6739.101108738
0	8708	382801.774967852894	3309.036777569
0	8722	383051.729634760252	3091.4136752659
0	8752	383974.559139998488	7490.4058912641
0	8758	384423.074987480483	4307.8730479208
0	8772	384732.910308350574	6042.7502273556
0	8777	384737.75133967456	11831.103107255
0	8786	385370.937012691026	5005.5904439286
0	8797	385872.15417188933	4703.3530998656
0	8802	386056.355868956491	4437.1565186137
0	8811	386461.381109434776	6416.7083418258
0	8831	387269.018781246909	4376.7158851621
0	8850	388281.451330560954	5424.1793954933
0	8855	388363.814865809042	5907.7712985064
0	8860	388468.678707734948	3168.7156668009
0	8870	389770.690278576616	3020.355224857
0	8887	390433.669948145675	4056.2517484864
0	8908	391834.211228575896	1824.1993558752
0	8923	392370.375494267808	8856.7194380192
0	8960	394829.487809382884	7623.0865473563
0	8968	395075.787445871117	4580.0660675526
0	8985	395778.516983419949	3007.7253781946
0	9003	397033.527857974475	2005.346908916
0	9008	397095.545494133111	4636.9243171666
0	9019	399490.910701285333	7135.1803007406
0	9053	401081.183554019633	8791.3672297472
0	9086	403382.227312007053	3105.3302689544
0	9097	403978.078170440515	2643.2716164927
0	9109	404953.742467130943	9399.1572603207
0	9115	405011.275692530808	5006.3556469684
0	9123	405260.713677362681	3634.8790729052
0	9141	406649.117163040308	7043.1107464635
0	9161	407516.16468107207	1893.5717307784
0	9178	408148.70288274876	4794.1647210765
0	9236	411375.552996606261	4416.0196052263
0	9267	412472.4763814991	4426.7311757443
0	9298	413017.122257076318	4201.2768939775
0	9366	416177.204387593037	7896.9767635984
0	9383	416623.689347986697	5658.3722592301
0	9395	417049.399530567311	10294.893049183
0	9400	417061.392557684178	5413.5677820036
0	9408	417441.449714493963	8371.248066113
0	9418	417537.36933899083	4698.9928679534
0	9423	417608.746483414299	5315.2595043424
0	9435	418093.006912787987	5488.5883803966
0	9448	418365.352454337139	5108.0604818766
0	9473	418870.556186328707	4366.3794709518
0	9494	419839.48322609206	4787.2314605579
0	9505	420556.545885492176	7556.8287741456
0	9514	420830.846855508198	11381.66697268
0	9527	421164.506647452858	7736.4287774152
0	9532	421459.246476491778	7380.8618999554
0	9538	421800.67137792009	5711.0622123009
0	9543	422010.217614991328	4793.6889192504
0	9552	422369.684931926002	4047.3138835926
0	9574	423547.404221099846	3864.6319772437
0	9583	423960.434302651581	6172.8364154058
0	9619	425184.203713225512	3095.4645498735
0	9628	425316.920799994557	4636.4874335855
0	9636	425580.722891689874	1899.3904924735
0	9654	425912.864443646984	1791.8691247779
0	9675	427408.611353290935	9035.2707462545
0	9689	428107.256122286528	2526.2896483827
0	9763	434553.229847018921	12163.099617949
0	9775	435462.924739935446	4926.6307775096
0	9787	435853.188513931091	10274.420948251
0	9800	436188.542232654392	4925.2166890154
0	9845	437995.212151933643	13459.993731218
0	9854	438174.912215973913	5186.7386363161
0	9884	439575.583090166426	13023.288746117
0	9970	443863.331093144984	10390.984700061
0	10001	445324.56436505163	13494.274693131
0	10006	445376.608778397716	9624.8492276054
0	10015	445520.81428282645	12913.605024958
0	10020	445583.618240318768	8739.7460842167
0	10025	445686.299814743802	9618.5099874968
0	10033	445799.731721644578	9298.0914239347
0	10058	446787.745887941274	19405.010497371
0	10076	447532.24636006396	8980.2380674258
0	10087	447773.047039875736	8939.4908913026
0	10095	447828.705128286332	6469.5019437984
0	10100	447855.01784936773	6168.377919631
0	10105	447876.975982633059	9793.0923118851
0	10119	448237.771884125589	6985.8200248092
0	10169	449875.800149038567	11163.861428822
0	10181	450020.988677632902	5279.0341978243
0	10189	450323.531234195643	11316.518144263
0	10206	450752.211985905906	7562.7832193273
0	10216	450841.454506030576	14206.659168395
0	10221	450886.085613765804	7349.2799578142
0	10232	451385.830682009268	5426.687226463
0	10246	451703.645866390404	12098.6489828
0	10251	451806.154783011938	4795.6748829986
0	10256	451922.75377817661	3788.1792264117
0	10262	452564.872356898802	6783.0064635746
0	10267	452802.736356981061	3713.9354604929
0	10272	452889.506957659004	4982.6716931115
0	10278	453072.742137378233	4223.2181022473
0	10283	453186.717440022293	3825.456509723
0	10297	455843.881700918531	5336.3810232409
0	10324	457778.386862047769	7637.2974456921
0	10329	457920.771703490339	6588.9664292651
0	10406	463076.177151756684	6303.6227696993
0	10411	463102.933586445071	7380.9298278704
0	10416	463154.27579549815	2623.0899165805
0	10428	463976.603649752081	3827.906092296
0	10491	466841.71117569115	6818.1168934113
0	10496	466879.87004671503	5199.1902617532
0	10501	467053.824748887917	5999.7464371609
0	10570	469603.501110045259	4130.3320573566
0	10584	469997.145635446049	10745.06450164
0	10596	470459.964316659444	3252.8619340797
0	10614	471108.272159099763	8730.13690975
0	10646	472247.639449131974	4781.3389161729
0	10658	472516.432960156918	8650.7297676653
0	10663	472720.926565680173	8330.0626832966
0	10668	472743.949441968177	4808.8752920211
0	10673	472878.19772374	7962.3755753558
0	10678	472977.450380513573	5292.3931226229
0	10683	473115.188725884264	4787.5888387239
0	10688	473190.999120244762	3795.9254916971
0	10697	473589.770025595868	2167.6756124513
0	10702	473854.176443169569	9445.5467812552
0	10724	475984.819427994813	4368.2210945804
0	10730	476423.776765326148	5526.8262863339
0	10758	477426.652765799845	13051.099737686
0	10775	477776.855639938106	2197.410593869
0	10780	478446.313705396358	7652.3868404256
0	10815	480330.45686612558	3277.1551182969
0	10823	480553.787746417217	1416.1211267315
0	10832	480886.054979826394	1334.2780579958
0	10849	481995.549806020069	1857.6371552035
0	10891	485142.948966280185	4190.7900687732
0	10902	485342.97760363159	3174.4807339147
0	10914	486059.468860648028	8638.4599745806
0	10936	486778.401874184946	2609.5655260689
0	10947	487357.287063908928	10401.065788735
0	10961	487768.841870871777	2630.8118761375
0	10992	489798.539529004418	2879.7916066933
0	11018	490237.98804413213	6824.1422199033
0	11024	490521.474283351923	4121.4206672395
0	11032	490903.459556979074	5356.9038957366
0	11037	490952.244023919261	1486.5364330412
0	11049	491583.654518284422	2175.0834276051
0	11096	493369.750353020756	4482.5769559258
0	11105	493543.205703921373	3688.639905547
0	11165	495795.201625674553	4184.3653361151
0	11173	495832.373226082336	2878.8186126447
0	11178	496020.022490954815	2172.6201904812
0	11183	496077.743774311071	3387.5292327556
0	11188	496487.852747733893	4919.9208118914
0	11232	498111.631730992947	1476.4291775568
0	11243	498460.112539430515	1846.1815651892
0	11256	498747.644951194653	3234.9855866366
0	11267	498858.817213290558	3785.9494782783
0	11278	499427.364931328835	4475.748609902
0	11299	500317.573820250276	6452.6243604058
0	11318	501005.123270552102	4070.8712120055
0	11323	501189.867926194065	1465.9796463568
0	11337	501535.296265013595	2862.0101670936
0	11351	502122.818318511973	9334.432971914
0	11402	504037.92873931822	1143.6071237427
0	11433	505265.084835044488	1786.4881083839
0	11447	505522.653740284581	6228.2623157064
0	11455	505730.273183207693	4412.0777055552
0	11466	506118.889165560676	4151.7031012093
0	11477	506387.149244226632	3717.2942609337
0	11485	506762.493742889123	6673.2656733546
0	11499	507259.489726577343	4882.6270884203
0	11523	508209.154066190152	3010.884441586
0	11539	508845.867131211167	4920.7710214974
0	11547	509223.23693448017	3425.2392891354
0	11553	509267.158312284858	11149.95433125
0	11561	509619.262969871642	5554.5429435446
0	11570	510053.446386708956	2351.1306943073
0	11613	512457.315916907239	5880.9689745583
0	11618	512587.650347737395	2183.9886401345
0	11633	513428.567086065497	3611.2920591245
0	11652	514003.852063504272	6109.0760048189
0	11681	515486.321651856297	2243.7496857468
0	11686	515595.832008270666	4038.4012307242
0	11721	517444.691327196759	4070.1399625282
0	11735	517744.107039503847	2120.221627438
0	11800	520186.288069340614	5355.5103017873
0	11809	520589.296157895669	2806.7292819596
0	11840	521539.199283611464	3871.5758416606
0	11849	522070.321553102814	3985.7674510432
0	11859	522335.176689896673	11733.817782185
0	11868	522926.501111173442	4516.6737448674
0	11876	523125.728339768125	5757.5889110817
0	11881	523190.71562718476	7435.5004073912
0	11887	523627.418394752412	4219.0074066904
0	11899	524388.736015519689	9904.5155149808
0	11909	524492.003336809437	4887.3399170621
0	11917	524614.89534882953	3394.7880085748
0	11949	526983.239201570288	6740.6076569825
0	11961	527288.193684074981	3310.600671788
0	11974	527823.092813177748	5877.8028791555
0	11991	528411.743763989513	2205.7193625353
0	12003	529324.600810051784	3229.1626655572
0	12008	529421.680937563359	2201.9518476494
0	12034	530419.781110959567	5877.1139449113
0	12051	531189.772915403045	3203.2461144586
0	12081	533427.260938449863	3519.7028850256
0	12113	533962.829077985927	2771.5600948749
0	12122	534091.399218216027	1002.6141842415
0	12130	534292.370211009422	3815.545475956
0	12144	534857.87790326901	1235.9222883985
0	12163	537117.372051581005	7257.6810913637
0	12171	537274.038776066336	2994.472343774
0	12188	537846.006286343116	4442.4567843878
0	12250	543245.186109644741	5881.125860903
0	12333	547368.395803966876	11740.125860076
0	12338	547423.865553132194	6974.5453649975
0	12344	547618.629636851141	4508.434097835
0	12353	548462.877913265738	10490.053215427
0	12358	548608.756539425872	14954.682409954
0	12366	548884.866231368325	6240.2759128057
0	12380	549328.925279727232	6201.0099030801
0	12424	551079.437012013162	9506.5717425852
0	12429	551214.034330612313	5313.7246049429
0	12457	552007.576663540193	11242.541296507
0	12498	553203.803419170103	4001.421926596
0	12510	553524.347130044912	10172.174820208
0	12515	553573.230632912408	7062.8898101775
0	12527	554324.575871079299	11361.20539046
0	12559	555793.268663798654	5984.6799939468
0	12584	557050.411609359684	7130.3863712484
0	12593	557366.766940331176	7630.5287407796
0	12611	557931.330505815728	8501.5913250444
0	12617	558079.191832975627	6266.7330103203
0	12622	558507.143282746027	6946.5824660283
0	12634	559267.753518919873	10649.006408178
0	12648	559903.288219795625	7178.7313755333
0	12657	560376.06688402972	5824.3547802032
0	12690	561372.348268802776	16330.416581789
0	12699	561892.841137165397	6699.6687166084
0	12713	562451.73089867371	5282.8048028177
0	12732	562848.381767083167	5392.9722847305
0	12749	563434.039330967396	9574.4105421606
0	12759	563865.784320378389	4864.5596286645
0	12768	564292.00268354451	9053.4795701211
0	12787	564770.266006985797	12889.30591036
0	12795	564859.185803681158	4146.7594118941
0	12800	565163.110212380841	1753.8298302188
0	12808	565493.091784275102	1212.8616849037
0	12817	566009.226589508468	5089.0085297068
0	12830	567160.128149013192	7149.963071776
0	12853	568450.117801078602	6472.7297186396
0	12892	569949.254918470007	7125.6128174643
0	12903	570359.97287467432	1864.5400353556
0	12922	571947.893217576298	9649.0564273955
0	12936	572851.302810072635	5736.6440764517
0	12945	573642.637905041171	9341.4639133825
0	12959	574089.587346875836	4329.1819344408
0	12964	574263.585258447545	5733.8469638192
0	12973	574926.697123013218	7560.4561657161
0	13014	576160.119361739646	2649.6909161307
0	13060	577106.684304795722	2116.4492858597
0	13079	578029.659334233701	10422.844104929
0	13084	578072.498063399636	2747.8761044791
0	13090	578394.085518447987	2811.3295317514
0	13098	578409.715431281748	2704.692908033
0	13106	578557.899774706904	2144.0792298128
0	13126	579630.455136772772	3506.676990294
0	13140	580279.53952210391	2779.951096971
0	13166	581830.707685119877	2978.0104634024
0	13184	582642.943861497307	3115.443348739
0	13201	583104.417089578775	7117.2528924378
0	13236	584178.696728836813	12611.168904892
0	13265	585028.83405586717	7952.2162771229
0	13270	585105.843154107335	2072.919988825
0	13278	585530.018657211764	2279.4307133434
0	13308	586363.543505494695	5579.9523458148
0	13325	588064.680308821072	2108.2012734008
0	13330	588284.934794018738	5614.5981941105
0	13339	589181.152613852616	4735.1749594005
0	13344	589222.466258570667	6669.2893039867
0	13354	590460.079491483926	5338.0044216813
0	13379	591098.900501703738	7710.9120299044
0	13388	592124.634243913224	5937.1811991711
0	13431	594068.310985275964	942.74845378849
0	13439	594536.150768722713	3806.1081848466
0	13596	599978.821203042425	7307.9922479205
0	13602	600042.860621644612	15939.316320954
0	13619	600573.238033987562	7289.2678992001
0	13628	600913.951027026364	5685.0371140651
0	13648	601762.685560860434	7124.2713310572
0	13658	601833.071556928601	11292.821657989
0	13663	601893.089015896709	21424.854250842
0	13668	601945.517773084228	6704.9478033281
0	13676	602055.38680805518	6273.3970776785
0	13686	602166.869857356612	6958.5014722913
0	13692	602275.089656280692	4952.6884267165
0	13697	602429.075886064847	6264.2192624111
0	13702	602437.641088245119	4951.975766691
0	13707	602443.886494446413	5413.6667779579
0	13718	602955.623603816815	6442.8169318568
0	13729	603456.652355953673	8396.4181170021
0	13734	603563.334418102331	4198.4966794981
0	13749	604084.438285100842	3449.9202477072
0	13762	604242.603790989917	2213.0353381866
0	13858	608397.340855599693	15590.009655687
0	13908	610204.588124440593	8896.6654285195
0	13916	610432.449471232785	12183.256983118
0	13925	610634.218733813561	13056.988500277
0	13930	610758.183768366228	8082.0820466441
0	13935	610814.330214395771	7011.2029462051
0	13940	610926.03148721745	6726.6810811614
0	13949	611581.885316678403	6264.2551754161
0	13957	611658.521382168202	5273.118618599
0	13968	611854.711857750672	7478.6880841965
0	13990	612656.881050694908	4391.8640001979
0	13996	612889.040871712267	4362.5706364147
0	14001	612947.447979746753	6319.7084081759
0	14006	613112.068735591413	4774.4744457285
0	14012	613504.392031461507	7188.0110314981
0	14017	613631.849881322618	4977.7930192639
0	14028	613848.552549375753	7855.0969650376
0	14037	614397.286642031997	9975.0998095987
0	14045	614941.98464644152	3236.9579996381
0	14051	615044.48189800005	5992.6162017147
0	14128	618802.118861313591	7053.4774256691
0	14142	619272.807156606075	1370.1228110766
0	14148	619585.18305407868	2386.2318726895
0	14156	619712.102382321255	4024.1560845415
0	14164	619942.679975620661	4173.4253743853
0	14173	620429.720732041638	2494.3055694083
0	14206	623631.475149630515	7043.3560232855
0	14218	624574.486995887844	3522.5382683576
0	14223	624604.085909924409	7237.0865189533
0	14232	624784.304476348099	6681.613704616
0	14262	627502.769327010305	2116.0988761807
0	14288	628931.425690119235	7475.2057077149
0	14293	629137.352248571647	9113.4522193702
0	14302	629701.44437255055	3592.4605693252
0	14340	631632.545599637021	3241.9046475108
0	14345	631841.867243200597	4559.4894242481
0	14391	633903.531461580682	3735.9256896714
0	14408	634551.276918585548	1555.8578348922
0	14413	634630.785222281459	4675.0005044289
0	14439	636848.806005344887	3379.5032962819
0	14502	640540.405224587123	9197.723616668
0	14507	640899.467480057907	9030.8631945247
0	14512	640906.989031923456	7211.9038951431
0	14520	641114.485031759645	5207.7951395854
0	14525	641162.121815981992	3628.5421900556
0	14534	641390.444443125749	5121.447820644
0	14551	642220.991712800403	4282.0857296474
0	14567	643692.052631049766	11342.61682215
0	14589	644410.733403101831	6211.8349847974
0	14597	644908.772836215472	1995.8834286212
0	14611	645256.881206226055	8341.5894210246
0	14620	645998.655016493825	2556.6051191628
0	14628	646327.982041922152	4533.5660771621
0	14670	647945.261953194622	1520.039585063
0	14687	648542.460847486559	1359.656612087
0	14705	649372.792402276802	2337.0731102401
0	14716	649798.99827644858	13032.273344006
0	14731	650474.736468460403	3490.8333290104
0	14755	651741.26145575573	7312.4695042956
0	14768	652685.71632374304	2348.9314138914
0	14776	653160.07882762772	4386.046213732
0	14782	653285.151936426654	5115.4423233405
0	14807	654545.235358671854	4089.0147128993
0	14817	655674.869057467665	1425.8483796535
0	14838	657088.313330094013	2753.206391526
0	14854	657647.196555318433	6824.989485411
0	14878	659639.819536269286	2060.7307423561
0	14886	659816.863081233414	3182.285142663
0	14913	661623.058406565151	1124.8290521349
0	14961	663318.481135634928	7264.0230882306
0	14966	663556.097652208477	4875.586639215
0	14971	663588.143484134414	1930.331863828
0	15018	665790.799898723711	3876.1223213687
0	15064	668573.824408992973	6676.6036186918
0	15069	668595.546298825969	6034.928238881
0	15074	668680.092421350599	3035.1073321207
0	15126	670535.380483098669	6144.1211641468
0	15178	672865.346155640843	8451.8154750276
0	15224	674315.557740418833	6881.6705055927
0	15232	674685.642391932227	8388.911440819
0	15238	675336.765646060469	6092.441242236
0	15244	675885.681700181228	10889.20054164
0	15252	676170.105090394338	10512.165505135
0	15265	676365.050837862927	7465.3318791437
0	15274	676835.642917428181	6476.3955789706
0	15279	677001.33703371876	10422.886163737
0	15284	677092.622225776044	15981.793888499
0	15290	677425.562952658979	6327.4539591122
0	15295	677550.864613584251	8089.3634779801
0	15300	677649.895078673448	8440.9127024357
0	15305	677858.563733297372	5185.2038883281
0	15313	677903.460837115081	4518.8760667897
0	15327	678252.176815091808	7108.0243978937
0	15345	679836.637469076007	3675.4646289325
0	15365	680613.039339947997	2164.8620786298
0	15370	680644.363389595225	6827.8098132893
0	15388	681967.676431070837	10355.90311297
0	15397	682727.159222127426	2484.7793591209
0	15424	685107.567134984204	858.62465562353
0	15458	686638.742025356769	1374.515930984
0	15467	687363.944075438119	9460.7013466391
0	15483	687683.069586419744	2998.8262216522
0	15500	687936.655645026593	1586.6245051986
0	15534	689390.961410289463	3970.745029628
0	15553	690994.084156950006	10154.395787123
0	15563	691397.827208138743	3193.3881546409
0	15575	691563.741323876852	4173.1393475323
0	15663	695596.063893196417	6832.620834945
0	15671	695806.993524285397	7499.174397632
0	15688	696068.385548953068	5186.6214231044
0	15693	696334.800276641472	8538.2962804554
0	15698	696467.783689800875	3543.5793134592
0	15720	697830.345881598024	5576.7203791289
0	15779	699842.730093302148	5102.2517033932
0	15787	700191.011168463233	8755.9146015434
0	15802	700902.083023869844	6380.1804227315
0	15844	702351.089876492389	9818.3923620489
0	15849	702384.537562329639	4758.4266112843
0	15854	702402.636495830317	8871.3365094751
0	15859	702728.532320858908	5966.5744590983
0	15868	703308.523500844342	6401.3740288084
0	15877	703540.315654110358	9587.3788108448
0	15894	704701.165887015445	9076.2176938829
0	15899	704766.160950624228	5546.6583146434
0	15905	705072.838173292519	6936.4808179645
0	15910	705317.393229157927	13859.584072049
0	15923	706842.34204973691	5293.6496053997
0	15937	707511.330700672822	6676.0536946428
0	15945	707618.812708926046	4224.7954643376
0	15957	708437.083225638202	8074.9382049694
0	15967	708491.498337952559	9426.8812880706
0	15995	710478.18184583525	2155.6043777202
0	16022	711111.662977976161	10895.383417313
0	16033	711272.164075855088	1113.3930262998
0	16072	712824.258179143398	3012.7578914888
0	16080	712959.524783178302	3618.485662524
0	16105	713633.346961673367	2469.0462159335
0	16113	713725.461643898457	1840.090075989
0	16118	713814.884234235889	3480.8069769879
0	16171	715537.950684203215	3629.2014942235
0	16198	716467.659816327587	3580.6683415972
0	16309	719957.147788731075	8458.0547648806
0	16320	720127.710937360383	6838.4815982604
0	16328	720440.25812631859	5195.4822117631
0	16336	720625.851093298804	6545.4747720673
0	16346	720738.595025476151	15330.664105845
0	16358	721039.090510550049	6019.2775185158
0	16407	723289.298299069452	9459.8020300243
0	16416	723781.893625596788	7591.1563668272
0	16421	723833.337205187385	8302.4866510655
0	16432	724466.818244501414	7858.4460341587
0	16446	725150.172440976186	8474.470775994
0	16451	725190.653171874701	8444.3576317738
0	16460	725401.430058516594	11069.279464898
0	16470	725714.862104568769	7733.4042293308
0	16475	725729.885102925222	9444.1811220569
0	16480	725762.122140068801	6057.7363454054
0	16485	725982.262463688514	5435.6053045749
0	16490	725982.726257997586	7888.12822608
0	16496	726069.8190398685	9264.6196082873
0	16507	726434.811908204756	5136.3635347866
0	16526	727168.592228548495	8690.9469434221
0	16538	727667.691537564492	5469.5020790001
0	16543	727696.677227515449	3693.0039883908
0	16548	727700.780732706932	6919.21854615
0	16556	728190.243791162038	2076.0302094651
0	16581	728775.237075472526	2592.1304126325
0	16604	730104.668226955941	1465.4514465452
0	16622	731280.657281119959	8914.086738235
0	16637	732602.098327127579	4228.9379100346
0	16651	732777.394893418045	7540.4840756553
0	16659	733074.320460640781	5142.1967241886
0	16665	733532.401235952395	4216.8319521087
0	16682	734836.02955343472	3873.068310662
0	16699	735632.27371004212	1931.5799625702
0	16716	736219.343334378684	4218.2556009097
0	16742	737964.00744804002	2254.5140403099
0	16778	741033.274564915658	5793.454368055
0	16813	742293.20850684988	5287.4570625067
0	16834	743291.295447011651	6952.6351640024
0	16881	744809.500809822915	3944.8946096202
0	16889	744915.430173178208	5711.7105412386
0	16904	745567.855466776673	5558.2023952797
0	16919	746490.941909994901	4935.8242750559
0	16946	747569.76358440922	9206.9517369145
0	16961	748305.074324410666	6358.1470589461
0	16971	748347.719171948301	5575.1910867726
0	16983	748793.119213598752	5573.7503452126
0	16993	748974.415593076824	6111.3025055741
0	16998	749142.102914115943	4841.7544875374
0	17004	749250.081258176641	2904.0475079553
0	17013	750590.166105817692	6187.1428443572
0	17042	751980.929122949204	5276.8815157399
0	17067	752546.474793193846	6580.9925156406
0	17093	753805.471647927145	3273.7410054412
0	17106	754227.878954495883	2620.5980670582
0	17111	754369.595447702269	3728.0782940122
0	17116	754410.227680615301	1955.4665678334
0	17125	754900.950091452031	2919.9610797826
0	17133	754994.81590836118	6641.8005426628
0	17151	756133.719502147781	3645.9523752112
0	17163	757026.066647492644	3302.8024396592
0	17189	758611.276613721494	11009.106063561
0	17210	759963.477363621862	4580.0930904799
0	17220	760269.287652940165	3361.7407336194
0	17247	762137.485972568432	3970.0448697422
0	17260	764170.186168310308	4275.60535945
0	17283	765658.118402746562	4934.7714904875
0	17300	766151.484306085233	5280.5800067082
0	17325	766742.449222581838	934.66842490727
0	17341	767229.691738427603	692.74278592544
0	17350	767489.740636330483	10338.744082967
0	17375	768280.917820073917	4660.2353662932
0	17386	768575.661659143158	2266.5950563365
0	17395	768766.368009499779	1235.1048219089
0	17461	772021.75996855809	5187.6850171419
0	17466	772145.288127405932	7332.8450085331
0	17472	772611.722023240462	3885.3150305722
0	17477	772863.926736909081	5228.7802724256
0	17486	773991.930203326734	4966.1086699165
0	17507	775138.146882026543	5181.2473143021
0	17515	775158.470163177993	5065.3346683115
0	17564	777877.815947255604	1378.5919140285
0	17580	778117.391423907536	3735.188069262
0	17598	779138.271611083648	8149.2839134211
0	17688	783981.138841374725	7604.6269574797
0	17693	784086.115633375397	7337.5096824896
0	17701	784381.896717017194	13752.261675418
0	17715	784686.63910537345	7013.8803438262
0	17720	784742.903190397451	3431.6051307661
0	17725	784947.269493578344	6996.2641213161
0	17744	786008.61515680185	6865.9975159585
0	17754	786067.886072823386	10915.163752471
0	17759	786162.842120618572	3078.7493552893
0	17776	787095.397435224204	7994.7791821155
0	17788	788236.200279186925	2336.1049280768
0	17797	788718.844728436245	9240.410539246
0	17809	789008.113317781256	7054.8093444241
0	17839	790427.692896520823	9468.7425669075
0	17848	790761.324755895648	6597.9691524391
0	17865	791455.378984280356	2076.4183331182
0	17883	792466.481145692311	11076.359135234
0	17936	794466.223170369385	12649.219113751
0	17947	794669.908773386346	5724.2206739088
0	17964	795252.113260179287	8878.3686368356
0	17972	795645.664315835957	4917.6868121966
0	18020	796883.074871577345	3487.6917581505
0	18030	797229.040249435809	4521.7784323795
0	18039	797519.689767621325	5174.3277679341
0	18044	797644.966217301661	4724.6962296886
0	18055	797956.086123695119	8445.9598170682
0	18077	798115.480512759483	2582.1951885952
0	18089	799121.945973965984	2885.0914481143
0	18099	799365.664259886577	4821.6831328426
0	18104	799407.328661913086	7136.4056604831
0	18139	801819.254316714306	3871.2151925381
0	18178	802909.515304578673	6418.0888979737
0	18188	803075.349486078993	8758.2609711216
0	18193	803155.665235774015	6300.9579931315
0	18205	803875.374330096803	3182.6539238323
0	18219	804360.624950169926	6363.0694579622
0	18224	804554.024605492761	4124.1658870572
0	18229	804571.960404035459	4438.0411607534
0	18246	806391.027855764658	7324.3649754193
0	18265	807449.22693714706	5448.6523227284
0	18270	807530.005421657401	11834.932054328
0	18275	807595.067634309058	5121.9030814767
0	18308	809254.829404184393	4343.7370234729
0	18319	810043.371369816355	2036.8597132037
0	18347	811248.762433169111	1052.8741183753
0	18472	816446.062908967113	8291.4890527149
0	18484	816962.382442721969	4937.6594357829
0	18509	817570.361764797864	6426.1894017216
0	18522	817760.381955528196	7241.341466814
0	18527	817907.733973039243	5708.7785309441
0	18532	818091.507643831454	5561.5744563183
0	18537	818163.959718993422	5488.6803270666
0	18549	818556.501155973958	6103.0124311531
0	18621	821291.737418369772	16373.692700556
0	18626	821597.087900016355	12938.408306337
0	18634	821768.713900784932	8500.4885451843
0	18653	822138.929243413283	8662.7492110103
0	18661	822703.681333015558	11275.207476313
0	18667	822848.369323295056	19635.404020839
0	18672	822972.679852242414	6272.2014898262
0	18680	823097.140470859794	6532.7449602148
0	18692	823848.848499387873	4386.1734716003
0	18702	824244.537998019315	5054.3049724754
0	18708	824624.063608955749	6170.9300988369
0	18713	824626.994516563725	6347.7125515884
0	18725	825187.91495523625	7778.3730431736
0	18764	826663.822219221259	6740.8595827074
0	18774	826774.704259364617	12331.272048879
0	18782	826951.234452110856	5295.1842817929
0	18787	827099.37704564518	6683.0695371278
0	18802	827603.050485550936	5801.7859109213
0	18827	828412.786920119266	3400.6382722545
0	18861	829951.612223022722	5115.859415578
0	18889	831558.977222809867	5648.7745744619
0	18898	832038.035739627985	6441.4276146974
0	18926	833866.608610453492	7311.0431416473
0	19030	837360.658015820614	8978.3003089771
0	19038	837653.738506173201	7067.5962031646
0	19063	838172.97106254618	10826.957889978
0	19071	838348.078014000373	10583.009386737
0	19080	838524.632040377169	15196.142328297
0	19130	839664.038749216615	10722.932614662
0	19135	839733.846468340261	6071.791207025
0	19144	840105.369099673606	6879.7637572711
0	19152	840325.876017811195	8167.6101791176
0	19160	840432.433114411541	7181.5198456432
0	19165	840655.090731213987	6237.9066531495
0	19171	841009.860222688336	6216.2857517888
0	19176	841061.480149832818	9815.8301626756
0	19181	841101.486895894418	5235.5333110192
0	19186	841241.153812320463	8595.1901778668
0	19191	841295.798196833687	6941.1737646704
0	19196	841413.283012336115	13330.964642171
0	19202	841544.677855094156	6582.3041079895
0	19210	841839.239880918487	3112.0074579151
0	19215	842052.405117460537	6764.0100949095
0	19227	842773.785879802761	4350.8846325719
0	19243	843201.829213667558	5840.0950466908
0	19258	843870.394741531612	14059.706169627
0	19289	844941.733871790574	2738.2784852894
0	19313	845390.430242675134	1913.8586821967
0	19318	845537.540960717936	7806.446996368
0	19326	845686.459446327599	6499.0658501403
0	19335	846391.083667024306	7851.4296730877
0	19372	847979.623099348477	1539.7294019831
0	19377	848177.015146004166	2909.5417172297
0	19386	848619.718704493339	4683.0116861948
0	19401	849395.362386884126	6841.2852799314
0	19415	849794.407754467005	5623.9276859029
0	19439	850471.99160540728	3651.068493151
0	19451	850771.180160715446	3840.6806337213
0	19473	851770.653454133235	7668.2292948947
0	19485	852174.75283226574	2468.118146497
0	19501	852695.580459513426	2037.9417236803
0	19506	852722.581306521596	1694.9283961786
0	19512	853226.762879629677	4005.6298266076
0	19547	855435.580069300561	3429.894755103
0	19565	856740.699250668239	1737.1019586545
0	19583	857415.129553873854	2883.9752931175
0	19593	857744.810436987993	7788.8652680233
0	19599	858167.108994519973	4193.5853788895
0	19611	859368.204307332595	3288.5901901246
0	19663	864372.622080573531	7175.0436202881
0	19671	864481.947694625375	1573.8477216539
0	19687	865503.266665472365	3167.3052907338
0	19700	865874.878978519021	6860.7315970786
0	19743	868412.486705073661	4837.2540668784
0	19767	870262.234491371662	4635.1854664749
0	19807	871614.676217938145	3334.5312177167
0	19815	871943.130935219291	3040.6253782887
0	19832	872632.034690242789	5403.127276266
0	19861	873817.680216034362	2811.6242843466
0	19866	874236.554678127431	8773.5148190497
0	19894	875355.101169278738	4217.5271477563
0	19943	877377.436009504603	5511.6989496407
0	19953	878433.672745203069	5944.5537364877
0	19985	879919.891651984494	12440.785030034
0	20016	881575.14609022981	7081.9143733707
0	20024	881689.94805066022	19020.716045441
0	20029	881794.223481638507	6547.0778236232
0	20054	883161.785860696687	12338.764353687
0	20115	886152.779795303324	19938.348497155
0	20129	887183.400345397376	14489.634631115
0	20155	888135.730312204791	12982.634445838
0	20160	888162.51577584266	13492.795757347
0	20165	888204.235509520632	11673.798471947
0	20170	888245.769564693303	13626.167301017
0	20175	888365.467261128483	9759.7669924416
0	20180	888401.635881138175	8890.8716457584
0	20185	888592.903099214265	8466.3391336816
0	20191	888886.106787443568	11431.084205571
0	20202	889181.221157974152	7282.1312869668
0	20208	889630.406241538139	6598.355295812
0	20217	890589.411119523275	10151.182661154
0	20227	890851.74516387266	7561.0271553874
0	20236	891120.206684708131	6798.4487091778
0	20241	891471.637781633896	8214.2730562772
0	20247	892041.845779494399	5928.868462699
0	20252	892117.127563345271	4877.4968630289
0	20288	894779.584745143571	7957.9755450357
0	20330	896807.856865494583	3798.8169243399
0	20403	900647.650491984677	5495.5586742042
0	20413	901631.112810413567	11183.482802743
0	20440	902248.962006928263	8092.8994322054
0	20452	902365.922568314028	7321.8336656532
0	20468	902754.164332615754	8507.98299286
0	20473	902876.881048171606	5754.2081655982
0	20481	902946.143167392763	7008.9044332027
0	20490	903115.785285631872	6121.2176495014
0	20525	905028.359279045674	7129.1572414556
0	20544	905682.337367016953	4816.7800456722
0	20553	906105.968153330171	6317.0881012391
0	20558	906211.988581340831	7196.6631330757
0	20567	906851.356420689175	7690.7207745978
0	20578	907970.053393731758	5626.1422120647
0	20583	908105.290758132144	6382.2025054236
0	20592	908325.185400811713	5121.9874162153
0	20612	909284.730554315206	13561.942233435
0	20730	914133.896357610314	11027.422154824
0	20740	914248.32126670495	9319.444619841
0	20746	914260.319392910096	7697.1660096647
0	20758	915114.152127184264	10206.521197503
0	20772	915877.003285441873	5772.9115602422
0	20780	915991.732084123468	6909.1770946078
0	20811	917438.54297487837	5624.5571727799
0	20824	917777.966755574582	5913.7480160595
0	20830	918053.698354955183	9907.6092239832
0	20841	918643.125217099061	6378.791684482
0	20857	918694.771924489737	9595.5982123286
0	20881	919811.681225534737	10438.510151591
0	20903	920502.35698386965	11038.167557767
0	20908	920634.888880018594	9156.8995664109
0	20916	920751.849646265006	4246.7565426841
0	20921	920789.479389149371	5876.9645477488
0	20926	920850.218344824837	8285.3856659114
0	20945	921983.686737221368	6028.7596541766
0	20960	922353.109368254422	5307.9128982281
0	20966	922509.787685219431	3891.2661117748
0	20971	922580.565256520482	6416.6435987128
0	20976	922886.600185605833	4218.0169877035
0	20985	923455.004195834196	3869.2835131318
0	20990	923508.745420418974	3623.674813259
0	21004	923913.641049198664	10142.64176453
0	21037	925780.51174346943	4829.2292120801
0	21081	927435.957547016065	3629.7857352313
0	21092	927691.177466833908	6746.3319495461
0	21103	928196.487643107875	1767.6180470802
0	21108	928233.249671060565	4412.9413823311
0	21129	929674.952088321409	3975.3910890797
0	21134	929696.506691245313	3753.36070279
0	21145	931658.98443663702	4026.4975360223
0	21175	934311.723356245891	8829.0956889406
0	21192	934899.767043565447	1458.4346203361
0	21214	935786.962158603688	8818.3702590351
0	21285	939443.793270018374	5177.7514487654
0	21308	939980.460566806294	4895.7859682694
0	21319	940694.873196738337	6120.8844731062
0	21328	941351.836157147757	5247.807115738
0	21338	941946.326639334254	5400.3018723395
0	21344	942126.24198087176	13405.919802883
0	21355	942335.243045028323	6547.8839776025
0	21368	942594.696803658387	5266.3774557887
0	21374	942788.784125453003	4665.7460161681
0	21379	943052.392666383223	11272.993793876
0	21384	943064.509858326682	3145.1139567514
0	21393	943824.794723165654	2971.3122339581
0	21435	945153.697424885098	871.15057552727
0	21443	945345.081388653918	5978.1985023972
0	21464	946891.700620207122	2519.5861381483
0	21470	947687.900339539524	3211.4067291914
0	21487	948470.969240646512	4358.0870617438
0	21496	949149.946000343842	6986.4867278034
1	1167	62358.96674993697	0
1	1176	63372.07264912672	0
1	1194	64137.054389707489	590.65105659627
1	1202	64194.010638655252	353.03836395577
1	1208	64737.732176782217	860.02602543497
1	1244	66487.004675900693	119.35924632627
1	1265	67330.066762180605	839.4018065484
1	1277	67500.858581452066	725.04110046925
1	1282	67557.03048931407	709.10139804533
1	1290	67979.068299646226	889.76157335485
1	1296	68285.853034774558	911.64673349878
1	1301	68608.623255652565	873.98330706355
1	1336	70050.979715808407	845.77232500956
1	1381	71099.339040858666	59.963011150612
1	1412	73630.169423831456	379.58398883176
1	1427	74357.321510409235	1089.1887489012
1	1432	74659.748390484616	1385.912977403
1	1443	74960.296961651155	1078.4709076922
1	1449	75035.82430136537	910.74388138651
1	1457	75534.493499995963	1339.6073965274
1	1466	76074.163592565135	1350.4766277282
1	1475	76983.180443417661	2052.1874656143
1	1480	77225.125932561351	1274.8873487832
1	1486	77391.233241232253	1176.0406871498
1	1523	78950.434879836403	825.69558907038
1	1534	79201.833964844776	942.31847562373
1	1542	79474.095037759783	440.74994362499
1	1548	79595.54614265908	403.86360699794
1	1575	80633.90138415034	1193.1730106164
1	1590	81208.723006353048	1594.7643179381
1	1598	81522.71755825176	1049.5811937269
1	1609	81720.208586074575	1097.1921285294
1	1615	82075.045463976198	1287.1168406452
1	1623	82087.638948736731	467.30107745925
1	1631	82361.68251733776	738.684476843
1	1675	83997.735305646625	1122.4927229462
1	1681	84159.893507585048	957.30512304975
1	1692	84747.971394627346	1115.2079480592
1	1701	84920.115660196587	1087.694106529
1	1706	84933.931586772881	160.9145521047
1	1718	85502.853503528179	372.0970183687
1	1726	85705.818933289715	111.65092463521
1	1751	86842.235323240505	386.4979901991
1	1787	88399.18748131069	88.459642988134
1	1824	89635.550306655649	8.220079124913
1	1854	90819.492821500308	74.905647834034
1	1867	91109.548316651654	7.583869121211
1	1875	91447.992267612152	252.96704776354
1	1887	91816.431819832903	218.70754789211
1	1892	92129.675037339289	524.13078236477
1	1914	92818.909123275708	8.25368517585
1	1925	92878.722189089564	31.118268263292
1	1940	93148.329460619555	284.13923296275
1	1951	93586.19104670402	506.56792487498
1	1956	93611.723289166926	508.82760473859
1	1998	94689.437339171928	52.657804018705
1	2006	95114.733812032218	53.333655520882
1	2037	96278.039091039656	66.247426538312
1	2071	97793.021198501764	507.71441196415
1	2104	98726.491101152135	444.4350816226
1	2110	99042.411095648262	329.36697847333
1	2118	99065.151705622896	344.24337892904
1	2130	99783.457355169248	303.9332649151
1	2159	100309.066443571009	133.59272496332
1	2164	100439.998941214711	256.74242758318
1	2181	100988.984933398559	160.60650513678
1	2202	101354.726967707497	326.33970383966
1	2217	102262.566929860178	1103.4819408869
1	2222	102630.559145613197	1334.8395204267
1	2228	103223.153623145145	1734.3052543264
1	2240	103942.964519405554	2289.5690133929
1	2281	106043.762640100907	342.04050155478
1	2289	106273.333635692392	157.04605175904
1	2361	108215.55723014168	195.47482693656
1	2375	108592.804683780284	338.03441377674
1	2393	108938.211240149786	452.28943942995
1	2406	110294.108646135131	1682.0190239762
1	2411	110400.921506409504	1600.5933228962
1	2416	110429.772561626586	1533.5995119229
1	2424	110453.401469946885	429.2814472662
1	2429	110568.955043046117	128.66879150488
1	2448	111368.962384523707	194.28238568621
1	2466	112020.624996584205	491.54400080052
1	2471	112406.143842183211	603.06625082969
1	2519	115830.540516944535	547.13163218541
1	2546	116607.341182766648	110.05601003436
1	2554	116701.604807901883	198.75761697996
1	2559	116761.429719154684	67.122608738323
1	2571	117129.282515247296	65.230132020293
1	2579	117285.70437225158	200.46784051123
1	2587	117481.252663301469	164.67697516075
1	2614	119000.584532973312	930.0248800722
1	2622	119159.053513500294	959.08172262595
1	2639	119696.058760630161	156.0832383113
1	2688	120869.866808384866	466.03975194243
1	2699	121070.824762559404	371.75260370286
1	2707	121377.609470303737	360.77987629623
1	2712	121437.082497171276	240.53998753186
1	2729	121649.664050244559	125.52331067305
1	2737	121784.553527879295	147.21011370295
1	2754	122047.746873261666	165.27363278945
1	2801	123737.442238735104	108.59444051172
1	2843	126206.14811411231	1387.6645324477
1	2855	126907.03400368889	1378.3400531732
1	2863	127314.913022517471	1247.6641419164
1	2872	128196.747216303007	1699.0605633879
1	2877	128222.237374094089	1411.3863639493
1	2889	128861.701232577226	1379.8517689656
1	2898	129457.453000454856	886.7002281502
1	2903	129460.199587486681	714.1148956104
1	2915	129797.483985449182	129.69261848568
1	2923	130156.199400284715	343.85893099891
1	2934	130362.204877250444	124.47349987551
1	2958	130760.406275804634	73.112310294793
1	3005	132977.449843770104	628.02544226156
1	3013	133122.133509957832	714.97517061094
1	3021	133386.225628064524	273.39329649492
1	3046	134170.114901177825	483.68180833806
1	3055	134420.479482238459	283.42144590723
1	3060	134443.777949587772	131.32888015521
1	3102	135184.728830089461	98.055775369338
1	3120	135835.20483705227	261.65794488934
1	3128	135989.417539525033	200.81371467364
1	3133	136248.40061436917	354.33550727321
1	3187	137972.086522783654	254.27399367808
1	3209	138740.472967461363	377.23752138381
1	3215	138801.467065449402	371.73031217547
1	3226	139337.097761798532	210.31681091074
1	3235	139939.083923305797	634.09742829671
1	3240	140171.955201885108	411.46197675029
1	3305	142052.136761790012	0
1	3313	142179.594206248069	98.737437249983
1	3333	142513.212120531707	86.980937558114
1	3353	143245.458748432239	304.5188461305
1	3362	143687.681962980834	125.58736710944
1	3382	144285.328854278932	318.14144562839
1	3387	144532.249248174825	450.23565051484
1	3427	146688.636879026319	229.09898006857
1	3432	146756.072088972934	203.06892608386
1	3449	147130.647305005631	63.589312563592
1	3484	148558.253634373559	966.3556418993
1	3492	148741.108309818792	358.77248576401
1	3510	149130.854693031252	111.62804442441
1	3527	149674.339127973034	405.23259841322
1	3557	151273.735579911883	989.59463828579
1	3566	151736.454737809115	1297.2476614399
1	3571	152155.907968408342	1250.4967874683
1	3577	152337.971011978509	1174.1020788176
1	3593	152574.034608192433	33.673853900833
1	3605	153294.830354116836	637.00793891964
1	3677	154552.347685534764	317.63007901522
1	3694	155454.916908150757	3.359173016166
1	3729	157323.562336338343	1414.7340579891
1	3734	157483.65256317716	825.85521273391
1	3740	157777.955537077911	877.31004217661
1	3745	158039.129108177204	893.15661171642
1	3754	158354.194399181371	35.521825416311
1	3801	160471.556940556754	0
1	3819	161804.095685071048	550.91130159582
1	3828	162002.051007353101	0
1	3842	162713.8801036842	525.52162928967
1	3848	162822.728226501116	416.20873018603
1	3856	163335.439736692821	623.96440599063
1	3865	163598.550586666209	441.62748053767
1	3885	164398.745442240597	115.77973039814
1	3894	165002.938077895344	626.49856785226
1	3926	167188.259947386554	477.86641769659
1	3940	167402.308936112278	61.215788048223
1	3948	167458.161118906608	42.087243431053
1	3963	168253.210932637337	255.81728582875
1	4011	170743.568361183663	596.80042892652
1	4026	171089.159770218503	436.89177765892
1	4048	172572.075299715057	1827.1422331582
1	4056	172744.8690812743	1845.0005420257
1	4064	173070.677931419552	2073.7956652305
1	4073	173438.135742736408	2027.5324051009
1	4078	173516.867092236943	2039.53945243
1	4086	173602.149806180463	1503.2087650977
1	4091	173712.710298975167	885.44011644576
1	4096	173730.411855644585	533.57531291539
1	4120	174644.435487250303	568.68775518299
1	4132	175001.404350269001	720.52573560927
1	4137	175061.311154571792	261.72855887548
1	4187	176750.759378064874	3.737972645113
1	4204	177272.235431461203	48.941120172344
1	4212	177418.610869501543	189.06506426222
1	4217	177451.860564151899	64.463257002461
1	4234	178018.065588010367	222.61484242754
1	4251	178594.068578479743	15.276874187371
1	4280	180139.171796430516	74.191472883004
1	4293	180737.391378327905	440.02687737998
1	4342	182465.721549018986	146.51083929492
1	4393	183914.869243702229	0
1	4401	184197.330541693663	0
1	4427	185513.448446226105	129.71094352929
1	4436	186101.834465639135	0
1	4464	188637.752419243219	1115.3887921798
1	4472	188986.270866379213	755.15023798173
1	4485	189754.048447209511	1329.4800134644
1	4496	190055.120378936102	1146.0554418351
1	4501	190065.409282101773	901.6694752905
1	4506	190241.993121739995	427.31957243274
1	4514	190455.655537894544	595.25357559225
1	4529	191075.754037511288	109.21354622234
1	4541	191402.567570472807	181.42863267531
1	4561	192388.941189233958	738.94352875755
1	4573	192937.32606570524	284.78875800815
1	4581	193205.963714906291	387.78822158022
1	4589	193373.979887449438	337.78781545593
1	4602	194289.264798002844	71.356806446092
1	4615	194620.038686010438	18.664070311478
1	4624	195090.321357201478	400.19989366049
1	4674	196901.946872501738	636.39478061717
1	4692	197226.253937278352	21.681634378014
1	4713	198113.710852749921	466.85042006686
1	4724	198364.355670670558	212.33964595087
1	4729	198522.236253910313	325.00425704488
1	4772	200378.36843270858	813.53515637783
1	4781	201066.856799964723	1381.2702898514
1	4795	201567.830120193626	1479.0621674729
1	4810	201943.484093044495	1194.6039743113
1	4815	201955.656742964351	550.78972170708
1	4820	202186.265653215926	716.89091045753
1	4825	202440.856722663373	638.35343673295
1	4850	203239.279348862	5.462136067698
1	4878	204258.416309055109	290.44683552286
1	4900	204702.964170029092	49.592623371606
1	4909	205070.170798103402	48.232706457946
1	4943	206706.219734453859	67.847068447158
1	4971	207868.55386103179	104.43154374522
1	5003	209007.612843009996	181.50761197335
1	5011	209071.588593052444	58.625122962469
1	5039	209711.090877687191	177.91047081228
1	5059	210728.598043275636	612.44666054365
1	5064	210738.228537450446	357.28357968439
1	5090	212085.251461736427	293.98356134835
1	5105	213017.438656595611	324.57898881721
1	5130	213802.694650029873	109.29158446805
1	5154	215088.267335153416	0
1	5163	215321.987782343614	168.44320244121
1	5171	215676.164601964148	28.513480160217
1	5182	215967.604787082806	143.0309917702
1	5194	216135.662181897815	269.33935030994
1	5218	216637.51337682712	263.21385144076
1	5224	216965.749669053732	330.63172935927
1	5237	217233.759575560978	0
1	5260	218236.712958370451	317.55616159297
1	5269	218672.388944994219	637.60722462777
1	5284	219063.447296848142	429.22468206274
1	5356	222218.004134698194	0
1	5365	222906.20041592376	0
1	5373	222934.375203326899	0
1	5402	224204.47345133226	644.03985592395
1	5411	224718.957299738761	843.08136353992
1	5419	224931.674592110813	752.6922613966
1	5424	224994.342087827319	687.41951659657
1	5436	225663.875116708914	457.4088197817
1	5473	226418.389533973513	0
1	5491	227848.779915052548	0
1	5508	228343.840374872908	0
1	5551	230789.94786330374	0
1	5560	231127.676544272551	0
1	5574	231275.155667151129	137.5956841837
1	5579	231481.117632267756	339.24883184123
1	5584	231739.011955797374	590.20619197811
1	5596	231977.144679102075	22.684562321903
1	5610	232852.876043885038	0
1	5618	233072.725967713931	114.2964216982
1	5643	233621.440609603303	0
1	5652	234002.355630664951	0
1	5666	234173.838171724479	135.07254339927
1	5674	234307.552728564044	232.04268306994
1	5679	234339.86914098876	183.84117176683
1	5697	235213.397354948505	495.48567258329
1	5709	235735.918530279528	356.96298706226
1	5747	237709.928373055067	913.72480901699
1	5759	238344.683422271791	1179.6928766344
1	5768	239079.982729503548	966.95218550896
1	5773	239185.346117046666	782.66001561301
1	5782	239355.474432816682	88.600696685384
1	5797	240165.601063629213	726.37976091196
1	5805	240544.140232786239	794.12979359351
1	5855	242704.491192749304	978.32511864271
1	5881	243918.820739016888	220.20364004261
1	5902	244396.14205396911	35.766387025532
1	5920	245522.657576988549	418.71124221281
1	5943	246940.818383406818	338.53160601278
1	5967	247465.260693517592	285.40927976028
1	5992	248099.393183142212	191.23058003672
1	5997	248142.349862788034	73.601028596347
1	6006	248487.23682033177	116.68364869704
1	6026	249304.824174789424	619.47896841456
1	6072	250969.600712028879	0.610601600453
1	6091	251382.72104188242	0
1	6117	252848.50184711092	213.13227334362
1	6125	253403.102246727633	0
1	6145	254078.384616429265	125.4396869264
1	6163	255031.496781913315	322.19354997275
1	6168	255049.819892541583	67.122326011555
1	6184	255349.025235161095	0
1	6195	255724.544245740068	309.8466694075
1	6218	256655.087827366249	0
1	6244	257736.280053175878	398.82984075199
1	6253	258584.146512907108	1144.5907753354
1	6262	258795.639469964293	1206.9812440568
1	6267	258936.63294840174	337.75249973276
1	6292	260101.275139926062	457.27999293509
1	6304	260477.989904985699	285.56150785174
1	6312	260866.968466401884	452.16871774691
1	6321	261605.54033863551	262.89233873367
1	6329	261702.897532847282	90.826403719351
1	6368	262816.014027157844	110.64685053183
1	6385	263348.708765981232	169.94122316693
1	6418	264460.606831779379	43.345591074086
1	6443	264933.589044960416	52.75880245415
1	6448	265216.892886827732	332.82437586579
1	6461	265481.717969257505	0
1	6476	266060.443668205362	518.14131149824
1	6481	266163.740876401072	349.98770952431
1	6504	267292.177563046828	159.09206614012
1	6521	267945.647152376635	0
1	6529	268445.925196010266	0
1	6554	269217.434968067079	0
1	6572	269928.604360130974	679.14782558534
1	6581	270166.461675417401	370.29602861185
1	6604	270849.923809405205	322.54855808238
1	6612	270925.11187238256	120.28712647398
1	6636	272381.977856149703	451.35490688459
1	6690	276351.865445864395	1785.639252011
1	6695	276397.383893237908	669.93136552558
1	6736	279187.423295935331	0
1	6745	279792.708882628057	322.22467894748
1	6753	280208.545236257774	0
1	6762	281022.405386824221	0
1	6774	281480.338073494928	153.23322632353
1	6787	281820.444955426063	0
1	6796	282079.76949162395	0
1	6807	282562.2271707397	344.23602875425
1	6819	282977.80922798973	262.91124473849
1	6893	289438.43894023757	0
1	6913	291957.01957294514	0
1	6921	292087.919967192591	0
1	6930	292566.500022210662	0
1	6938	292739.628895640519	0
1	6980	294461.569858950195	0
1	6989	294794.934880733874	0
1	7000	294858.347645600374	9.659320876994
1	7017	295657.700403605896	247.73312968324
1	7047	296708.516654313501	253.80383725649
1	7076	297807.043393015101	450.33686989719
1	7081	297906.400260494971	232.53688123211
1	7092	298220.518542558738	313.75747548368
1	7106	298593.885077097504	0
1	7124	300205.565098328805	0
1	7133	300786.705043860287	0
1	7149	301473.423642825789	447.13592352015
1	7158	301635.580345946316	37.843192171863
1	7183	302911.760712723816	33.613356578345
1	7210	305113.282779824553	0
1	7238	307620.204945271477	0
1	7246	308002.815243624252	0
1	7274	310562.724930577021	0
1	7282	311117.253917511148	0
1	7300	312718.496064839121	0
1	7309	312904.560371376691	0
1	7321	313538.965195119247	290.52758771004
1	7352	315118.804648960728	0
1	7383	317616.712722727407	1671.7043055368
1	7388	317819.199288673916	1253.9889949033
1	7393	317828.747824643112	256.967652548
1	7413	318320.800746347054	336.92922034149
1	7418	318532.626673349891	420.01056229751
1	7449	319897.063666477639	338.29471977066
1	7454	320221.34352868466	348.53391258993
1	7471	320984.416783047482	219.658532291
1	7488	321624.885389732978	35.503193823402
1	7532	324040.495631949091	0
1	7541	325205.088130463899	0
1	7578	328748.697120638096	0
1	7590	331534.570286512483	0
1	7600	333307.269391931434	0
1	7609	333924.719524520101	0
1	7617	334193.076835596937	79.858830665756
1	7626	334953.619149231534	0
1	7644	336330.529610070618	0
1	7687	338657.702122464656	846.35450649618
1	7696	339030.938917253764	0
1	7724	339915.025691208183	165.63961867614
1	7732	340152.847148063396	124.92710800311
1	7746	340593.294218647224	106.03148798231
1	7754	341101.6551686968	450.30254572697
1	7764	342288.395862255107	0
1	7798	343695.220995022618	7.202692443648
1	7806	343895.666868984065	67.961338390548
1	7814	343987.692568463811	46.628497174574
1	7826	344273.070955868224	199.27825562182
1	7874	347107.929478803745	0
1	7883	347324.645861205582	183.97711590554
1	7909	349286.557872687658	0
1	7921	349773.67926036442	268.96221498089
1	7944	351089.063562786525	0
1	7965	351822.871299538901	672.29273041093
1	7976	352487.696119273449	1124.3938640617
1	7982	352608.563307499328	886.45154312948
1	7987	352960.24683707266	1187.7774576634
1	7992	353180.293721094208	1210.1238742793
1	8020	354199.822843597587	0
1	8028	354339.625130533534	0
1	8081	355934.739696502203	451.69741025412
1	8093	356521.051469526035	229.51286744133
1	8098	356592.195381530735	260.80292779862
1	8115	357195.717942612801	329.13735064925
1	8130	357982.549633790726	754.16050513866
1	8142	358652.475495638234	1319.7376936031
1	8150	358972.617110663689	1064.0335458625
1	8161	359248.906488847913	992.08026854822
1	8167	359515.913958181469	415.84060986159
1	8207	360587.080504791368	632.16276921471
1	8213	360962.65487850931	824.35629572866
1	8221	361133.64492079786	792.63398444757
1	8257	362809.606356113697	159.00229368304
1	8266	363254.599096814091	77.005340285594
1	8318	365900.06307454813	109.68729060992
1	8336	367243.824526307958	1195.7188701509
1	8360	369117.362159650762	525.21551167216
1	8368	369701.542627584044	545.00072732084
1	8377	370119.158533843986	0
1	8385	370164.318913933364	0
1	8402	370791.386383531249	362.00627910846
1	8422	371621.685975393195	585.03454516512
1	8437	372906.648232420051	0
1	8445	373048.254702019675	0
1	8477	373929.314731149926	627.3191613969
1	8482	373949.508635168116	621.19878876706
1	8487	374083.020018588211	704.68990107268
1	8525	375871.284607155838	647.36473074561
1	8533	376025.443507597764	774.67674643536
1	8538	376155.321738772663	152.95791899081
1	8552	376686.501615820884	202.3483670865
1	8580	378690.160080994968	0
1	8601	379758.448865425511	265.71067514164
1	8622	380554.780274408765	594.46431491439
1	8627	380743.576211525174	698.90344391622
1	8632	380831.070278129557	715.86833856991
1	8641	381093.105595473227	727.75902671076
1	8652	381338.585219060324	169.7841470366
1	8663	381623.94216187175	4.74281152891
1	8688	382494.595901845103	38.552334542437
1	8724	383051.729634760252	194.45769969264
1	8732	383146.525322344234	254.22242625944
1	8744	383591.258888522727	77.60283227416
1	8788	385370.937012691026	70.973971756962
1	8813	386461.381109434776	83.96290977554
1	8833	387269.018781246909	518.68372752724
1	8838	387358.027934443159	151.62667241659
1	8876	390010.011872700715	0
1	8892	390495.721378318498	0
1	8925	392370.375494267808	80.559169995335
1	8933	392740.082584944901	384.3521844002
1	8945	393521.126777237255	1062.5056002707
1	8951	393754.072594173162	983.28098894783
1	8970	395075.787445871117	47.606496812691
1	8987	395778.516983419949	223.93177660974
1	9024	399606.006416576781	0
1	9033	400004.92004556237	0
1	9041	400276.897043052631	0
1	9059	401334.806553947851	0
1	9068	402068.419740471835	442.58513601439
1	9088	403382.227312007053	27.689150334829
1	9128	405622.592950293668	0
1	9146	406754.506481384493	0
1	9163	407516.16468107207	556.63128969215
1	9180	408148.70288274876	102.95767699394
1	9189	408786.482382132662	506.25475813802
1	9197	408906.217117082236	90.371753983468
1	9208	409146.271847329211	76.070198948225
1	9217	409899.980189476705	450.80030664874
1	9238	411375.552996606261	410.23590784963
1	9250	411813.360843445446	165.53606776485
1	9269	412472.4763814991	178.98940242721
1	9278	412645.124530823598	40.705998432168
1	9300	413017.122257076318	178.7457860389
1	9305	413185.97937069719	186.26225935056
1	9317	413578.921682711636	321.62971025105
1	9326	414141.565010543291	713.48714050562
1	9334	414709.963001962408	631.57842542606
1	9339	414748.868070950993	244.69135557412
1	9355	415821.296726592476	769.04496105835
1	9368	416177.204387593037	87.5952219738
1	9410	417441.449714493963	224.92101875303
1	9437	418093.006912787987	305.40902554222
1	9450	418365.352454337139	42.981406003765
1	9461	418468.544630856683	95.204023820204
1	9496	419839.48322609206	156.71098223594
1	9516	420830.846855508198	150.41348909911
1	9554	422369.684931926002	280.94576857403
1	9565	422891.955289893394	501.82506082377
1	9585	423960.434302651581	279.10190343519
1	9603	424694.847635105514	573.85231623648
1	9608	424786.413990356932	251.19556964135
1	9638	425580.722891689874	1.955326009368
1	9646	425654.35371344228	73.387239538467
1	9660	426552.29434404925	0
1	9677	427408.611353290935	25.875962720996
1	9698	430536.29396242585	0
1	9714	432271.572212195435	1008.2466685565
1	9719	432273.321913762876	443.03224184233
1	9734	433151.276305080044	544.0670472111
1	9742	433353.65263754021	365.47905788244
1	9754	433659.674421695799	187.32802861225
1	9789	435853.188513931091	101.42896313882
1	9802	436188.542232654392	120.75240540735
1	9817	436640.388418810433	138.74812110057
1	9825	436872.021622725913	237.22628509041
1	9834	437323.350154407355	479.47799830525
1	9856	438174.912215973913	91.028545225984
1	9886	439575.583090166426	1023.5747975283
1	9902	441170.633257134818	2458.6945369182
1	9910	441300.509631507324	2466.9534829342
1	9921	441689.413074570759	2682.3999846382
1	9927	442306.463018848992	2701.4661352585
1	9932	442346.490089821965	1094.5382305056
1	9937	442462.624004446637	1103.4208199587
1	9949	442925.089618026582	1238.4496882898
1	9972	443863.331093144984	673.90232656639
1	9978	444340.591184928129	803.78552897652
1	9990	445073.555271073489	331.60079126491
1	10035	445799.731721644578	17.865828320421
1	10047	446286.958717767342	327.81526222112
1	10078	447532.24636006396	521.76646005063
1	10121	448237.771884125589	330.93661957812
1	10127	448523.105688951533	388.53113718662
1	10148	449506.217505709743	656.69347057879
1	10153	449629.993254416346	541.19235792822
1	10158	449703.570048755706	342.30911845641
1	10191	450323.531234195643	182.44181784
1	10208	450752.211985905906	244.71130822826
1	10234	451385.830682009268	54.025407784016
1	10299	455843.881700918531	121.87794234385
1	10309	456772.554382057336	0
1	10336	459252.081133806501	0
1	10345	460023.594282279899	0
1	10353	460498.891969991863	350.19441253582
1	10375	461696.896189565131	1165.7103106475
1	10381	462337.277881825288	1283.1995700982
1	10389	462411.842019389055	731.16223442727
1	10394	462533.732339607954	155.59709025823
1	10430	463976.603649752081	110.90045726048
1	10439	464375.553028114109	0
1	10460	465336.000560916001	945.13667853248
1	10465	465468.586160615377	1059.956498701
1	10473	465535.68963353578	619.86748515162
1	10479	465939.106566539896	465.93751385124
1	10506	467207.102382579734	0
1	10515	467466.300532959051	0
1	10533	468115.750376767332	430.69311887664
1	10541	468606.760840227467	671.68669028035
1	10546	468708.493413973154	380.89352681278
1	10558	469429.400008639173	34.326380091517
1	10616	471108.272159099763	314.34529412905
1	10621	471377.174193770962	480.22371477875
1	10633	471983.952272131807	561.85785898728
1	10638	471993.216525173034	376.61819175867
1	10710	475579.445046069136	0
1	10735	476956.221275174125	0
1	10747	477159.946015850693	106.64426802202
1	10760	477426.652765799845	5.643879732445
1	10786	479137.6666196857	0
1	10795	479551.776921830572	0
1	10804	480137.912650816541	0
1	10837	480952.158897506983	0
1	10854	482168.496869716875	0
1	10864	483413.845824228809	0
1	10873	484168.836348116052	0
1	10893	485142.948966280185	4.918971545927
1	10916	486059.468860648028	512.91319940556
1	10924	486400.053616112439	0
1	10949	487357.287063908928	438.53914159784
1	10967	488887.173397094968	0
1	10994	489798.539529004418	389.96843832509
1	11005	490159.227923196427	693.52033231833
1	11010	490169.373556493763	314.80775811943
1	11051	491583.654518284422	15.722582441963
1	11067	492803.066081796386	1192.2297922369
1	11078	493021.873014458693	331.65847290321
1	11083	493047.52127293106	259.13592633306
1	11088	493283.420482637862	329.86586920025
1	11110	493847.402300473637	0
1	11118	493968.313538760749	103.36407891628
1	11127	494951.616321426812	0
1	11139	495248.753642926514	175.8859079143
1	11153	495565.496187110266	52.836822552262
1	11194	496613.930974241285	0
1	11202	496902.016439547866	266.81388611176
1	11210	496976.390546398536	42.138487851895
1	11245	498460.112539430515	342.9085583961
1	11258	498747.644951194653	74.358853274625
1	11280	499427.364931328835	132.97350675065
1	11301	500317.573820250276	593.68554041299
1	11306	500397.340033054156	308.11196351963
1	11339	501535.296265013595	217.10078736106
1	11353	502122.818318511973	155.63225416058
1	11361	502459.058539987536	82.195901830512
1	11370	502669.854983292951	0
1	11378	503064.234811587243	169.91319601175
1	11387	503478.596726660543	0
1	11404	504037.92873931822	112.83262960446
1	11412	504214.317105555201	149.59707922812
1	11435	505265.084835044488	66.815210440319
1	11468	506118.889165560676	320.89152021591
1	11487	506762.493742889123	186.14680054015
1	11525	508209.154066190152	506.83837378849
1	11530	508433.95117079836	539.17511211302
1	11572	510053.446386708956	236.17135976799
1	11580	510403.661707602914	0
1	11589	510823.24295927338	221.88405156178
1	11598	511557.430777546431	0
1	11635	513428.567086065497	185.99511995602
1	11641	513934.60862334372	560.05725867514
1	11657	514484.220500538906	0
1	11666	514854.435953608111	23.658186054764
1	11691	515623.885412065847	0
1	11704	516789.852327173932	1034.6371073804
1	11723	517444.691327196759	76.551898510316
1	11737	517744.107039503847	76.483597553006
1	11745	517863.055159139029	80.488283202937
1	11757	518756.62605487047	672.07195281088
1	11762	518855.336117606244	445.50875130018
1	11774	519469.092356733742	60.681368671747
1	11792	519981.605067263243	376.94164751588
1	11811	520589.296157895669	346.66461330789
1	11829	521296.925988783005	76.818648528258
1	11851	522070.321553102814	125.03161908058
1	11901	524388.736015519689	411.14300323271
1	11919	524614.89534882953	72.22818278122
1	11929	526095.438144494595	0
1	11938	526723.819988298338	517.79558684413
1	11963	527288.193684074981	68.46459416103
1	11979	527986.52680094443	0
1	12014	529859.690960217312	0
1	12022	529927.978987656076	20.420934231786
1	12039	530476.824735053415	0
1	12056	531191.268983111012	0
1	12066	533088.785033974495	0
1	12083	533427.260938449863	23.711436494497
1	12097	533662.795025692464	40.839410821994
1	12102	533920.142079642881	266.06795017091
1	12132	534292.370211009422	12.803778717048
1	12150	535628.269943891134	0
1	12176	537364.060248741731	0
1	12193	537972.824697839019	0
1	12204	540449.320188134673	0
1	12213	540922.223449821026	157.18808278734
1	12222	541572.865269428011	0
1	12252	543245.186109644741	600.59579108208
1	12257	543271.094398787607	307.72391816839
1	12269	544081.434715197641	971.23917618151
1	12274	544109.530290618769	981.61491397163
1	12279	544391.248609674376	1039.0762998374
1	12301	545953.72636475609	911.79467774277
1	12313	546179.865895458709	279.55616978931
[...]
7	15806	701091.7277794197	5
7	15809	701112.111687533843	4
7	15813	701373.035038335829	3
7	15820	701754.412999177105	4
7	15824	701803.455489202193	3
7	15829	702035.002425061859	4
7	15834	702130.260276506403	5
7	15839	702342.22360282559	6
7	15864	702776.748001975674	5
7	15881	703760.045183911185	4
7	15885	703941.315603486478	5
7	15889	704077.170709001308	4
7	15917	705704.868947368559	3
7	15928	706905.54366440785	4
7	15933	707477.423928278941	3
7	15941	707541.374212312735	2
7	15949	707743.292824959026	1
7	15962	708439.152823095845	2
7	15976	709496.412840041949	3
7	15979	709559.008252478638	2
7	15999	710505.396742187297	1
7	16003	710598.580188508228	2
7	16008	710612.782093872253	3
7	16013	710631.670898068333	4
7	16017	710776.251411448854	3
7	16029	711191.342063218958	2
7	16042	711876.131379700063	3
7	16053	711933.86115508142	4
7	16058	711993.058149616136	5
7	16062	712136.340187806455	4
7	16067	712651.317956571392	5
7	16085	713272.781709329293	4
7	16092	713444.447063617582	5
7	16096	713481.139878015423	4
7	16100	713615.103592085248	5
7	16109	713638.848729824112	4
7	16125	713942.342863425913	3
7	16128	713960.491960900875	2
7	16135	714274.719071714249	1
7	16142	714612.594375283886	2
7	16147	714635.656949005067	3
7	16152	714651.420157723112	4
7	16157	714756.663405068102	3
7	16176	715610.999927111784	4
7	16181	715644.614940503308	5
7	16186	715890.670803157336	6
7	16202	716528.669548379024	5
7	16206	716598.163243488714	6
7	16223	716878.207812894682	7
7	16229	717285.487781301903	8
7	16234	717446.53566344148	9
7	16238	717471.781544006342	8
7	16242	717584.422544950721	9
7	16246	717682.407859823423	8
7	16253	718070.181547320065	7
7	16259	718122.29921424963	6
7	16263	718133.243403145742	7
7	16267	718143.972742439709	6
7	16270	718312.378132355322	5
7	16274	718359.816596033558	6
7	16278	718473.677913902814	5
7	16285	718483.29410469131	6
7	16290	718580.959192797802	5
7	16294	719301.580620893285	4
7	16298	719573.055172731914	5
7	16305	719737.983008037301	4
7	16314	719990.318634729966	5
7	16324	720181.853079671172	4
7	16341	720668.027224639254	5
7	16354	720837.712914902575	4
7	16362	721094.885054715334	3
7	16370	721538.258149164248	4
7	16374	721660.638914792932	3
7	16377	722046.19214925219	2
7	16380	722179.261857532934	1
7	16391	722410.214107441818	2
7	16396	722513.926698828483	3
7	16401	722875.403312520314	4
7	16411	723598.333239851557	3
7	16428	724086.494947623506	2
7	16438	724731.077486378601	3
7	16442	725118.635649001199	2
7	16465	725530.934543218245	3
7	16511	726500.74508669624	2
7	16515	726695.046751387046	3
7	16521	727055.496290027158	4
7	16530	727252.59635301484	3
7	16534	727653.347185927518	2
7	16561	728198.809856528385	3
7	16570	728497.076955527354	4
7	16572	728625.112336573417	3
7	16586	728817.974700449765	4
7	16595	729323.858534557208	5
7	16597	729749.231910246149	4
7	16613	731161.473376015823	5
7	16616	731263.063774598821	4
7	16624	731901.571508069716	3
7	16633	732112.618193009602	2
7	16641	732689.418646454497	1
7	16646	732767.911079207258	2
7	16655	732832.080005893251	1
7	16674	734284.358276229258	2
7	16676	734730.906028817864	1
7	16691	735303.875327909224	2
7	16693	735454.875102616911	1
7	16707	735935.758391377254	0
7	16711	736193.187596218884	1
7	16725	736583.416813301363	2
7	16734	737443.19651974822	3
7	16736	737525.700092160167	2
7	16750	738592.782488666625	1
7	16754	738721.011211590299	2
7	16763	739553.513374548605	1
7	16770	740569.499267885527	0
7	16783	741274.172342461569	1
7	16788	741493.432387859482	2
7	16796	741571.197699959021	3
7	16801	741740.156148056517	4
7	16806	741865.686325699533	3
7	16818	742310.522374323844	4
7	16839	743437.800810400359	5
7	16843	743634.158265966124	4
7	16847	744156.576776342071	3
7	16850	744207.068132954257	2
7	16857	744373.259741648498	3
7	16865	744597.405073837463	4
7	16870	744693.147722012289	5
7	16875	744717.263591744752	6
7	16885	744879.247916555812	5
7	16893	744929.353717326596	4
7	16896	745124.636000547676	3
7	16899	745415.395632236342	2
7	16908	745814.748521559985	1
7	16927	746872.22048911766	2
7	16932	747119.895283132343	1
7	16936	747289.402171328348	2
7	16941	747499.23742505134	3
7	16954	747872.016788685084	2
7	16957	747998.966765680599	1
7	16966	748324.589944443582	2
7	16979	748698.454182688679	1
7	16988	748846.255572757066	2
7	17022	751193.179780909423	3
7	17027	751231.404313536177	4
7	17035	751820.034474958494	3
7	17038	751964.549487543179	2
7	17050	752228.260022448891	3
7	17056	752313.963995113337	4
7	17071	752556.832478647035	3
7	17075	752692.252981540147	4
7	17081	753239.443585836834	5
7	17085	753322.488557154059	4
7	17097	753848.515414216108	3
7	17101	754149.166789489983	4
7	17119	754765.762397878563	3
7	17127	754975.199746929838	2
7	17142	755390.786958945669	3
7	17144	755802.975867012048	2
7	17154	756786.240250611721	1
7	17171	757311.752457092734	2
7	17176	757393.204116681363	3
7	17179	758101.68380112818	2
7	17195	759098.088752768042	3
7	17198	759873.245642170985	2
7	17203	759878.84835235565	1
7	17215	760051.131452429401	2
7	17232	761062.719128029681	3
7	17237	761193.783693071288	4
7	17240	761994.25389065742	3
7	17250	763330.742203234917	2
7	17266	764480.412490078571	3
7	17274	764856.557398454783	4
7	17277	765457.123035493018	3
7	17292	765866.326939677197	4
7	17294	766116.403817095257	3
7	17308	766409.953174126365	4
7	17317	766546.85734155612	5
7	17319	766660.661064646421	4
7	17333	766931.041293536023	5
7	17335	767115.040545211912	4
7	17344	767282.421063264176	3
7	17358	767613.4014195105	4
7	17366	767655.774479948503	5
7	17369	768278.64244958978	4
7	17377	768368.062079417539	3
7	17382	768456.705199243007	2
7	17399	768962.208424545208	1
7	17406	769129.72999907596	2
7	17411	769654.207264848573	1
7	17421	770210.722140127506	2
7	17426	770248.041378297856	3
7	17434	770674.429542110271	2
7	17438	770736.469910950819	3
7	17442	770900.090973138506	2
7	17450	771182.721950085982	3
7	17455	771675.427324828374	4
7	17479	772948.040788243157	3
7	17495	774618.748175854659	4
7	17497	774736.155858228432	3
7	17503	774911.906852255842	2
7	17521	775548.637348780623	3
7	17533	776556.066673660519	4
7	17541	776773.184840475373	5
7	17546	776790.043297348301	6
7	17554	777712.497309790114	5
7	17559	777832.260297402598	6
7	17572	778011.518767742496	7
7	17574	778080.665961123379	6
7	17582	778389.972881493533	5
7	17588	778529.914853723107	4
7	17591	778866.700381021611	3
7	17610	780661.684250643674	2
7	17615	780957.616773237966	3
7	17623	780995.992401903067	4
7	17635	781634.538935492724	5
7	17640	781766.280929359697	6
7	17650	782217.642925193238	5
7	17654	782233.336765593653	6
7	17664	783381.306494651498	7
7	17669	783534.743067302816	8
7	17674	783563.267983474213	9
7	17678	783727.700674302225	8
7	17683	783752.935245724742	9
7	17705	784385.30079587312	8
7	17710	784675.583834153804	9
7	17728	785554.347723370996	8
7	17733	785570.103357178781	7
7	17736	785678.961322135087	6
7	17749	786011.648197768779	7
7	17767	786429.717002025154	8
7	17770	787084.329317482075	7
7	17779	787599.246307026216	6
7	17784	788002.326658669795	5
7	17793	788369.945725994246	4
7	17801	788825.906240568473	3
7	17820	789637.192244922232	4
7	17825	789801.747768022567	3
7	17829	789893.173267071736	4
7	17834	790207.399535291665	5
7	17853	790903.871283215181	6
7	17855	791232.958064956048	5
7	17861	791367.79769971368	4
7	17869	791876.620175744817	3
7	17872	791885.688457383003	2
7	17892	792907.20935575185	3
7	17899	792970.49996959023	2
7	17903	793271.617964669746	3
7	17908	793292.17823587283	4
7	17921	794384.109507038145	5
7	17926	794386.593652710015	6
7	17931	794403.720085809576	7
7	17943	794667.587298534537	6
7	17951	794689.074854992904	5
7	17954	794916.299661447972	4
7	17958	794967.193712154215	5
7	17981	796183.566519547725	6
7	17988	796449.078421891781	5
7	17994	796496.430385273586	4
7	17998	796531.221989184241	3
7	18002	796535.63673002507	4
7	18007	796762.850849330866	5
7	18012	796782.024779314501	6
7	18025	797158.006140296591	7
7	18035	797368.822228475069	6
7	18048	797711.798513429145	5
7	18064	798040.841107314681	6
7	18069	798057.577337049446	7
7	18073	798061.44037618554	6
7	18082	799032.837918313166	5
7	18094	799276.214668879212	6
7	18114	800311.44579677061	7
7	18116	800419.183559935091	6
7	18124	800581.785164582062	5
7	18127	800641.477139723841	4
7	18134	801629.19098081411	3
7	18147	802083.860892131028	4
7	18152	802252.740881712268	5
7	18157	802465.041854601902	6
7	18161	802467.660733556999	5
7	18168	802512.684367536345	4
7	18171	802890.112967077411	3
7	18174	802898.805271288438	2
7	18183	802920.65681900998	3
7	18200	803227.81290044768	2
7	18210	803910.382584554128	3
7	18215	804108.724265289303	2
7	18233	804618.380576775504	1
7	18251	806864.361476180774	2
7	18256	807049.137512802735	1
7	18260	807230.623558839742	2
7	18286	808359.433759063845	1
7	18291	808518.83831603438	2
7	18296	808592.413708669687	3
7	18303	808887.781601423927	2
7	18313	809538.500959647019	3
7	18330	810646.829666231885	4
7	18336	810827.775104595602	5
7	18338	810850.093460820001	4
7	18356	811521.078010857476	5
7	18361	811734.93417434392	6
7	18368	812082.630402286401	5
7	18376	812393.224504301665	6
7	18387	812554.466533001853	7
7	18394	812679.148141811928	6
7	18397	812974.866662965305	5
7	18401	813081.014838219063	4
7	18408	813335.418629536996	5
7	18417	814406.920918575144	6
7	18422	814416.923586831951	7
7	18430	814751.982363114913	6
7	18434	814911.49354349575	7
7	18438	815168.867876726044	6
7	18442	815302.329180958789	5
7	18445	815515.500983110032	4
7	18449	815581.878936814304	5
7	18453	815732.730923076664	4
7	18457	815746.566439188643	5
7	18461	815821.145314293539	4
7	18465	816096.291215803865	3
7	18468	816341.880649237218	2
7	18488	817029.477161802571	1
7	18492	817110.012952275201	2
7	18496	817199.43622756493	1
7	18500	817350.683500035734	2
7	18514	817644.016094380884	3
7	18518	817727.485055303475	2
7	18561	819523.556839261809	3
7	18565	819525.345986143564	2
7	18569	819716.639126197193	3
7	18575	819764.602980393611	4
7	18583	819948.33646405033	5
7	18591	820450.696451351273	6
7	18595	820454.83385414176	5
7	18599	820791.241359338041	4
7	18602	820811.188126672986	3
7	18605	820852.707648761212	2
7	18608	820917.680887787293	1
7	18612	820936.778794349525	2
7	18617	821279.385420364442	1
7	18642	821809.817411994636	2
7	18647	821941.095696199843	3
7	18657	822546.821110790317	2
7	18676	822979.678115933541	1
7	18684	823118.056191774963	0
7	18697	824006.357911081792	1
7	18737	826108.312463451637	2
7	18741	826125.474789045992	1
7	18745	826157.030597224924	2
7	18750	826244.239775413134	3
7	18755	826449.62118155108	4
7	18769	826675.738604266936	5
7	18778	826875.288662904404	4
7	18792	827289.943281518683	3
7	18798	827404.889083760674	2
7	18810	827832.824614618066	3
7	18815	827893.411458133064	4
7	18832	828752.145940004169	3
7	18836	828934.860139783394	4
7	18843	829271.354464864678	3
7	18847	829474.716799244554	4
7	18853	829763.845453614049	5
7	18871	831009.460353267108	6
7	18879	831249.685976750462	7
7	18884	831326.040445962861	8
7	18894	831882.31823431618	7
7	18909	832718.269261407304	6
7	18919	833506.882686682366	5
7	18931	833943.00353315213	6
7	18943	834490.211501135612	7
7	18948	834791.078070485756	6
7	18955	834869.11404652678	7
7	18963	835282.397509642684	8
7	18970	835391.876920943459	7
7	18974	835432.168378154793	8
7	18980	835629.395259414172	9
7	18985	835651.091422512938	10
7	18992	836077.320435400276	9
7	18995	836089.036621929593	8
7	19000	836262.339675185219	9
7	19004	836721.403749216373	8
7	19008	836805.714038815349	9
7	19012	836895.649735778473	8
7	19016	837099.825550880647	7
7	19020	837262.574675089292	8
7	19025	837310.681582590237	9
7	19046	837762.521088726366	8
7	19050	837864.733970496346	9
7	19055	837976.597653536109	10
7	19059	838030.69867754162	9
7	19067	838324.289965897406	8
7	19087	838550.930068567906	7
7	19094	838910.138138910645	8
7	19098	838968.818600866817	7
7	19102	838986.114713206128	8
7	19106	839066.965829875434	7
7	19113	839255.001377891914	6
7	19117	839300.555399049597	7
7	19121	839418.619218309157	6
7	19125	839498.360394364348	7
7	19139	839791.158607758018	6
7	19148	840163.66611744446	5
7	19156	840397.501592656881	4
7	19206	841749.137283474548	3
7	19233	843058.594843037274	4
7	19238	843200.344139337961	5
7	19245	843454.605600981238	4
7	19253	843585.01530325469	3
7	19266	844047.136558977741	4
7	19271	844068.662535110659	5
7	19282	844555.454906695545	4
7	19285	844931.517857941473	3
7	19294	845145.019701703762	4
7	19303	845305.836765546093	5
7	19308	845387.107984612052	6
7	19320	845624.437477345553	5
7	19329	846248.050998229381	4
7	19343	846721.652811131729	5
7	19355	846962.70533894176	6
7	19361	847668.453620187733	7
7	19363	847871.036046058575	6
7	19368	847936.096272344824	5
7	19380	848549.015896249862	4
7	19388	848882.466444408627	3
7	19394	849179.629881277082	2
7	19406	849666.540263731674	3
7	19420	849824.368001419755	4
7	19427	850235.81828137383	3
7	19430	850256.543763615582	2
7	19434	850314.687201582335	3
7	19444	850553.709017058011	2
7	19455	850801.206353198642	1
7	19462	851043.411108811919	2
7	19467	851167.921932682589	3
7	19481	852152.788915246392	2
7	19490	852244.580614996457	3
7	19494	852418.146212262973	2
7	19497	852418.442213396047	1
7	19521	853994.96235904529	2
7	19530	854575.452839275042	3
7	19539	855016.80942632099	4
7	19541	855085.145784689646	3
7	19556	856476.045919432396	4
7	19559	856566.130485014128	3
7	19567	856947.317375253032	2
7	19572	856952.177552100513	1
7	19579	857277.294944645076	0
7	19588	857612.370801884987	1
7	19602	858784.605564357997	0
7	19616	859467.10326782579	1
7	19628	862428.332478249859	2
7	19637	862679.544340187687	3
7	19645	863014.537948162181	4
7	19653	863858.551583862339	3
7	19658	864146.285335703241	4
7	19665	864448.115890605115	3
7	19673	864643.637355503572	2
7	19679	865237.996645662054	1
7	19692	865614.100876727825	2
7	19705	866071.518392732739	3
7	19714	866703.340205943317	4
7	19726	867637.150361545845	5
7	19732	868011.879582835422	6
7	19734	868222.053746298637	5
7	19749	868848.478979826617	6
7	19758	869489.707636741162	7
7	19761	870217.481692857401	6
7	19779	871040.957755262846	7
7	19783	871132.396600941792	6
7	19789	871178.762281177336	5
7	19792	871189.591954917474	4
7	19796	871442.276404754573	5
7	19802	871568.258590016974	6
7	19820	872168.559770060577	7
7	19824	872244.418930507361	6
7	19840	872916.882977740364	7
7	19845	873035.431523622233	6
7	19849	873219.027049779171	7
7	19853	873285.513440114855	6
7	19856	873695.440029055182	5
7	19870	874261.582615371707	4
7	19877	874526.732661357503	3
7	19899	875469.189545903934	4
7	19904	875725.448352302066	5
7	19909	875789.437061282352	6
7	19914	876447.780906143026	5
7	19921	876728.270878719181	6
7	19927	876824.608073879144	7
7	19932	877043.634235596347	8
7	19936	877177.659647151527	7
7	19939	877267.867114756818	6
7	19957	878513.454900182741	5
7	19960	878533.066668932093	4
7	19963	878548.994734724604	3
7	19971	879316.492730778983	4
7	19976	879369.168543552449	5
7	19993	880412.834186043955	6
7	20002	880635.886029356928	7
7	20007	881145.971886786812	8
7	20012	881393.443904558348	7
7	20020	881651.487988338711	6
7	20037	882065.991535963025	5
7	20040	882133.34361643524	4
7	20043	882160.110259865979	3
7	20047	882758.444238536066	2
7	20064	883301.60975399433	1
7	20067	883432.321704262028	0
7	20072	883535.024711873234	1
7	20077	883658.386460220994	2
7	20082	884042.171673285539	3
7	20090	884400.739741755091	2
7	20093	884414.210170961938	1
7	20097	884538.248187506053	2
7	20103	885106.698084846843	3
7	20108	885787.87324311901	2
7	20120	886490.746429501085	3
7	20137	887334.216893341883	2
7	20141	887583.955063382175	3
7	20145	887798.189968689586	2
7	20150	888017.256458419816	3
7	20195	888980.385172805286	2
7	20198	889120.894470526785	1
7	20222	890791.893767360909	2
7	20232	891087.660861883475	1
7	20261	893030.557298534984	2
7	20270	894233.483901887466	1
7	20277	894472.885388419375	2
7	20282	894688.447524827224	3
7	20303	895914.792112108912	4
7	20310	895970.596975290817	3
7	20314	896121.349479669584	4
7	20320	896559.321420521969	5
7	20325	896627.429174779444	6
7	20341	897214.478316635864	5
7	20348	898399.060657660928	4
7	20353	898729.122350181874	5
7	20360	899160.484182225863	4
7	20368	899610.636128264315	5
7	20373	899639.625336615329	6
7	20377	899769.358368761749	5
7	20383	899872.7271410261	4
7	20388	900101.836767363839	5
7	20393	900306.619207888198	6
7	20398	900580.523778090433	7
7	20421	901732.753046416611	8
7	20425	901856.773019180539	7
7	20428	901871.410975552046	6
7	20431	901942.336239526409	5
7	20435	902154.949410505805	6
7	20445	902319.045371667678	5
7	20457	902588.935288441276	6
7	20461	902591.302052945524	5
7	20464	902724.304755564718	4
7	20477	902932.199510574887	3
7	20498	903492.31709944968	4
7	20502	903528.055714414068	3
7	20506	903764.160417396069	2
7	20510	904711.159877805791	1
7	20514	904845.452305509184	2
7	20530	905192.894654992228	3
7	20536	905422.815623980794	4
7	20540	905511.944445333502	3
7	20548	905922.88737926194	2
7	20573	907962.743753007193	3
7	20597	908345.435098296222	4
7	20602	909028.997562182636	3
7	20616	909334.159711389734	2
7	20625	909542.655709163528	1
7	20634	910590.703153303753	2
7	20639	910733.804826245375	3
7	20644	910789.634444453049	4
7	20648	910890.425980877228	3
7	20663	912012.117522681566	4
7	20668	912092.029689988251	5
7	20676	912272.823623233069	6
7	20680	912485.778310647664	5
7	20688	912763.42684922074	6
7	20693	912776.146267053543	7
7	20697	912968.122306318629	6
7	20701	912976.029077336882	7
7	20705	912985.879744915752	6
7	20708	913074.422000755251	5
7	20713	913521.626579278678	6
7	20717	913715.963746874466	5
7	20720	913757.07248564772	4
7	20726	913993.298969491626	3
7	20735	914225.650720271418	4
7	20750	914775.72057334529	3
7	20763	915325.226282822068	4
7	20767	915333.002963158713	3
7	20792	916634.870016664794	4
7	20797	916655.470258588553	5
7	20802	917033.38277805536	6
7	20816	917447.891321658917	7
7	20820	917637.22688407731	6
7	20834	918546.248728165895	5
7	20846	918657.396326351567	6
7	20853	918670.060372017739	5
7	20861	918745.023153091672	4
7	20865	918973.54663332435	3
7	20869	919132.592513584054	4
7	20873	919449.826358462849	3
7	20888	920029.31958843613	2
7	20892	920171.098987188054	3
7	20898	920340.269970030637	4
7	20912	920715.605081068255	3
7	20937	921007.008005763286	2
7	20940	921105.3074755897	1
7	20950	922153.136038505209	2
7	20955	922283.714007737466	3
7	20980	923191.903804151373	2
7	20992	923767.704060085408	1
7	21010	924224.369164145597	2
7	21015	924279.188891377608	3
7	21018	924904.690743134383	2
7	21027	925621.317595171543	1
7	21033	925725.709837525428	0
7	21049	926467.190451038876	1
7	21054	926962.905917556506	2
7	21063	927245.253960509332	3
7	21068	927269.4294357539	4
7	21073	927272.661688315454	5
7	21077	927365.304424072179	4
7	21085	927473.996302687082	3
7	21098	928088.924571666976	4
7	21117	929289.257343402038	3
7	21121	929402.63427357983	4
7	21125	929535.367151185375	3
7	21139	931522.069298899805	2
7	21153	931844.078589263433	3
7	21163	933476.5711153568	4
7	21166	933816.46665348006	3
7	21180	934428.603107820856	4
7	21183	934531.756799329029	3
7	21197	935074.097360803959	4
7	21205	935289.075491640868	3
7	21209	935516.596600501462	4
7	21222	935867.703089239958	5
7	21230	936120.63369297381	4
7	21233	936144.320222016491	3
7	21240	936685.840446280109	4
7	21245	937288.445296009431	3
7	21252	937468.076161496385	4
7	21257	937708.668591858045	3
7	21264	938123.684870397034	4
7	21269	938406.806153548064	3
7	21272	938831.943847365733	2
7	21277	939055.092472756552	3
7	21289	939471.290751775178	2
7	21292	939646.853205315977	1
7	21297	939822.937583178184	2
7	21304	939956.851008676593	1
7	21313	940065.727067331418	2
7	21333	941554.307108578376	3
7	21348	942158.64670736671	2
7	21360	942338.94498159348	3
7	21364	942537.942324260063	2
7	21386	943455.115143147903	1
7	21401	944232.520156001507	2
7	21416	944615.666069537657	3
7	21421	944921.241492041611	4
7	21427	945073.828827707734	5
7	21429	945108.695197534199	4
7	21437	945282.976612721706	3
7	21452	946370.807624014165	4
7	21455	946759.332751629439	3
7	21460	946831.650546495696	2
7	21478	947942.804713833256	3
7	21481	948448.558143739623	2
7	21489	948715.147222572256	1
