file 384124 1483967556                                          
version 2
run QueueMeasurement-78-20170109-14:12:35-5901
attr configname QueueMeasurement
attr datetime 20170109-14:12:35
attr experiment QueueMeasurement
attr inifile queueStudy.ini
attr iterationvars ""
attr iterationvars2 $repetition=78
attr measurement ""
attr network controltower.SimNetwork
attr processid 5901
attr repetition 78
attr replication #78
attr resultdir results
attr runnumber 78
attr seedset 78
param SimNetwork.a.parkingLot.parkingDelay exponential(45min)
param SimNetwork.a.runway.landingTime exponential(5min)
param SimNetwork.a.runway.takeoffTime exponential(5min)
param SimNetwork.a.runway.throughputCheckInterval 12.5min
param SimNetwork.wg.interArrivalTime exponential(12.5min)

vector 7  SimNetwork.a.parkingLot  parkingOccupancy:vector  ETV
attr source  parkingOccupancy
vector 2  SimNetwork.a.landingQueue  queueLength:vector  ETV
attr source  queueLengthSignal
vector 1  SimNetwork.a.landingQueue  queueTime:vector  ETV
attr source  queueTimeSignal
vector 4  SimNetwork.a.takeoffQueue  queueLength:vector  ETV
attr source  queueLengthSignal
vector 5  SimNetwork.a.runway  landedThroughput:vector  ETV
attr source  landedThroughputSignal
vector 6  SimNetwork.a.runway  tookoffThroughput:vector  ETV
attr source  tookoffThroughputSignal
vector 3  SimNetwork.a.takeoffQueue  queueTime:vector  ETV
attr source  queueTimeSignal
vector 0  SimNetwork.wg  responseTime:vector  ETV
attr source  responseTimeSignal
0	1435 49373 1224 20711 62224.652235450587 949170.586148940575 1140 276.69982739015 35191.556242631 7904955.1096034 82850684659.553
1	50808 45525 1199 20713 61211.385173584888 949170.586148940575 1150 0 2887.3455491707 392883.2185022 354355930.15043
2	96333 67569 1199 20735 61211.385173584888 950363.923080011557 2300 0 6 2160 4294
3	163902 45732 1221 20718 61624.550302837451 949200.3294589576 1141 0 18454.029258642 2876372.2444561 23510690660.196
4	209634 67696 1210 20731 61422.963116816706 949927.332749343095 2291 0 32 9779 130681
5	277330 19569 1212 20733 61500 950250 1186 0 6 1152 2378
6	296899 19569 1212 20733 61500 950250 1186 0 6 1140 2536
7	316468 67656 1197 20730 61211.385173584888 949927.332749343095 2301 0 11 9500 49130
