file 428653 1483967558                                          
version 2
run QueueMeasurement-82-20170109-14:12:38-5905
attr configname QueueMeasurement
attr datetime 20170109-14:12:38
attr experiment QueueMeasurement
attr inifile queueStudy.ini
attr iterationvars ""
attr iterationvars2 $repetition=82
attr measurement ""
attr network controltower.SimNetwork
attr processid 5905
attr repetition 82
attr replication #82
attr resultdir results
attr runnumber 82
attr seedset 82
param SimNetwork.a.parkingLot.parkingDelay exponential(45min)
param SimNetwork.a.runway.landingTime exponential(5min)
param SimNetwork.a.runway.takeoffTime exponential(5min)
param SimNetwork.a.runway.throughputCheckInterval 12.5min
param SimNetwork.wg.interArrivalTime exponential(12.5min)

vector 7  SimNetwork.a.parkingLot  parkingOccupancy:vector  ETV
attr source  parkingOccupancy
vector 4  SimNetwork.a.takeoffQueue  queueLength:vector  ETV
attr source  queueLengthSignal
vector 3  SimNetwork.a.takeoffQueue  queueTime:vector  ETV
attr source  queueTimeSignal
vector 0  SimNetwork.wg  responseTime:vector  ETV
attr source  responseTimeSignal
vector 5  SimNetwork.a.runway  landedThroughput:vector  ETV
attr source  landedThroughputSignal
vector 6  SimNetwork.a.runway  tookoffThroughput:vector  ETV
attr source  tookoffThroughputSignal
vector 2  SimNetwork.a.landingQueue  queueLength:vector  ETV
attr source  queueLengthSignal
vector 1  SimNetwork.a.landingQueue  queueTime:vector  ETV
attr source  queueTimeSignal
0	1435 55300 1248 22859 61383.071033423537 950351.195725705425 1276 377.31867180691 33842.143935645 10435327.191206 119104745218.1
1	56735 52825 1263 22835 62341.351729423232 949499.598904600911 1277 0 3098.1213974367 572362.13262495 577880068.40648
2	109560 75222 1257 22835 62136.019284828329 949499.598904600911 2554 0 8 2851 6545
3	184782 53407 1245 22861 61366.332887841319 950351.195725705425 1277 0 17134.846177593 4610783.6797215 39806499204.024
4	238189 75872 1243 22861 61366.332887841319 950351.195725705425 2556 0 35 16516 271570
5	314061 19633 1250 22857 61500 950250 1186 0 7 1278 2852
6	333694 19633 1250 22857 61500 950250 1186 0 7 1275 3135
7	353327 75326 1242 22854 61366.332887841319 950043.844012819739 2556 0 12 11620 62978
