version 2
run QueueMeasurement-24-20170105-15:37:00-4535
attr configname QueueMeasurement
attr datetime 20170105-15:37:00
attr experiment QueueMeasurement
attr inifile queueStudy.ini
attr iterationvars ""
attr iterationvars2 $repetition=24
attr measurement ""
attr network SimNetwork
attr processid 4535
attr repetition 24
attr replication #24
attr resultdir results
attr runnumber 24
attr seedset 24
param SimNetwork.a.parkingLot.parkingDelay exponential(45min)
param SimNetwork.a.runway.landingTime exponential(5min)
param SimNetwork.a.runway.takeoffTime exponential(5min)
param SimNetwork.a.runway.throughputCheckInterval 12.5min
param SimNetwork.wg.interArrivalTime exponential(12.5min)

vector 7  SimNetwork.a.parkingLot  parkingOccupancy:vector  ETV
attr source  parkingOccupancy
vector 4  SimNetwork.a.takeoffQueue  queueLength:vector  ETV
attr source  queueLengthSignal
vector 3  SimNetwork.a.takeoffQueue  queueTime:vector  ETV
attr source  queueTimeSignal
vector 0  SimNetwork.wg  responseTime:vector  ETV
attr source  responseTimeSignal
vector 5  SimNetwork.a.runway  landedThroughput:vector  ETV
attr source  landedThroughputSignal
vector 6  SimNetwork.a.runway  tookoffThroughput:vector  ETV
attr source  tookoffThroughputSignal
vector 2  SimNetwork.a.landingQueue  queueLength:vector  ETV
attr source  queueLengthSignal
vector 1  SimNetwork.a.landingQueue  queueTime:vector  ETV
attr source  queueTimeSignal
0	1128	61367.041371640481	8414.8365400064
0	1182	65281.70430605866	3061.4595498544
0	1190	65655.042537055384	8497.126342162
0	1199	66098.880044545884	3120.7842064628
0	1224	67357.487752078776	9551.2027974449
0	1233	68225.422996213851	3854.4479476366
0	1269	70062.008077932177	1646.5922623468
0	1283	70656.672201582859	6887.5697132285
0	1320	72097.846311797336	5676.4309251667
0	1332	72864.921241850107	3290.0256735577
0	1348	73540.625822074385	8454.2859309391
0	1353	73923.57026377036	4070.8462350839
0	1370	74676.466273391757	2534.6552202363
0	1379	75653.437249203345	4751.3578915447
0	1388	76132.252879220646	9457.9250566738
0	1437	79713.710746306321	8119.2013932477
0	1450	79898.835145980102	9312.0164684317
0	1455	79958.458389971896	5507.7199624447
0	1460	80011.049724999611	2534.964959095
0	1466	80404.420386219909	2849.7715145223
0	1493	82564.402806751866	10441.52035179
0	1517	84259.333384770506	3674.7414730249
0	1528	84756.716147095194	3306.1735952426
0	1562	86596.46331984588	3530.9536453376
0	1570	86700.936858292579	2735.5051151992
0	1588	87947.483855258138	10069.358882987
0	1622	89897.545315966571	567.5340070906
0	1639	90475.679302177694	881.40672901274
0	1675	92712.084898604117	2734.9956348674
0	1688	92926.136909392912	2219.130807696
0	1699	93068.742122012457	7846.1520173848
0	1718	93252.272140429749	482.72160567591
0	1723	93257.784022033723	7756.6009203187
0	1732	94195.264481622843	1498.6566595399
0	1741	94530.749355857396	15939.70461592
0	1769	97076.675867008909	11552.117441416
0	1774	97104.467673013674	5316.5840559566
0	1780	97610.772111793325	10557.153347567
0	1785	97828.274022756858	8542.592082007
0	1806	99488.088887739351	6370.6454677062
0	1820	100128.409785396379	5424.343158071
0	1837	100752.938187042269	1291.1696060497
0	1853	101187.11771398514	2494.7264628749
0	1866	102324.442817942802	1872.1281153444
0	1881	104102.050482457781	3304.2407850553
0	1915	105640.134040784224	3404.4027266401
0	1933	106503.258535755454	2003.0819427012
0	1967	108632.825093954033	3697.6513551005
0	2020	111344.059526003666	4625.6440652798
0	2028	111438.777553231037	4036.0199466459
0	2062	113704.28607255089	5011.83899812
0	2078	114195.026607749164	6195.2623273921
0	2087	115290.246527958271	6112.1593284789
0	2092	115355.196497852921	10377.018040613
0	2108	116625.93488489316	7719.9566588492
0	2140	117366.031036700402	7465.1916837788
0	2150	117567.062208851914	11633.221853343
0	2155	117740.276478935089	6136.1759536247
0	2178	118449.581070646144	7094.6465025012
0	2184	118610.807315311867	6471.5442998342
0	2192	118953.790871607281	3351.1577895269
0	2222	121146.226983049948	3875.939475988
0	2230	121485.615438092142	4467.9102185742
0	2236	121521.617099259104	3692.2341149692
0	2244	121824.38848532141	3102.8046296977
0	2262	123508.088243964057	3992.959337731
0	2267	123630.10275827773	7061.3673551092
0	2324	127426.687063063901	3575.4630556579
0	2511	133658.932990421769	17296.216954719
0	2537	134691.447430901309	10793.978645308
0	2552	135126.606740883178	10269.566378397
0	2557	135190.241273507236	9153.2770452434
0	2562	135247.474130809053	7388.9450352674
0	2567	135378.144807588579	7860.2407649856
0	2572	135452.02053084504	9449.4811100348
0	2580	135493.150829641761	6046.1291161573
0	2600	136218.632102661134	5832.3861095277
0	2613	136482.571000003287	7328.7433696199
0	2622	136752.063635531166	5492.3952354353
0	2651	138336.400179271722	7116.4678367532
0	2656	138429.095501764702	7912.0443247757
0	2661	138439.17374867579	13112.617515268
0	2666	138449.513397948086	6183.4703933894
0	2680	138717.948883629882	16894.300500619
0	2729	141910.744967856205	8812.3039865606
0	2748	142715.254843583067	9303.2927040709
0	2753	142881.931804222913	11153.363069422
0	2763	144298.077280409865	10769.293965546
0	2768	144422.145341487883	11311.435344354
0	2776	144562.909076822129	12212.21767029
0	2790	144804.927819480073	13138.514699115
0	2795	144807.085979893872	13086.808968559
0	2800	144817.240020456805	8128.4336273657
0	2805	145055.167539087454	6532.761601823
0	2810	145351.007800416667	6899.8348918064
0	2815	145388.585434155153	9895.8961618419
0	2821	145513.338296083579	9503.4298963831
0	2826	145874.904978690141	8224.7388476687
0	2831	145968.961489618612	14941.420584811
0	2836	145970.946270486494	5338.9481066329
0	2841	146035.80369915951	7392.9529891019
0	2853	146476.049271937851	5772.9371687294
0	2918	149431.887111934587	2538.7141084316
0	2965	152872.939243974344	2743.6918133963
0	2994	153981.146449973746	7747.5417403611
0	3019	154855.395517477264	6740.8879745403
0	3024	155114.170356769552	5381.8973836347
0	3033	155291.152281995655	2415.6351605874
0	3041	155389.0162780897	5682.0411660204
0	3052	155750.840973731075	5482.2663789495
0	3058	156190.654662626623	3661.0142447824
0	3080	158196.532624238678	10450.509569462
0	3111	159718.02447413148	11141.660695158
0	3116	159741.777698591	11615.658332785
0	3122	159767.029488684262	13014.386787747
0	3127	159811.822519343699	6052.6492316269
0	3135	160227.654780893714	15796.259922245
0	3188	161273.805932413543	2258.0982741344
0	3197	162131.90107279441	8354.6572470369
0	3213	162638.409158496889	2124.9019720774
0	3237	164036.31693327106	7019.917226012
0	3275	164993.824345564417	7262.7947450194
0	3296	165839.423946576015	5471.9805831962
0	3306	165963.232017812685	5432.4526934232
0	3311	166060.287033502812	6201.5283058471
0	3316	166168.777921794148	4684.0013066505
0	3324	166498.810008004845	3193.3866925374
0	3333	166665.03281088512	2131.1129447125
0	3354	167263.313212472601	3768.4128916325
0	3373	168558.883841322923	6169.6175341314
0	3382	168873.094380014969	4005.203977834
0	3387	168914.561813505969	8147.3452140766
0	3395	169127.958302709251	5926.6411029149
0	3410	170554.841774280012	3610.1585860235
0	3427	171249.231999084942	5679.21543638
0	3482	174552.300840076999	3255.8928548686
0	3500	174823.741862030014	4064.059709061
0	3521	175235.628756526033	6292.4740622509
0	3526	175420.798467997373	4088.7237884285
0	3550	176204.473989129002	1556.703590066
0	3571	176757.671267278823	9923.4919801998
0	3576	176952.261934220228	5065.3756244713
0	3585	177119.490138939873	3905.8328397638
0	3598	177368.857577506077	4278.515385179
0	3603	177588.210146563236	2784.4017223438
0	3682	181858.87557678048	4756.8663551381
0	3687	182040.885769701487	5970.0977269254
0	3696	182425.952806899056	4494.7691709595
0	3707	182653.061548797426	4611.7573455263
0	3717	182739.846136472156	3496.57519693
0	3722	182829.719865097094	4614.1308459039
0	3730	182882.388224764327	1753.2866877007
0	3746	184010.435055226484	8166.9346989475
0	3768	184987.358570200299	8828.9920116724
0	3780	185546.334785076049	6788.2811302351
0	3809	187662.899322815249	5029.1181853908
0	3825	188128.075444092142	3828.5503306058
0	3842	188497.312207314587	3473.2442282519
0	3856	188694.807159010091	4866.0444522906
0	3875	191040.360409928123	4638.1363233851
0	3880	191220.853032279454	12899.515203659
0	3889	191561.827339942207	3412.3465160388
0	3911	192037.243073633898	3382.6119309545
0	3928	193121.291055323312	1271.5781615514
0	3936	193276.739761346592	8043.5785643482
0	3944	193427.488540976677	5686.7676867064
0	4034	197324.19647355338	5966.1587097285
0	4039	197762.96989638854	5549.0965842104
0	4044	197823.771472723103	4252.9079039933
0	4053	198187.983273195009	3963.8737199191
0	4058	198308.923995128729	3532.7930524326
0	4063	198354.071005252749	2802.5316092737
0	4121	201323.517043059863	6411.1766892653
0	4129	201689.825451937316	2960.34102567
0	4134	201743.437615909177	3216.8735623098
0	4140	201835.966338064937	5271.1053198863
0	4158	202608.726492254571	4227.5070490889
0	4169	203305.17964392047	4427.3971797019
0	4174	203313.323424980676	7938.0664201514
0	4208	205155.773723276796	9128.9748513728
0	4258	207914.622055025043	3577.4827601841
0	4273	208585.25731216843	6140.9300566152
0	4290	209524.536538226819	5195.1724451595
0	4300	209668.334398582789	2648.5784793773
0	4306	210094.706371573964	10719.119569453
0	4311	210276.196549488186	6678.1637181065
0	4358	212609.704951557963	6304.3275277892
0	4363	212748.687746116658	5452.3403464144
0	4371	212851.304692946033	5348.3590361536
0	4393	213329.740808157802	4844.3621629029
0	4401	213527.260192456386	3006.1440504802
0	4423	214245.054586925537	4981.2365961467
0	4438	214751.410464573236	4041.6629852053
0	4459	215179.291343393469	2382.103981934
0	4470	215470.420070208453	2547.7985011883
0	4491	216294.04486589959	1905.7420571803
0	4531	217411.810567902535	2412.0376404987
0	4545	218002.894534868682	7335.3287354612
0	4560	218826.03481482472	4013.5578108563
0	4574	219568.983533881813	3583.5053261448
0	4583	219765.274176381367	3901.1567459248
0	4605	220522.392508656262	6761.9048627656
0	4624	220816.131779980233	1161.8997639664
0	4629	220890.753557996181	4386.9663610551
0	4645	220952.803439312269	2765.1735936284
0	4660	221675.149162038607	5582.5453931023
0	4682	222743.185190710599	2212.9059445749
0	4688	222839.566339962771	9402.6993168401
0	4709	223869.240279045723	6473.1938364764
0	4748	225258.496010487895	3751.3960720579
0	4754	225806.31170786249	10109.448188794
0	4765	226301.519651183838	5365.830055149
0	4792	226969.529155867568	3571.380236409
0	4797	227139.061600653145	3150.3111649381
0	4830	228251.216330009389	4215.2075969652
0	4863	228750.069864421152	6402.5381130353
0	4868	228770.614193871631	2926.4904749909
0	4873	228825.459315862377	2215.5670486978
0	4878	228922.371825240706	9044.7081086821
0	4883	229316.477779379502	2136.1478393147
0	4888	229469.169784865675	3534.4148154484
0	4897	229797.291031172322	1515.1106781744
0	4927	232164.242634432232	7127.1068964762
0	4932	232217.716104756784	4062.6945602097
0	4941	232736.60621641932	2466.7817493373
0	4954	234253.879104509134	5927.4632562094
0	4969	235575.836797952638	4854.6162252303
0	4991	237881.651152298095	3712.1822818263
0	5075	242290.160550208469	5611.6376098075
0	5085	242491.908096458896	3659.7178384349
0	5090	242639.912715969119	4275.3034974837
0	5144	244680.69478450175	3256.9897969117
0	5161	244946.756731606012	4695.0702680429
0	5185	246263.565192873168	8492.7697556897
0	5202	246995.571571342475	3627.6556600979
0	5241	247990.222900144297	6169.135586224
0	5295	249935.507264422441	9474.1559770838
0	5354	251908.259136857769	10830.459062949
0	5368	252182.959024522934	8738.7696973118
0	5373	252198.565113209506	7405.9624334094
0	5378	252276.025076139555	5530.0519913142
0	5399	253484.626063694303	7710.8778437115
0	5488	256745.025597985101	9657.8289128064
0	5496	256992.082319795081	9204.0953312143
0	5505	257292.202701780072	10364.290211627
0	5510	257499.729249496635	17551.140975783
0	5515	257541.105001891973	9686.3690319498
0	5523	257638.716790183912	13706.767268272
0	5537	258059.961462240585	10229.960276233
0	5548	258549.232302880734	9143.2044206874
0	5565	259240.263541171503	8525.1326253753
0	5585	259769.581451325718	9013.0734284849
0	5596	260377.860104481464	16499.205162881
0	5606	261862.639228328531	17487.546517343
0	5627	263760.284229738094	15104.883498839
0	5641	264510.636228008762	14641.629581759
0	5652	264866.974359417554	14055.977933407
0	5657	265424.835217634331	13631.198851772
0	5669	265900.236107349517	15873.987376681
0	5695	267152.820450597922	13788.581629745
0	5730	268552.393450773155	14763.38741574
0	5765	269271.227946765411	16739.198068051
0	5773	269574.065219286223	14658.143092291
0	5778	269635.552321428812	13931.777678165
0	5784	270003.05785477901	17291.266840618
0	5795	270380.15486528106	13925.335215835
0	5803	270550.708964949345	12988.787553845
0	5814	270855.790336977635	17196.106645408
0	5819	270863.312428663047	11652.736779872
0	5824	271220.153385581454	11734.410267727
0	5829	271319.479011074206	5484.6874227286
0	5838	271686.097264104643	7934.6357686995
0	5851	271956.86454321893	5400.1527818232
0	5870	272586.854557651593	11023.740095338
0	5878	272619.232729738661	5393.1318109654
0	5886	272897.227587382795	8621.2339053743
0	5908	273367.110117532952	5393.6462779412
0	5913	273475.770556255388	15332.640330549
0	5928	273947.951365595001	6809.0453917246
0	5942	274642.962753671105	4115.0541892223
0	5953	275084.249861116816	6716.4630502773
0	5965	275929.487618299139	3157.6246228617
0	5993	277226.538163082675	8560.4495012666
0	5998	277437.643330423207	9440.8392230123
0	6016	277966.156902236023	6171.196672199
0	6062	280188.257631527298	8029.8973458278
0	6067	280276.388121014307	7280.3959934008
0	6076	281018.359041443351	5786.5203600538
0	6089	281249.259932427859	7428.6412668278
0	6100	281545.239928495219	10177.663942123
0	6105	281610.693065711438	5810.4565050043
0	6110	281794.460225968687	2757.99016795
0	6130	282328.805400047627	5875.2322002488
0	6138	282478.383983896719	4965.5158075798
0	6143	282485.22782907562	4677.0689377331
0	6152	283322.814450005843	4271.8811683144
0	6170	284384.044539299226	3832.7390591662
0	6195	285039.506838935907	2906.4373126266
0	6207	285813.558393525056	1353.8820583574
0	6256	288922.979948781252	3203.289583313
0	6280	290487.911499679334	9388.2863897032
0	6291	290684.425391116414	2739.7754775425
0	6318	291920.819522739126	6088.2609249728
0	6402	296443.429870626936	12921.519578457
0	6407	296654.289969563873	12132.020246674
0	6412	296718.949797346712	9795.8850957097
0	6417	296744.378355342058	7200.0097701974
0	6426	297000.364116563017	10101.004878675
0	6431	297289.486051877702	6662.8979705068
0	6439	297365.778814766997	3974.6195732432
0	6449	297512.5375839299	4674.1756035408
0	6467	298009.359664092904	6730.1880975418
0	6499	299099.317872913346	5070.7128580528
0	6508	299364.95467330048	4787.8934295041
0	6525	300222.880679902461	2281.0042692417
0	6530	300655.778901503239	5140.0116299461
0	6540	301686.936084407098	3197.5301396889
0	6545	301816.588923113075	8213.4667447706
0	6554	302431.191016462089	4760.7940911016
0	6571	303268.565890566469	11753.991309488
0	6583	304029.163187691728	6665.8506090404
0	6588	304205.202612574565	6248.0661500521
0	6661	308923.182630210207	9622.8824374997
0	6666	308979.931833696836	6462.3334036028
0	6675	309155.339491400689	2759.4141424905
0	6700	310174.666988513067	2461.2791375103
0	6718	310764.517665084807	2625.6947659871
0	6723	311117.227096255588	1725.7650166149
0	6728	311218.360708080414	3918.8174456529
0	6734	311325.800208985035	4341.0328563939
0	6743	312367.155881558341	4802.3513351193
0	6781	315940.604014465508	8520.2374199121
0	6816	318176.039821620022	5510.6784427875
0	6826	318410.771301302487	8682.6405732188
0	6840	318687.044794772214	2771.0992402801
0	6875	320569.307540347396	3725.3775170401
0	6892	321136.541820577068	7376.351645619
0	6906	321967.172759811823	3945.9245982476
0	6914	322053.775150913718	3514.1849761291
0	6919	322456.245294157485	6797.558860092
0	6928	322785.358164295796	3287.6370654854
0	6974	325012.055873066762	3941.0113369584
0	6979	325136.443151838443	2457.9816732579
0	6990	325208.216463643112	6717.448100474
0	7004	325627.99578725367	1898.0814429696
0	7009	325832.559486985101	2599.6624637074
0	7027	327367.397462664993	8065.9178599774
0	7051	328666.562678706379	3520.9052571401
0	7098	330370.348292690876	3995.2031586408
0	7110	330886.316373436542	6734.0012742571
0	7120	331148.707383352343	3027.7585147836
0	7129	331735.674167439366	2286.5737088859
0	7150	333444.185342132008	6061.9905023571
0	7163	333742.799178548269	4938.120902165
0	7181	334899.760656924772	2719.7031734601
0	7197	336533.10873970117	6654.1955525787
0	7227	337124.12148377224	6671.1394969926
0	7235	337202.026117366988	3863.1658938067
0	7261	338412.969160235594	2922.0854245316
0	7266	338432.645410291315	1273.3377801953
0	7277	338831.751425840738	2203.0586399451
0	7295	339954.087941234917	11761.295937418
0	7311	340179.172066456028	1466.4541810041
0	7317	340593.524948783102	3193.768552429
0	7340	341705.376421034025	7317.2148912159
0	7368	342800.483986721938	3012.4724184315
0	7376	342979.772941842214	1583.5457370114
0	7393	344026.72807878059	2943.4067804791
0	7415	345344.978219720457	9432.8746464047
0	7434	346289.620314845858	4472.1492278609
0	7439	346389.488591961841	5779.3358352061
0	7444	346404.987046834268	2766.5058102792
0	7473	347968.695329631995	3427.7165197099
0	7479	348034.485635244206	2872.1770490709
0	7489	349901.055705094969	3061.1072327882
0	7535	354250.046775080852	2007.8568352223
0	7543	354459.892035821216	7571.5065244819
0	7564	355837.497424388957	2578.6851201923
0	7569	355940.47972165059	5497.4040686194
0	7605	359196.8323454619	3102.3749104308
0	7614	359558.985586345912	6264.7046558517
0	7624	360873.127965942754	5919.4384158078
0	7632	361239.212133297738	4051.4428983782
0	7704	368561.974813985877	7289.3706454713
0	7709	368813.692026540715	10834.14059047
0	7720	368998.293801731876	1823.3575844191
0	7726	369520.310416580054	2420.8645814616
0	7731	369698.523191690584	2452.1777823027
0	7758	371804.106310456341	3849.0571276808
0	7775	372670.267104130586	2156.5317626771
0	7820	375190.995801649383	9733.0727583824
0	7847	375910.343328988498	4083.9926080416
0	7852	375923.994245215128	5083.292189338
0	7861	376848.27938171455	2885.501518157
0	7873	377634.19902041158	3166.1806166502
0	7905	379713.638139387073	2315.688639985
0	7944	380976.315523318308	2662.8160640466
0	7956	381672.897451555196	3669.3990258533
0	8022	384317.656140896525	11189.295530709
0	8027	384459.607613294108	9148.5618794239
0	8032	384463.075579334514	4511.0167821693
0	8037	384562.717442078505	3442.0124276402
0	8042	384742.640061314268	4600.4608870895
0	8048	384818.664559670838	4828.3151719954
0	8060	385766.531891472762	3403.7483490927
0	8083	386718.682688503767	5286.8492198749
0	8105	387317.396779453596	4809.2922156633
0	8121	387738.402326807526	2121.6958008029
0	8144	389013.421925611185	15791.392206917
0	8152	389201.502853314006	2646.6101486101
0	8161	389839.606516269522	2340.2852867224
0	8168	390868.395126429452	7936.4443984368
0	8185	391584.60040296804	8407.2846550466
0	8202	392418.991248862537	6064.0435471816
0	8210	392743.304980753077	5179.8217935362
0	8256	394570.656696327573	7445.2032448105
0	8277	395534.642104697995	4664.4439836691
0	8312	397925.029591109807	3923.4693748656
0	8317	398028.904064067079	6220.8207983024
0	8322	398079.987915289645	5024.6371581018
0	8328	398379.65537102713	24603.969727987
0	8333	398556.954751924127	4836.9005269115
0	8352	400410.887452409306	5111.9669720932
0	8382	401205.447368991615	7071.7355570032
0	8484	405627.275014336849	9533.8624456837
0	8506	406145.852753120324	5009.298675903
0	8511	406245.913042341405	9602.7653850724
0	8516	406280.929052423299	2728.9955064768
0	8521	406301.398715802204	2920.990460626
0	8530	406623.983369891184	4752.963272909
0	8540	406845.046000879987	6152.1734194381
0	8549	407356.226908621537	8381.5887418039
0	8562	407489.314125998376	4232.8541884885
0	8584	408490.723648486026	8871.5022820519
0	8590	409219.14848280442	9792.4938120776
0	8602	409683.581306361324	5882.6800498554
0	8617	409864.664951389764	8473.6008567948
0	8634	410660.33076144611	3071.7808993524
0	8643	411090.776985644911	1587.0493240473
0	8651	411373.501102520215	2092.6558925639
0	8693	412971.319493961337	7448.9527031955
0	8710	413727.144668939827	8260.9314281665
0	8719	414455.350966017109	4527.5864036104
0	8760	415929.375573594425	2849.9162278384
0	8792	417492.867460995351	4973.3799282632
0	8797	417736.943311435146	6051.6214146165
0	8803	417844.327065758482	2858.1604376872
0	8811	417974.835685542159	6503.3020540314
0	8821	418101.375252301378	10957.371232516
0	8829	418303.828677122069	6260.6437251268
0	8843	418671.570902623249	3587.2186975456
0	8856	418912.986435150807	11474.064121232
0	8870	419354.682729815524	1469.491111703
0	8898	420651.626845676966	5095.6180244697
0	8904	420913.593249625951	14523.975752416
0	8938	423679.720334400677	5413.9248164084
0	8958	424837.464508942943	5958.9723507069
0	8966	425066.878376987918	6471.5506005953
0	8975	425397.136053610791	5585.201368555
0	8981	426334.907672619417	3547.9688929351
0	8986	426645.664240315756	5587.150960816
0	8995	426840.713170205065	11205.545853144
0	9043	430572.864114889155	7498.9967620913
0	9062	431497.29881925947	11164.012212576
0	9093	434483.949555749872	4146.7598014656
0	9101	434584.040510427848	5240.6878306102
0	9109	434677.504581496101	8006.5894318666
0	9115	435005.686578874871	6055.9056870667
0	9132	436270.808331816938	3531.3074752887
0	9156	437474.982808183305	1760.9881972719
0	9182	437970.657206358993	7471.7376164034
0	9199	439761.664176554192	2135.8051654885
0	9209	439774.347677066421	2437.140436362
0	9227	441018.020626949653	1539.1928493264
0	9243	441533.992335821266	11902.14783365
0	9252	441981.464103732587	4275.157768958
0	9268	443286.88186718204	9127.0036923646
0	9293	444394.00734407367	3989.6690992378
0	9315	445009.847848300782	8412.4979288109
0	9320	445113.565050911396	3930.9608866732
0	9328	445438.096742989394	2140.8365487085
0	9363	447348.43942587164	3286.5108317555
0	9406	449956.317635503105	1372.7121194149
0	9433	451376.619887706052	1951.898982298
0	9451	452211.034102194877	7706.317850703
0	9478	452727.668154103205	6677.8967430268
0	9486	452950.752276218103	4485.5619638528
0	9509	454146.398457726098	7491.8125120443
0	9514	454161.941471612116	11449.302181825
0	9526	454642.721475117319	4531.3436843457
0	9557	456052.393205704975	4555.0979930489
0	9565	456280.773742611985	4486.4200938996
0	9570	456360.740723585862	3612.1538034739
0	9579	456770.523687326142	1927.5305440074
0	9587	456819.37298910488	4784.673474166
0	9592	456824.849329005959	2948.4530261691
0	9600	457109.813029141002	10822.73107565
0	9636	459899.497048165656	1286.9767773731
0	9656	460353.071580068662	10789.092108767
0	9735	462988.628579888721	4203.7922640503
0	9740	463026.207588338063	2988.7580790145
0	9755	463536.745619932762	9333.5174972285
0	9779	464097.324808931543	8700.8342966035
0	9790	464596.955315257373	4421.6718970788
0	9795	464661.896833019704	4030.5750553996
0	9806	464870.146834400343	3426.895297658
0	9811	464896.925479726671	4866.0491818109
0	9817	465053.245898123276	3695.6832307433
0	9831	465558.116483823349	2292.5926797398
0	9862	466637.098702960655	7656.3757646905
0	9870	466920.038689833248	5373.9975438525
0	9880	467093.560380906995	5203.4374072758
0	9885	467231.947860733415	3855.8803801188
0	9907	468816.428223588119	3689.2302884877
0	9926	469407.154569924637	3809.6503237701
0	9932	469604.721075903483	4033.1226727422
0	9937	470187.397153624082	6468.1729546185
0	9947	471290.144739722622	4018.823588776
0	9980	472425.487620615166	766.72733647304
0	10023	474481.159899827042	1899.0290540334
0	10054	475151.159636867746	1241.528186223
0	10059	475365.293067438423	8623.8955414134
0	10065	475562.912484119959	3989.9413303626
0	10083	477428.168506299244	8730.2007551388
0	10094	477709.060714076125	3202.9908411636
0	10106	478145.320118484634	3868.0229111523
0	10145	479861.487352535765	6720.6867781436
0	10150	479944.232655195696	5213.0863775042
0	10160	481342.326408071827	3396.1062308019
0	10169	481706.301731504521	3071.5527766505
0	10197	482636.48368105581	10580.577143043
0	10206	483482.253146843759	7256.216947308
0	10211	483702.556315503349	5749.8242384465
0	10245	486505.503413832418	7849.9557314654
0	10266	488326.61881842744	6299.5485065591
0	10277	488921.047692238051	7015.1189023344
0	10299	489609.642821507606	4976.1087157665
0	10326	491585.377172809159	5389.5840910857
0	10357	492644.382326362321	7018.410995497
0	10362	492673.802506835734	2948.6152745464
0	10371	493071.342376024319	4294.8490746979
0	10383	493751.80039618201	3857.1591719597
0	10409	494196.90188138685	4913.2270543852
0	10435	495068.50153030494	1254.5100037864
0	10443	495529.90960010176	695.63930065199
0	10455	495840.865093852745	3880.2993143125
0	10460	495951.848111550196	9651.0516377149
0	10472	496938.406937118173	3520.1591154493
0	10503	498509.553168417955	3511.1750384858
0	10521	499538.52361752868	6231.0414757264
0	10530	500495.692149543383	3086.8439822645
0	10542	501373.657159099869	4564.5064736205
0	10563	502501.463069794232	3717.8092022646
0	10577	503371.410396281552	11279.018790498
0	10582	503545.449172311398	5987.9261134669
0	10600	505291.556764975001	3322.7999086548
0	10662	507370.967211796367	1233.4236682341
0	10668	507950.044133989263	2047.6698703166
0	10697	510363.034110894351	4990.0012203036
0	10780	512705.536074874316	7134.3853884513
0	10789	513053.371343755368	8603.7354062595
0	10821	513809.061771590574	7129.9453003679
0	10864	515236.9998462183	6053.6960751571
0	10878	515386.99726644267	5599.1225539962
0	10891	515419.995769957713	6234.1900609776
0	10899	515517.529849889942	8740.2934902235
0	10915	515976.918151201141	14876.493698493
0	10947	517148.866996462932	6593.758295795
0	10955	517299.685138824948	6592.2678699665
0	10966	517665.549160431759	4242.8477956296
0	10974	518159.571228694422	6837.3330061245
0	11015	520301.367235499357	6566.4837977568
0	11025	520389.728955599556	6791.8278930336
0	11037	520661.202447797605	9133.6336194523
0	11104	523544.984200673773	12291.704751102
0	11112	523778.864097390949	13419.467016305
0	11122	524105.060056958508	8896.5804395428
0	11131	524297.744377222053	11405.79103719
0	11141	524480.621932928977	7328.3178304582
0	11149	524885.211092922784	9518.3016045344
0	11158	525045.497485136169	6158.8932229204
0	11171	525289.486116371012	9072.7437090899
0	11176	525619.710782151613	5671.1854448728
0	11182	525765.703819592732	11897.140673489
0	11187	525798.736327650519	10061.494825365
0	11192	526010.852311149291	8042.7847819038
0	11197	526104.64370493222	7647.6878938234
0	11202	526158.710523408463	5479.4673680796
0	11207	526159.92763637588	4546.4758336102
0	11225	527243.560990605936	6677.3100421343
0	11261	528370.891452425975	14609.78850986
0	11266	528486.27754222211	13054.639803532
0	11274	528591.913788339563	7482.0594934782
0	11279	528691.932972950989	4416.1569287059
0	11289	529613.446712186711	2407.6033466929
0	11348	532710.091005689564	5306.2473505073
0	11369	532951.050187406713	5392.529530686
0	11377	533246.112272302081	11647.565968812
0	11388	533892.036495981721	3499.4351725002
0	11396	533984.810163472871	3053.7945453936
0	11402	534197.241163345997	9203.2719468183
0	11407	534212.745423776982	7937.533788543
0	11431	534920.89363724899	3470.5758622183
0	11467	536507.186928770138	3654.3380020298
0	11480	536825.995955495215	4514.5446728326
0	11497	537013.707812634006	6550.893730943
0	11518	537409.197151785638	1023.4924220486
0	11523	537474.802831246142	2795.8175280244
0	11540	538311.423776171967	3724.5460330045
0	11595	540275.445444738729	3530.0780006975
0	11625	541422.613896672461	4468.5299283888
0	11631	541844.249496206185	6291.1577654084
0	11636	541876.871719616351	3899.6068654875
0	11641	541954.243639676948	8712.8682262879
0	11652	542123.71785804683	5175.2773224087
0	11658	542330.053775957676	2103.0292529563
0	11670	543086.907898095282	4442.8635461521
0	11678	543155.247942960791	3862.3808917602
0	11689	543678.570682094482	3060.6814766176
0	11701	544038.768498271071	8106.2708927189
0	11712	545181.817553124093	6178.879648192
0	11721	545501.335001803386	6297.694496348
0	11755	546805.382095685932	969.91705627727
0	11770	547553.762099018241	2214.1113903634
0	11808	548751.402845248028	7730.2770278741
0	11827	549305.149853698745	5378.1869528837
0	11845	550240.349135751086	2381.1455173198
0	11859	550892.760289141325	3519.1456646363
0	11864	550907.022299211185	2277.9314520172
0	11869	550921.468615110441	2672.4573225476
0	11887	551740.066860330504	28171.757897932
0	11909	552416.047999608239	3698.8370610032
0	11926	552983.52075353926	7027.9983185987
0	11931	553077.083032483889	1636.6338330472
0	11936	553348.388813052738	3642.9927372648
0	11974	555659.777416436914	8800.5406742682
0	11980	555776.932453118755	1575.1334007047
0	11996	556158.765460372606	2263.2350384344
0	12011	556587.493934110621	5114.4279752352
0	12034	557395.851183838627	5012.7302871164
0	12160	561569.161384041684	5754.1108589552
0	12165	561704.590509027555	6927.5872930507
0	12171	561766.994230518289	4801.8790473802
0	12183	562515.602342897075	5931.4925861732
0	12191	562837.197625278669	5188.9173921413
0	12203	563407.812318155637	4859.6801054822
0	12345	570960.822814610834	13817.685661291
0	12388	573178.032412455032	14811.245641409
0	12401	573299.392843081123	16217.215711144
0	12407	573752.807125564146	14970.820714731
0	12415	574008.768093403206	17242.770614296
0	12420	574048.83135236198	14034.032730993
0	12425	574174.821653958009	14808.621396874
0	12431	574833.681708193476	15840.246116495
0	12436	575010.579624781462	11507.529113796
0	12456	576797.454758174085	15874.098946804
0	12469	577234.615323587132	13228.358166875
0	12479	578446.606057528558	15428.599406537
0	12489	578593.120434916799	15612.197843199
0	12507	579392.421377987424	21761.18521327
0	12569	582218.946512339983	17832.171827906
0	12575	582791.52172510828	15169.023339306
0	12580	582953.934954658397	12843.703538111
0	12585	583014.773804239587	15168.915311247
0	12590	583184.064567584536	14811.197576375
0	12596	583774.947233453111	18255.860428181
0	12602	584251.481803678383	20000.585745455
0	12607	584474.190287861602	14152.502892546
0	12612	584626.288095280581	13672.054708076
0	12617	584631.399382963138	13856.252195408
0	12625	584819.967141852934	19958.119214146
0	12636	585301.562245014635	12522.098069603
0	12644	585472.971842406003	8940.5877487723
0	12654	585493.208600394896	6875.3797395928
0	12662	585528.22193633633	6481.4601407289
0	12688	586546.108743133838	9156.8244898176
0	12718	587730.748762264611	1772.8622758882
0	12733	588222.41941872253	1881.1011686811
0	12745	589012.315168115621	4255.1280662469
0	12763	590460.61800881629	11242.638844349
0	12771	590928.910897104127	5421.5624156591
0	12777	591224.600036188533	10451.93479206
0	12782	591438.112329894717	11382.951713478
0	12794	591950.997562110844	13325.24881209
0	12807	592216.254276476412	5150.6841848642
0	12815	592353.111737040904	12018.472282121
0	12824	592510.658779105747	7167.0690720887
0	12878	594364.179994336461	2614.2840658065
0	12893	594555.431159133151	5754.3235774596
0	12898	594728.706374663925	1933.1044729733
0	12904	594772.049765305661	2011.8145023135
0	12930	596618.223968942524	3486.873595885
0	12938	596917.899877439292	10148.053668703
0	12948	597833.196898319616	3621.60676867
0	13024	602746.21158420721	9068.5855192397
0	13036	603274.420049947711	6912.8125088947
0	13055	603651.725991877516	3698.6099838231
0	13064	603833.140170377332	2547.6637857772
0	13072	603874.983208767508	1932.8463240794
0	13117	605637.894118981361	7119.3974236786
0	13122	605714.676611170165	7094.8376305705
0	13127	605879.690239918036	13461.411036087
0	13133	606081.349720185178	10761.855678428
0	13141	606235.250399450734	6862.293710145
0	13161	606876.751201410461	4040.2685950889
0	13166	606907.385254347671	3069.8984616566
0	13171	607283.855960980785	2593.3608299309
0	13183	607976.95493251123	3592.5631989382
0	13230	610396.781123887926	5468.280424318
0	13255	611911.261036488269	11140.686835607
0	13260	611923.976151777995	4443.4741012902
0	13266	612039.069227949313	5859.0124718053
0	13271	612148.037185938812	2848.0106998171
0	13280	613478.755291333122	5520.0011074039
0	13334	615577.137197573306	6061.9353424544
0	13351	615994.021337393028	2112.1782033691
0	13356	615998.49043040009	2322.5136945007
0	13372	617644.763152256014	3990.0038674808
0	13377	617933.606118552443	9950.9569461012
0	13388	619627.104414769197	10066.008547572
0	13424	620804.516591708316	2192.6698554777
0	13438	621500.960622187242	6938.9694961109
0	13452	621964.851038424416	2272.9045856179
0	13469	622927.510196517589	2161.1684338577
0	13513	627375.469715378532	12993.067517023
0	13518	627524.182243437897	5192.4877830162
0	13527	627830.909618647064	12393.08348305
0	13532	627833.132800400605	7920.4444195975
0	13549	628666.188207662297	2991.031647677
0	13583	630016.176395420002	5011.0357792376
0	13598	630901.311273371707	2767.3863408001
0	13608	631040.802777335179	2056.7525673304
0	13617	632057.616403497802	11016.915169301
0	13625	632151.954609684396	3022.215351152
0	13660	634405.133769357931	3874.8754996799
0	13744	636709.786236642763	2056.5283929795
0	13749	636747.808053327395	11374.791203053
0	13764	637054.490310558947	1736.9575472455
0	13798	638287.839157992019	4792.9501834815
0	13818	638810.154051526154	5488.3958793197
0	13829	639445.265761482925	3873.6229048788
0	13834	639456.952400254356	10450.867758846
0	13839	639470.693522013779	3681.1216683889
0	13851	639875.717566897184	2556.6448098444
0	13856	639897.159248020468	6708.3692837418
0	13864	639941.490348167165	4949.6371344531
0	13874	640148.099331372924	5223.3237244793
0	13879	640395.77928932559	3494.7556787836
0	13885	640530.152210947458	4783.2993925843
0	13901	641110.882521532938	2672.2475818038
0	13910	641377.260967007578	1452.0972248004
0	13944	642871.776392649149	900.50807465253
0	13952	643390.280478450709	1507.9266056331
0	13990	647856.332505259706	7225.7656446824
0	14006	648751.195006325854	11218.583060724
0	14047	651848.542615517453	7783.8648513079
0	14059	653018.827288964231	10734.70109374
0	14068	653289.865740605193	7010.4050820043
0	14076	653501.363533086792	5109.2742858173
0	14084	653751.375810587803	8328.5243752087
0	14097	653914.0220910468	19094.438635322
0	14102	653935.544648210869	3484.3478663105
0	14146	656026.599386055759	1997.0163259018
0	14170	656529.561296644926	7823.4629851022
0	14191	657827.223341653004	2390.372330517
0	14199	657902.906848450503	4179.9660307814
0	14208	659054.761183287172	3021.2154715853
0	14230	659766.521770960128	5520.9927500897
0	14288	662671.70582363487	7897.4001717405
0	14296	662770.206354871728	13572.686480108
0	14305	663002.311792441724	4282.5633374231
0	14313	663286.849682097607	7341.7445376109
0	14326	663650.046851066299	3647.3631545535
0	14376	665867.187238065335	4271.9549119732
0	14407	667425.184935677616	8021.0844880291
0	14412	667465.051763159428	7084.3955418602
0	14418	667592.702015563633	5283.0992084069
0	14423	667771.263394538294	4543.0489176752
0	14432	668352.879326211977	6724.3038284079
0	14507	671366.007608112312	5942.1138930064
0	14515	671520.83073568479	7952.0289757477
0	14529	672092.366743291042	6982.2701718866
0	14565	673012.340207952967	16124.773358326
0	14570	673312.1386788812	9430.2941882788
0	14579	673608.698223666249	7721.2825208517
0	14598	674177.870788571463	6055.3578016832
0	14624	675192.15327208522	5396.1859513737
0	14658	676363.956811125133	11948.355542193
0	14694	677389.062703309094	8269.5300212216
0	14702	677701.820155611468	7560.4880032909
0	14707	677702.046914773257	7839.152151486
0	14715	677995.26062833171	5630.8884235487
0	14734	678632.196729828365	6567.3719456275
0	14746	679201.119908093538	5391.9721944411
0	14751	679224.208981623909	4695.6840090914
0	14756	679278.605124432084	6612.683409175
0	14764	679448.502956768172	4647.5263416222
0	14770	679770.19057881837	6437.9983629759
0	14775	679980.392654491157	8601.4258728201
0	14787	680745.561816177044	4658.5129723591
0	14797	680960.556255822123	6878.4698065744
0	14806	681417.156314182112	4268.8771208498
0	14831	684166.972419970084	5917.9899963165
0	14859	685529.762244398192	15443.286676548
0	14874	685983.767047032178	4659.5558610148
0	14883	686482.354795279096	9500.1046016573
0	14893	686752.100027420843	8976.7024601116
0	14902	687101.484620137652	10817.49321767
0	14921	687663.548945422586	2501.8496441669
0	14927	687774.76078766603	3147.9766977995
0	14932	687812.526417106068	1571.4187724033
0	14956	688444.574815381335	1451.015157193
0	14974	689305.0349774951	7236.2637140869
0	14983	690331.19692358789	10007.937343421
0	14992	691489.820577572925	3460.8672104178
0	15028	694269.776018322824	6452.4397560853
0	15074	695590.375108011152	3474.9139715759
0	15172	700173.35911474762	5899.1739188053
0	15177	700182.021412974427	7457.544952212
0	15186	700524.065901172067	5254.8878732248
0	15191	700575.001729711419	4574.5775679563
0	15199	700692.303390474961	8667.239080293
0	15207	700985.923338246851	6469.5258507499
0	15232	701955.123446761726	13409.67405957
0	15246	702727.068556882119	5948.2321532671
0	15251	702745.834659003757	5374.6893115331
0	15257	703083.368786608697	8328.2408271168
0	15265	703273.056423921135	8216.6597614344
0	15273	703456.088276963947	6870.5886268744
0	15280	704738.687474994359	5509.6389055533
0	15290	706105.936662836798	10892.568036143
0	15304	706635.555994357941	5545.1364549214
0	15309	706719.351989024266	8164.0827907416
0	15348	707519.69202900708	2175.6047177449
0	15393	709617.182957710524	7845.5773878456
0	15405	710327.346204427329	2474.9036889121
0	15410	710340.370219891481	9482.7297139551
0	15421	710889.256296203796	2493.713596782
0	15430	711391.168471544874	4173.1115817323
0	15442	711913.521649551592	4429.1148973291
0	15452	711967.966157342017	5158.2601159416
0	15469	714448.573303030254	6373.0775172155
0	15505	715825.259866580742	8465.9881056762
0	15535	718303.228702835147	3461.031168544
0	15547	718759.357496296878	2051.5391768616
0	15563	719161.097036215467	4135.9856673705
0	15580	719980.713032821235	6029.9948903559
0	15589	720120.19060891331	11514.555764451
0	15602	720323.068322411602	3224.7002441617
0	15610	720606.849142389122	2018.0556431866
0	15649	722007.342560032704	3034.6825965644
0	15692	723030.807249630853	2681.4690669395
0	15728	724418.416912658211	3079.9097336503
0	15737	725094.900306637338	2850.5886608773
0	15748	725528.410542183385	2722.2409437095
0	15756	725558.513217350732	3305.1569752082
0	15761	725792.195396883589	14129.523602961
0	15767	726112.815375399803	4949.4478515059
0	15775	726325.820667920268	4152.5764420325
0	15808	727143.42687915489	12811.803178766
0	15817	727815.150445736811	7731.5861875125
0	15848	728587.617437667432	5654.0120342184
0	15853	728628.790235554401	2287.8872340791
0	15859	729249.495579425204	4281.1460796721
0	15877	730744.341316217858	3975.0899531823
0	15903	732030.250800899939	10488.743270357
0	15923	732845.995191986278	9706.8911324665
0	15931	733133.854459411936	1724.3601207838
0	15945	733562.68647049305	3895.1747923919
0	15962	734645.76752682479	1768.2818821592
0	15998	735959.032877835831	9253.1004138381
0	16034	737596.166355783299	5542.984582297
0	16115	740078.961835125123	12042.698725914
0	16124	740479.298290699402	12184.865866489
0	16139	741248.648432031001	5947.6316176839
0	16153	741916.885648209637	6836.9368624193
0	16175	743035.059235876851	7110.0882269506
0	16183	743128.688633120127	7769.8865157743
0	16188	743192.740061417455	5365.5192284445
0	16194	743306.225366966987	5152.586791484
0	16208	743937.603571262071	5379.4716987819
0	16253	744726.954773565227	13777.789371928
0	16281	745795.759333420105	7940.8303940188
0	16291	745982.658043251218	7984.501145259
0	16296	746040.58555833205	4145.9067282685
0	16301	746043.533441782793	8751.7840044946
0	16306	746090.954416442218	2421.7685964327
0	16311	746095.475767673557	8137.8906619649
0	16316	746186.228765078936	4108.7295751956
0	16322	746377.117084665437	12476.37703556
0	16365	748462.360416467488	7892.3223627575
0	16371	748598.043183366074	3955.7897239311
0	16379	748766.799720754117	5346.3295609373
0	16384	748823.49308456706	4762.3549207159
0	16389	748888.144039225305	10307.949366361
0	16402	750090.15685762656	14591.459323331
0	16410	750136.186141399762	4409.1063902351
0	16415	750312.619431089334	3596.3129168436
0	16430	751487.18606726896	6627.479990651
0	16450	752541.071248424865	7852.4745235432
0	16542	756215.921904613646	5399.7057722386
0	16557	757024.239555850142	5684.2650430829
0	16562	757243.913150774278	10598.067857169
0	16568	757569.616110438839	5024.135983504
0	16573	757584.947226183604	4542.5603307427
0	16578	757632.930575514357	4724.3887206147
0	16586	758007.783238870604	4519.4915746224
0	16611	758934.33987309861	5094.188731456
0	16637	759754.314747789542	6033.9514495198
0	16642	759895.38776213745	4788.3465474812
0	16647	760010.412464292046	12893.468678936
0	16652	760491.993790903482	2348.5610811506
0	16661	761012.630791159945	7752.0899630523
0	16679	762212.166337981111	4445.9543987736
0	16716	764117.305414621147	1586.4739898331
0	16738	764406.019943182823	1336.4066533162
0	16747	765329.741509398039	6334.4258671848
0	16770	766012.805216742889	1986.6327259837
0	16780	766266.386253807055	3619.681334363
0	16820	767772.936002066226	1876.6960586307
0	16834	768012.776904307832	1444.7952285705
0	16839	768196.719849230284	2587.0355115938
0	16883	769477.456029944642	2398.2221233008
0	16895	769638.585839934106	3278.6955075044
0	16928	770386.903147390458	11935.087408204
0	16939	770536.765990292738	6365.0801928913
0	17005	772653.760775702974	3693.8006207833
0	17016	772859.978566138267	3282.8898597238
0	17064	774730.918041964632	13386.416730327
0	17070	774784.235468504353	5077.8637926441
0	17078	775084.397240487836	7361.0459124327
0	17095	775619.543224687787	7003.4836101486
0	17100	775823.795966435994	6760.0980228761
0	17105	775849.77546098743	5350.6413053275
0	17113	776072.20891984233	5382.1938611807
0	17122	776647.160498629881	6939.6079152526
0	17152	777369.178782861289	6662.1804623527
0	17157	777453.187596156056	4602.1133992892
0	17163	777934.83693423969	6527.0344800009
0	17175	778546.242685446805	5200.0646543739
0	17196	779001.779378452822	5460.2611005512
0	17201	779026.360511101878	5413.133776435
0	17206	779143.687676952483	10581.694594873
0	17212	779277.944650171669	6958.2280128224
0	17220	779549.709846235665	3177.5368020119
0	17280	782077.585635641927	3613.4523994988
0	17302	782582.982509808121	2503.2187751737
0	17310	782829.142176075899	7925.8772383618
0	17322	783561.249192982953	6839.9106237277
0	17333	783781.755648847288	4077.0933134432
0	17338	783893.652450362074	7221.3516274213
0	17346	784315.198674443522	5738.6608770657
0	17356	784384.520001785554	5072.4635947551
0	17374	785645.692971228341	4272.9395690988
0	17395	786404.611595200322	3012.0489345896
0	17486	790333.445329053837	8082.2461003798
0	17498	791125.227329143563	10633.447828195
0	17529	792227.283806511057	7672.9375047974
0	17542	792422.531170493227	12226.850933585
0	17547	792468.265292375087	8245.6976780579
0	17552	792514.850684606444	6162.1613727102
0	17560	792748.686071887307	5765.8464073017
0	17566	792774.268361111504	5104.3473460108
0	17571	793091.758139941277	2640.0599900834
0	17576	793102.954669864736	6471.5122147069
0	17591	794100.765997637734	4465.9371721588
0	17596	794237.676618152793	5648.9551848126
0	17602	794268.318692590159	2514.1570462664
0	17614	795103.248104847894	8794.3276293563
0	17640	796521.423386159747	1710.293654971
0	17652	797267.237670538305	9242.584418815
0	17697	798952.856899112084	8361.3972548723
0	17737	800344.93709972137	2550.767171632
0	17742	800820.338400323437	3170.2311029645
0	17750	800866.364476585006	4067.1203789783
0	17769	801262.169569977011	9048.8237981412
0	17777	801564.801292520144	6328.0658531968
0	17791	802220.707332058458	15672.771992679
0	17812	803443.306407837084	2609.4196727241
0	17825	803841.647762401006	2973.6073670945
0	17830	803908.792759279969	4988.3404498008
0	17843	805263.656934112385	6687.1983683189
0	17848	805289.74526204242	3915.0305006671
0	17861	806460.661977668305	8390.5199062102
0	17866	806512.032560560156	7838.3147653511
0	17906	808048.582152966598	5583.2657109216
0	17928	808588.621110429458	6650.0215269726
0	17933	808699.277114373418	1845.7606955335
0	17945	809430.97371336215	1456.2457258021
0	18006	811391.23667427541	3401.8057539614
0	18015	811995.524655151523	2640.8165671897
0	18038	812956.112827481493	2727.1860015493
0	18049	813325.354132781839	5690.7960434849
0	18054	813610.786298355682	6060.4083727584
0	18060	813952.858409977118	3884.5151743396
0	18068	814361.978559993147	2966.1943512216
0	18084	815468.150724435371	4784.4607469563
0	18117	816423.704870224696	6162.0152116603
0	18122	816519.159849680389	6016.5354899655
0	18131	816979.923183975582	2190.5962568233
0	18136	817232.524741177694	1944.1234504224
0	18198	820965.21969304728	8259.6839780009
0	18210	821375.450999054544	2021.3443970777
0	18235	822196.212075156697	3101.3110563266
0	18250	823389.81687915887	4410.2924196448
0	18273	824268.716954302485	4850.8423439434
0	18278	824520.111979594157	4891.1151069371
0	18283	824713.108747377541	9158.5810112279
0	18291	824841.091258922837	3660.2241228646
0	18305	825275.507208462909	3599.4521100956
0	18315	825450.515690250677	2115.6664015985
0	18323	825676.819503529683	855.24754115298
0	18358	827379.354640590446	2411.7191231429
0	18379	828795.238835840822	2776.406905175
0	18384	828951.668902472762	2389.3340112521
0	18412	830103.414884666125	2665.2784184687
0	18434	830633.021189357889	747.8732814913
0	18461	832015.21961716545	5429.7327211442
0	18479	833395.492959112767	3729.9674100328
0	18484	833723.476295821383	4442.8100532276
0	18489	833923.268931358819	3470.2497763402
0	18495	834020.779588957663	10670.921304281
0	18503	834496.694381286918	3295.2109940048
0	18555	837285.175490368762	833.55820180884
0	18563	837414.597086359294	2623.084439178
0	18575	838187.84326608943	6230.3703184822
0	18584	838658.486383282338	2774.8444730119
0	18599	840277.171757433346	3686.2892451066
0	18616	841499.431055853579	4482.1802367372
0	18661	844554.388504508155	5944.9974284046
0	18681	845514.666841183965	3001.8307789927
0	18686	845561.741875801127	2796.1061951025
0	18724	847658.552776183395	5045.9924322444
0	18729	847661.449214780942	6809.7542913106
0	18746	848512.080032889723	5163.697055573
0	18763	849436.651570524074	1416.829930305
0	18780	849914.058148353582	4892.5132153008
0	18788	850043.085025144568	3706.1900632204
0	18812	851406.906592619283	5466.6309836527
0	18822	851564.540312932429	2047.278588941
0	18841	854115.999893738646	5518.0185562862
0	18884	856302.605612419724	3832.9602050901
0	18893	856786.59846235636	1953.0529776353
0	18905	857441.676999347486	3093.6791212127
0	18957	860371.441388909059	4344.5631704611
0	18965	860453.137823689962	3028.1078614913
0	18973	860548.81693214029	2765.0947526094
0	18981	860942.144490539731	13735.217846187
0	18999	862330.049574565583	2367.1154512318
0	19021	862687.314952023683	12005.003172938
0	19029	862842.166964108623	2232.0327710188
0	19037	862978.120945779164	806.14140966029
0	19057	863426.509005579203	12051.996723056
0	19065	863459.23671623068	849.29545182484
0	19100	865496.051663454748	7495.4002778899
0	19129	866341.1632114522	7013.5211964895
0	19142	866740.898151791634	10975.823897464
0	19152	866856.706171078428	3232.8645503787
0	19164	867498.938078627563	4387.9140257871
0	19183	868159.341532903207	4706.2271054529
0	19188	868351.314880096425	3496.2104919563
0	19197	868615.284628239766	1966.467259661
0	19243	870644.355224941958	3283.6566261118
0	19274	871932.230615629074	2290.8382663496
0	19279	872165.94435722002	6019.1502993291
0	19287	872249.53888443266	4824.2753020976
0	19340	873607.969056438775	3959.9848503768
0	19345	873613.75406078613	8568.0123218038
0	19351	873921.126877612589	3470.1630059435
0	19356	874370.478686183853	5246.9576725328
0	19375	875355.46422621549	4766.3432765741
0	19391	875997.894657492013	5272.2445329772
0	19406	877099.620668293657	4528.478514141
0	19411	877351.53208224597	4301.2073340471
0	19416	877417.223152274144	4465.5104649966
0	19425	877590.480183925235	5399.0876108718
0	19456	878941.061098944233	6631.0968739046
0	19501	881083.030682294803	2950.0093112916
0	19510	881367.930455388631	1223.7762673461
0	19519	882019.490268810785	4273.5857829455
0	19527	882624.022978971692	6999.947923837
0	19536	883021.468656575358	3135.7207778556
0	19581	884262.621042354277	9396.9018527094
0	19586	884287.70406747553	5985.1332669386
0	19618	884654.202902876475	839.4427820832
0	19633	885377.220940813724	6659.9545944988
0	19699	887840.509511145183	3855.9048314557
0	19708	888080.39216564202	3747.1253497439
0	19718	888634.308531544613	4277.2637883496
0	19727	888961.147258778786	8583.4308399714
0	19732	889150.802215849365	6064.1318790864
0	19741	889670.953347133002	4586.0108335128
0	19746	889682.025222402135	4455.8236844895
0	19751	889702.258217886833	2984.0652919717
0	19762	889821.490337558856	3390.9182667472
0	19772	890118.383850417796	5674.1756920891
0	19778	890456.500994219281	6979.659431552
0	19816	892708.811356202161	2994.8975196155
0	19824	892833.417820424213	4941.5866336555
0	19870	894794.099101491038	2792.023299245
0	19875	894965.669498778514	3390.2551927832
0	19883	895467.083216507212	4671.7582140234
0	19889	895500.009993230062	2361.1668250882
0	19897	895569.465782049225	2729.0600026409
0	19952	898868.586349870397	6046.6990995403
0	19960	898937.601966851952	11745.006864989
0	19965	898978.075630672554	2488.9254629095
0	19973	899097.451956583028	1963.5294819279
0	19982	899534.078402783321	2640.1661918672
0	20053	902228.285534811284	8650.7773510744
0	20062	902745.554235464544	5234.2680981387
0	20194	907556.912604296179	10698.360857121
0	20199	907565.377333638948	7508.0488516725
0	20211	908256.199591911828	7915.5035271283
0	20216	908622.320420931238	7511.7979194064
0	20225	909006.429665155146	7542.9726933007
0	20246	909358.007152064826	6292.6252806323
0	20267	910219.432694775301	6778.7394677614
0	20317	911704.628852877427	11283.770165053
0	20337	912736.357729999952	12828.93309886
0	20354	913633.372363221398	11233.32416452
0	20359	913751.185787796779	9816.0185928163
0	20364	913887.419729752683	10819.694370393
0	20373	914262.309119327291	9437.3403285226
0	20381	914642.723622866234	9107.9101175123
0	20386	914667.8228162829	7469.6781530826
0	20398	915079.478669907761	6303.3364448023
0	20412	915836.233287570865	6802.1463728963
0	20440	916958.496593247646	7450.0620696412
0	20455	917505.933011714804	10469.107528175
0	20538	920814.17687572975	11323.445609657
0	20543	920944.147913527399	10422.19085921
0	20552	921211.041878472378	10048.940095959
0	20568	921416.940467111099	11224.246075373
0	20708	926437.704685251783	20237.698572036
0	20786	928486.88912866418	18613.891354189
0	20792	928529.451014689968	16441.514589762
0	20801	929477.112709063588	23096.206660112
0	20809	929589.467107152402	14125.005973359
0	20814	929895.55907769343	13764.057629287
0	20819	929966.040911953019	17460.364200021
0	20835	930941.331042730428	26509.419149463
0	20848	931390.300729767469	12935.426630386
0	20859	931614.431184051867	13612.330806146
0	20867	931890.163403515922	13224.28376128
0	20928	934318.004415719917	17153.654096417
0	20948	935096.371890071854	17960.968453292
0	20953	935132.020320038624	13983.747085069
0	20977	935919.634780951837	20845.75837695
0	21012	937325.068852887843	15936.755205615
0	21027	937970.243436560008	18348.630148316
0	21053	939484.13847491744	17686.793543619
0	21058	939557.240638585629	17966.992700901
0	21067	939773.480690774685	19726.116589331
0	21077	940354.57401448015	18642.605199412
0	21082	940488.389951379508	16334.044647886
0	21088	940534.976661753281	18923.589779316
0	21093	940684.790051253344	15524.28260104
0	21098	940963.678366357333	14459.935318252
0	21106	940998.352342628	16474.337584212
0	21111	941158.837799995603	17140.962278541
0	21117	941365.390247445272	14025.730037246
0	21122	941467.505351066685	20110.777943733
0	21127	941502.348540137552	17168.097980051
0	21135	941673.778520689549	15360.227941237
0	21143	941953.006088297476	14391.43969258
0	21203	944358.223251789861	19613.741887318
0	21216	944699.313473035824	13316.635483817
0	21222	945192.607718643604	20325.287087125
0	21236	945633.373949156024	17979.774156618
0	21261	946234.401424982304	14592.988819713
0	21266	946235.705786104747	14145.026291578
0	21271	946490.78472357177	15631.355266305
0	21292	947241.321095549367	20632.3620251
0	21313	947989.202151828633	15906.1648456
0	21318	947991.974539902482	20233.276416758
0	21324	948161.929026116638	16064.463016454
0	21329	948317.980642254668	12942.378620082
0	21334	948345.944589371218	14304.658910154
0	21339	948466.079928477556	12752.621312197
0	21350	948741.177519262876	11380.177408821
1	1134	62220.244756204234	0
1	1143	62978.095838083095	0
1	1153	63769.102488354401	0
1	1161	64370.975048577299	0
1	1173	65129.926462584262	43.586571448967
1	1204	66421.41538663063	0
1	1213	66821.068758241716	146.74093569486
1	1239	68415.415815585364	0
1	1248	69574.895568292395	0
1	1271	70062.008077932177	209.28404924567
1	1285	70656.672201582859	69.853524034411
1	1299	71205.050497017225	302.97113935856
1	1311	71812.105331165341	217.59597810675
1	1334	72864.921241850107	742.03878688797
1	1339	73134.30147058741	992.49041743197
1	1359	74450.738427527237	0
1	1395	77476.08476590466	0
1	1406	77938.911852131395	384.26298043374
1	1412	78322.477844803854	444.35287253281
1	1439	79713.710746306321	1122.6660063688
1	1471	80584.591911745557	0
1	1480	81450.542551852616	0
1	1498	83065.509674508232	0
1	1519	84259.333384770506	293.90164167715
1	1533	85222.590104627696	0
1	1542	85501.183101715048	0
1	1550	86018.665177613957	494.1067520207
1	1576	87053.618764225962	0
1	1595	89285.681940749873	0
1	1603	89405.800162427917	75.788853551946
1	1611	89722.638995651497	128.36642248655
1	1627	89977.089263736708	0
1	1644	90707.006101696912	0
1	1654	91787.883617057029	0
1	1677	92712.084898604117	15.477076521157
1	1690	92926.136909392912	156.58637463908
1	1704	93117.44342003318	0
1	1746	94704.066627325368	0
1	1791	98692.391251110264	0
1	1808	99488.088887739351	26.32030674677
1	1825	100452.314702598435	0
1	1842	100797.809697402526	0
1	1868	102324.442817942802	88.711503798643
1	1887	104500.176593054243	0
1	1895	104935.173738853578	0
1	1904	105194.772721768847	216.59426452866
1	1921	105933.84035550856	0
1	1938	106718.415460723823	0
1	1947	107402.757606585136	0
1	1956	108202.10105658606	202.33677622901
1	1972	108692.447074430915	0
1	1987	109485.117564696378	579.1393386524
1	1999	109969.350239844806	791.26304036547
1	2004	109969.728245028598	68.888892107038
1	2030	111438.777553231037	83.842985086104
1	2064	113704.28607255089	2100.1855472405
1	2069	113979.180584527376	1839.9175690497
1	2110	116625.93488489316	1023.3018028127
1	2115	116834.489682875202	471.7736471722
1	2124	117191.350456356633	622.61505318808
1	2129	117220.796792241979	203.09157272399
1	2142	117366.031036700402	95.74352963847
1	2161	117829.382984289927	0
1	2194	118953.790871607281	232.20701598354
1	2209	119885.069375616598	369.94046938357
1	2246	121824.38848532141	0.740102310867
1	2273	123851.224007406041	0
1	2285	124905.728057379021	1008.2592717859
1	2290	125035.759334520991	178.71897203446
1	2302	125804.562548266663	478.00631485903
1	2326	127426.687063063901	1424.1476422536
1	2338	127731.216710363196	1694.2524820994
1	2351	129324.356692680203	1806.4526500772
1	2359	129487.90820100182	1629.3791054602
1	2364	129529.724770703243	375.89714031986
1	2373	129845.831460395501	398.80974691108
1	2388	130657.338997934796	271.09300480139
1	2402	131164.418189314315	647.36701232527
1	2414	131268.246168269734	240.70526346172
1	2434	131759.986661365476	540.05431884696
1	2439	131782.307404101254	522.63900400542
1	2447	131933.767233449246	267.35411308408
1	2452	131947.97834251403	227.70133117882
1	2461	132011.889893665155	283.32115886376
1	2478	132367.421720670879	101.37871611218
1	2487	132922.93587769733	572.24447116519
1	2513	133658.932990421769	560.49200912616
1	2518	133715.052486293502	604.34248915986
1	2524	134385.137178259734	973.17503874755
1	2529	134452.089019966773	923.30570510317
1	2582	135493.150829641761	0.461557328513
1	2602	136218.632102661134	208.72370296063
1	2624	136752.063635531166	63.257242440053
1	2640	138191.485643905044	541.31951288356
1	2682	138717.948883629882	266.77597501963
1	2688	138812.9024339742	290.4964967097
1	2697	140026.159380003128	1383.3086699455
1	2731	141910.744967856205	1278.7468040026
1	2739	142429.972303625045	1726.8602004166
1	2778	144562.909076822129	131.51421817307
1	2855	146476.049271937851	242.44456232519
1	2863	146752.642700937582	0
1	2872	147078.360862715673	185.18785921264
1	2880	147746.023054776622	0
1	2889	148114.507542937014	0
1	2897	148208.802254387894	82.682888582201
1	2909	148942.597597281229	366.2338183075
1	2923	149706.975112069313	0
1	2931	149732.272973134877	0
1	2940	150129.247430578056	0
1	2948	150417.327280211563	148.75268542994
1	2967	152872.939243974344	343.29882613014
1	2979	153620.270369201507	744.75324779326
1	2996	153981.146449973746	221.97316225692
1	3004	154390.647246545378	613.40342078786
1	3082	158196.532624238678	1180.1329169796
1	3095	159059.402951413402	1328.3733508684
1	3100	159183.492476760136	167.78481848098
1	3137	160227.654780893714	368.89605323797
1	3152	160559.9783303353	192.53496695548
1	3157	160665.857844700034	152.35065828055
1	3168	160780.48262872448	249.703304335
1	3173	160989.675501555902	222.45890212655
1	3199	162131.90107279441	647.12445765072
1	3215	162638.409158496889	249.14285130538
1	3239	164036.31693327106	834.99973347674
1	3247	164091.711555825843	786.28824035845
1	3253	164280.156825018326	785.25650417821
1	3264	164696.054759845136	162.13489367253
1	3277	164993.824345564417	125.93394338344
1	3298	165839.423946576015	269.40738387108
1	3356	167263.313212472601	429.13392539354
1	3364	167920.889609147682	976.20642089118
1	3397	169127.958302709251	184.80360843416
1	3415	170759.68215296898	0
1	3432	171296.407985208433	0
1	3440	171621.145070150088	289.07039058125
1	3449	172023.175425750765	136.28911600179
1	3458	173090.342192327076	0
1	3466	173213.65729917604	0
1	3502	174823.741862030014	175.97146296699
1	3507	174866.164342629688	62.355918410273
1	3552	176204.473989129002	360.97363285006
1	3557	176227.099510127307	156.31146735122
1	3563	176532.060949693172	373.69439116526
1	3587	177119.490138939873	17.480917297512
1	3609	177931.183635939522	0
1	3623	178463.854422868648	422.55021959757
1	3638	179018.043923457205	802.45490426403
1	3650	179439.026285860106	1117.68845724
1	3656	180068.788182049431	1310.7345272085
1	3662	181047.139629903155	1803.868690361
1	3670	181167.025493291463	37.923956227863
1	3709	182653.061548797426	19.280411372982
1	3748	184010.435055226484	181.67234850695
1	3760	184849.795543599116	550.27043011279
1	3782	185546.334785076049	522.26680601339
1	3795	187263.929397532221	2030.7682005339
1	3800	187479.140380891654	1076.9162943486
1	3814	187740.720854270268	0
1	3830	188149.480823903387	0
1	3858	188694.807159010091	40.176016330735
1	3891	191561.827339942207	203.78957611728
1	3899	191849.712893771896	0
1	3916	192213.873312178125	0
1	3950	193570.863568729793	0
1	3958	194224.109553275956	0
1	3967	194799.038929495548	22.907986799407
1	3979	195429.305994302358	516.96564050784
1	3984	195547.455522384836	172.19851755552
1	3993	195848.920666729928	297.38127075088
1	4001	196026.798871903972	0
1	4025	197142.407040202105	577.54602202348
1	4068	198381.219443165717	0
1	4083	198818.618765853163	292.05471225375
1	4091	198991.973703928878	262.4892776616
1	4100	199528.843385331254	651.06092111267
1	4105	199643.631348408697	268.04454628787
1	4160	202608.726492254571	164.39923670137
1	4179	203598.032831381724	0
1	4188	204329.364093067332	0
1	4200	204915.137973612834	577.99867877187
1	4215	206305.377423768724	0
1	4224	207019.755919205446	0
1	4232	207296.34739970224	0
1	4246	207540.905643604071	37.959986811645
1	4275	208585.25731216843	99.87866691352
1	4292	209524.536538226819	260.71854744799
1	4316	210521.116141976222	0
1	4334	210960.638306298745	293.07250689129
1	4345	211263.377248913786	553.62976954582
1	4373	212851.304692946033	54.117331486537
1	4385	213258.283320504053	335.66175148392
1	4403	213527.260192456386	90.393169333732
1	4415	213968.448502171715	207.96085628105
1	4440	214751.410464573236	363.10765585398
1	4448	214886.142993411115	73.665989442663
1	4461	215179.291343393469	179.51841598967
1	4493	216294.04486589959	597.18134683159
1	4502	216863.528585080815	999.41115462427
1	4507	216981.900936900962	996.42272916399
1	4512	216991.251992502781	898.64822356644
1	4520	217316.828920344314	813.0417234032
1	4533	217411.810567902535	15.764125333229
1	4562	218826.03481482472	638.40496914082
1	4585	219765.274176381367	111.04216036756
1	4593	219877.663716558585	0
1	4610	220530.279246135744	0
1	4634	220935.689596034838	0
1	4662	221675.149162038607	168.04922360865
1	4674	222371.097112595144	23.56536120934
1	4711	223869.240279045723	471.09135958718
1	4723	224554.987209703908	566.23677398887
1	4728	224887.273260224509	851.26452718033
1	4740	225157.994473653708	120.85873569771
1	4767	226301.519651183838	457.3959323031
1	4772	226442.636072189372	507.88110277213
1	4784	226693.046509177157	83.154242012545
1	4802	227180.32994006481	0
1	4832	228251.216330009389	96.194785462338
1	4843	228427.382427333041	145.20207433509
1	4848	228520.163177553979	193.74732925426
1	4903	230269.824467082039	0
1	4911	230721.220572722379	0
1	4956	234253.879104509134	84.410234037343
1	4975	236678.522940400981	0
1	4993	237881.651152298095	110.85571511466
1	5001	238364.609218485404	0
1	5010	238832.190258023977	0
1	5019	239948.588273713542	0
1	5028	240251.686463563067	0
1	5036	240493.583046949211	32.23175961055
1	5054	241474.990019619459	397.18994571084
1	5060	241527.219496768924	103.51450917885
1	5077	242290.160550208469	469.07323628821
1	5096	243367.915911244526	0
1	5107	243721.95375961311	277.76443240197
1	5122	244033.014761668671	154.35982006795
1	5127	244332.518283599635	400.56876168794
1	5135	244466.949174638014	91.856463652518
1	5163	244946.756731606012	154.15405180594
1	5187	246263.565192873168	489.81697289034
1	5204	246995.571571342475	249.59848651709
1	5212	247169.264254661643	241.35176450877
1	5217	247179.326279128611	92.12959394989
1	5243	247990.222900144297	202.23591156355
1	5252	248546.473656893835	716.47247088595
1	5263	248740.544372576142	885.80840263397
1	5272	249260.620322116523	605.2195912171
1	5280	249432.620457529359	26.592575335995
1	5297	249935.507264422441	66.500618172611
1	5305	250206.203823042992	179.95509237414
1	5323	250798.952651633536	83.821735837338
1	5332	251266.295098319937	509.78707547912
1	5340	251447.483170015474	636.48674400537
1	5356	251908.259136857769	114.62277099522
1	5401	253484.626063694303	952.59618497942
1	5423	254600.044528265568	1888.2535141042
1	5431	254812.023289745332	1447.784468892
1	5446	255454.388254882095	1794.7045633128
1	5451	255583.266399873498	1794.2603648407
1	5456	255619.76922628311	703.84709928817
1	5468	256377.450803253853	673.67615998996
1	5480	256554.733877243986	99.914227797861
1	5525	257638.716790183912	76.795379079925
1	5550	258549.232302880734	406.10207717414
1	5567	259240.263541171503	29.687892380451
1	5587	259769.581451325718	283.83833347134
1	5608	261862.639228328531	299.52476601519
1	5629	263760.284229738094	8.822734332959
1	5643	264510.636228008762	234.64254600027
1	5671	265900.236107349517	65.444519003884
1	5680	266865.743506498163	309.03174510246
1	5697	267152.820450597922	13.914476727521
1	5705	267273.569869914459	47.468951141193
1	5732	268552.393450773155	578.92961118139
1	5743	268700.256262004793	703.45215459388
1	5748	268722.501012140512	354.71420130095
1	5753	268956.631712631047	290.54305081494
1	5805	270550.708964949345	22.800400500561
1	5840	271686.097264104643	318.52127773223
1	5853	271956.86454321893	161.9043131819
1	5862	272289.62832410531	131.26803840581
1	5888	272897.227587382795	125.36459194538
1	5897	273042.773753252727	46.781625639209
1	5930	273947.951365595001	127.33269999494
1	5967	275929.487618299139	697.6489369096
1	5973	276228.337544286591	428.10098357949
1	5984	276541.238706060372	87.665506261519
1	6018	277966.156902236023	453.28872591907
1	6033	278792.495332814989	984.33644147249
1	6045	279179.423396979819	142.9533389611
1	6050	279437.78676865446	386.85348696303
1	6078	281018.359041443351	467.05356131034
1	6091	281249.259932427859	149.63482245171
1	6116	282133.069526309302	0
1	6158	283521.910292169828	0
1	6175	284459.67633516769	0
1	6186	284709.097223573575	186.8275006839
1	6209	285813.558393525056	93.868028056847
1	6217	286096.960843184126	264.40224541782
1	6226	286899.359237888415	0
1	6241	287989.394234286455	1066.3295326494
1	6247	288136.943107946143	192.29319437221
1	6262	289544.368585144685	0
1	6293	290684.425391116414	57.837309745507
1	6320	291920.819522739126	641.64795618802
1	6328	292265.782201596969	751.20762051828
1	6351	294643.497971574529	1805.1359911854
1	6356	294749.604444277667	1358.4452027538
1	6365	294929.563796208869	1326.4416178664
1	6370	295001.146848495301	972.54183363473
1	6382	295586.000347310001	1008.9391035136
1	6393	296045.05441511328	529.28714355614
1	6441	297365.778814766997	2.466236115671
1	6469	298009.359664092904	338.96273873242
1	6474	298222.78891996405	280.91250930327
1	6479	298330.249660448505	373.11319792609
1	6488	298780.399028097592	290.99308337935
1	6510	299364.95467330048	64.654480589992
1	6559	302517.598430094071	0
1	6596	306395.925348910237	0
1	6614	307452.123976631651	467.35662404056
1	6629	308074.455408103961	774.91214567642
1	6638	308253.582842513072	833.21624795965
1	6643	308254.451077538195	689.64653109914
1	6648	308878.89650912331	1165.5086581205
1	6653	308902.589840073731	763.76694097607
1	6680	309391.462079640696	0
1	6689	309924.94601031265	196.81528222901
1	6748	312665.361378832486	0
1	6758	313760.190174958076	0
1	6783	315940.604014465508	281.91758040005
1	6792	316648.278194838557	732.33264034646
1	6800	316885.665621204761	41.735597897483
1	6818	318176.039821620022	154.79166005577
1	6842	318687.044794772214	196.27643160315
1	6848	318994.766892483108	455.17671769849
1	6856	319444.896346394629	143.41674370701
1	6877	320569.307540347396	1071.586441537
1	6894	321136.541820577068	65.497284468724
1	6930	322785.358164295796	106.89668571526
1	6938	323232.897023277686	0
1	6948	324038.725885270073	308.81154098596
1	6956	324152.315099179477	0
1	6992	325208.216463643112	62.559042076848
1	7015	326375.14513405006	0
1	7032	327382.194839774902	0
1	7053	328666.562678706379	545.61381013767
1	7061	328947.199921609983	754.40791779276
1	7066	328949.117030413657	144.43875403038
1	7078	329514.545706903495	65.445248349999
1	7090	330064.316896469039	185.40370934652
1	7112	330886.316373436542	433.33438665687
1	7134	332180.057483464666	0
1	7152	333444.185342132008	105.32511857176
1	7169	334388.161529818086	0
1	7199	336533.10873970117	1042.2250039972
1	7211	336857.860717871432	945.75714455571
1	7216	337002.604598733941	373.91181283826
1	7237	337202.026117366988	42.718487270956
1	7249	337624.333257647109	224.57686129304
1	7279	338831.751425840738	119.03354038885
1	7297	339954.087941234917	166.07637294447
1	7322	340610.152756755749	0
1	7342	341705.376421034025	622.05512273252
1	7350	341840.825758114858	444.59855328404
1	7359	342275.963771092201	458.49268410727
1	7382	343638.481236555046	0
1	7417	345344.978219720457	803.99940979833
1	7423	345837.633875858455	675.3252896852
1	7450	346839.948472306777	0
1	7458	347171.471954670782	283.08644333149
1	7495	350443.075653031161	0
1	7505	352242.189939858584	0
1	7515	353258.812304196661	0
1	7523	353294.280930494222	0
1	7549	354953.68955013496	0
1	7574	356094.457435031096	0
1	7584	357187.769234919524	0
1	7593	357979.551436070507	0
1	7637	361272.604168514607	0
1	7651	365457.923043266954	0
1	7661	367099.445835118457	0
1	7669	367174.936217312792	0
1	7681	367504.799283211728	258.45387382383
1	7689	368135.394317701285	180.34513492571
1	7738	370513.735341453451	0
1	7746	370840.702055877109	0
1	7763	371826.350720946894	0
1	7781	373128.360610187035	0
1	7796	373875.205356914676	653.1756382206
1	7801	373914.120734874628	138.43509183447
1	7822	375190.995801649383	1228.2179380918
1	7827	375224.232793705016	756.21438994362
1	7835	375592.211512503163	281.16577863293
1	7875	377634.19902041158	236.24952100949
1	7887	378314.357651482166	310.85922578026
1	7892	378356.471619840057	42.97216056834
1	7910	379952.058797165182	0
1	7921	380218.948316833472	228.59892915806
1	7930	380436.202124827401	294.02295060264
1	7958	381672.897451555196	552.19243711686
1	7970	382363.691982947362	931.85851431847
1	7979	382764.859056750079	402.07551437004
1	8000	383384.70552963068	876.6009658404
1	8005	383818.459385337552	886.50865734489
1	8014	384058.386891644189	881.07114372271
1	8062	385766.531891472762	149.82536546812
1	8085	386718.682688503767	363.73498682284
1	8090	386785.449838848211	230.55713414433
1	8107	387317.396779453596	191.94332793652
1	8123	387738.402326807526	239.08109726045
1	8129	387842.877551215491	279.3943639986
1	8173	390870.198121028894	0
1	8190	391808.08326576466	0
1	8216	393055.350757187847	0
1	8234	394117.294302045492	397.24007703289
1	8242	394145.929212109984	144.36899586581
1	8247	394339.009905287972	205.29809329957
1	8279	395534.642104697995	235.72162438193
1	8295	396766.150180961916	672.73761230873
1	8300	396966.203199260138	323.05554199111
1	8354	400410.887452409306	1436.2492855916
1	8359	400431.029495278529	1004.3748245517
1	8365	400621.154283691545	1001.9329172574
1	8384	401205.447368991615	512.57478754974
1	8390	401351.651649074577	215.09757185721
1	8398	401700.318658522015	309.25456392707
1	8408	402774.748021522224	903.72792454006
1	8419	403335.603574076453	79.143636566617
1	8434	403657.915967467928	277.50771229168
1	8442	403942.1721448077	390.23859886124
1	8447	404060.135700603103	259.23444409716
1	8486	405627.275014336849	161.06177356356
1	8492	405858.342326401649	335.97553563579
1	8532	406623.983369891184	234.36587268154
1	8551	407356.226908621537	212.22288883635
1	8564	407489.314125998376	50.391812079099
1	8575	407694.038579579869	105.48871748615
1	8604	409683.581306361324	402.736096405
1	8609	409824.475824979596	320.74816338199
1	8622	409927.764562406745	0
1	8656	411471.533631510784	0
1	8665	412024.911438642776	339.58954182415
1	8673	412201.214477950178	158.02952595495
1	8682	412519.487532732181	0
1	8698	413079.459345756062	0
1	8725	414986.166628071239	0
1	8733	415084.352205077651	0
1	8762	415929.375573594425	373.36675238712
1	8775	417024.208983664899	1389.041666604
1	8813	417974.835685542159	89.644067429597
1	8831	418303.828677122069	38.033159129825
1	8845	418671.570902623249	76.24312623068
1	8858	418912.986435150807	34.494276914763
1	8875	419811.934685055823	0
1	8890	420638.871508591133	305.58490190784
1	8909	421058.513279499765	0
1	8940	423679.720334400677	892.78155471634
1	8946	423912.90980930117	839.04245650331
1	8997	426840.713170205065	169.79802057554
1	9007	428949.780891808153	0
1	9016	429343.352679817633	0
1	9024	429631.844502171533	0
1	9045	430572.864114889155	235.67436060485
1	9050	430834.688235258357	335.76864530273
1	9068	432739.500856528229	0
1	9078	434159.87817481742	0
1	9120	435713.994610911361	0
1	9138	436597.349919489912	0
1	9158	437474.982808183305	137.77556747887
1	9169	437811.74307444508	185.88406337937
1	9174	437921.257388659125	214.95105388457
1	9201	439761.664176554192	282.83639893098
1	9215	440404.338244835904	0
1	9232	441182.604164238215	0
1	9270	443286.88186718204	574.242577395
1	9278	443625.996111927441	328.73591764653
1	9295	444394.00734407367	332.07874995755
1	9303	444689.506959838306	184.79070834643
1	9334	446049.771411076399	0
1	9343	446287.081953490729	0
1	9351	446654.585945681775	0
1	9369	448465.190312365345	0
1	9378	449200.778625557719	617.17310946949
1	9387	449424.720905408057	0
1	9395	449563.979471301872	0
1	9412	450111.377790771609	0
1	9453	452211.034102194877	713.73888953878
1	9458	452224.011663284591	429.65801457224
1	9464	452257.494570633165	222.7950556943
1	9488	452950.752276218103	202.16535610617
1	9501	453942.346918138434	65.950615301607
1	9528	454642.721475117319	439.49335241307
1	9543	455546.140602419182	703.14745910048
1	9548	455548.718556895669	152.22804456764
1	9607	458612.520270792521	0
1	9618	458994.451452325741	209.61513648736
1	9624	459331.95290671973	351.22996844956
1	9658	460353.071580068662	322.19528215291
1	9667	460655.798453336717	618.34894401319
1	9672	460971.898766801743	796.61534862313
1	9677	461213.335386495424	582.01360887532
1	9689	461388.598787691141	31.036120311158
1	9700	461467.400282982968	24.148746240654
1	9712	462248.998503740626	702.9573577599
1	9717	462295.016585924004	404.89361229279
1	9757	463536.745619932762	271.22181584925
1	9762	463574.793135285931	198.72565467131
1	9781	464097.324808931543	378.10060992597
1	9833	465558.116483823349	430.91854872294
1	9844	465687.95852396088	116.36012079961
1	9850	466117.365840078522	519.86159392397
1	9872	466920.038689833248	178.64116380825
1	9891	467271.321150946627	0
1	9909	468816.428223588119	118.46047242765
1	9952	471572.971153757394	0
1	9960	471733.215937749195	74.455653607071
1	9969	472081.431510142142	25.52497212887
1	9986	472582.130845793633	0
1	9994	473140.800574392146	0
1	10003	473909.631450644777	0
1	10012	474277.297207332377	0
1	10028	474506.069872912479	0
1	10036	474731.146277691492	0
1	10070	476226.036199535738	0
1	10108	478145.320118484634	199.09994121468
1	10113	478341.524650521928	388.79257346511
1	10128	478859.954625187431	225.20567033337
1	10133	479212.022524695965	556.47484232895
1	10174	481905.928789903638	0
1	10182	482027.070311868352	0
1	10218	484633.534105741104	0
1	10227	485625.971330865298	0
1	10247	486505.503413832418	309.71033210897
1	10253	486944.613778918803	643.81730508353
1	10279	488921.047692238051	144.55439091168
1	10288	489283.674827001648	0
1	10304	489725.187232289295	0
1	10313	489894.641224222338	0
1	10331	491960.565779540247	0
1	10346	492332.442106332937	240.05050054893
1	10385	493751.80039618201	444.31825437971
1	10390	493775.070725427995	356.82290375912
1	10398	493848.82023048342	34.828703964894
1	10415	494834.270299449769	0
1	10423	494998.378129932173	0
1	10474	496938.406937118173	129.25625163876
1	10483	497408.848167278903	0
1	10491	497856.684783013476	299.16172416902
1	10509	498783.653867529639	0
1	10544	501373.657159099869	273.23270639142
1	10565	502501.463069794232	532.70621347401
1	10588	504449.63593749588	0
1	10605	505373.032890590742	0
1	10617	505934.805216030834	363.6545296078
1	10622	505969.272958722027	66.898695049372
1	10631	506484.881533483511	347.33798992126
1	10639	506679.116471222654	0
1	10648	507100.293339039144	323.05697937273
1	10699	510363.034110894351	1179.7303398331
1	10714	511130.64106125483	1944.8353522747
1	10725	511391.105170314353	1603.2304578679
1	10730	511425.539528894525	1066.1424478083
1	10742	511701.794959576088	1146.6862589081
1	10747	511904.558072930255	1197.1408040718
1	10758	512098.288118324872	845.00866875322
1	10763	512118.420618733169	796.18239616327
1	10768	512156.891270461285	629.32244211602
1	10791	513053.371343755368	161.41800372302
1	10823	513809.061771590574	386.36040678842
1	10831	513978.404498886939	380.50343632102
1	10836	514001.395108174054	266.51167043148
1	10844	514283.640243976129	522.53730141021
1	10850	514641.715594273249	773.15244816987
1	10866	515236.9998462183	28.52022880255
1	10880	515386.99726644267	20.087778054267
1	10901	515517.529849889942	85.892111199781
1	10917	515976.918151201141	239.67664891587
1	10936	516982.087784336845	765.34537705576
1	10957	517299.685138824948	147.38103635413
1	10976	518159.571228694422	191.50369944894
1	10988	518570.527267702426	113.57145659361
1	11000	519267.230386507808	380.62612429208
1	11017	520301.367235499357	352.8418982205
1	11039	520661.202447797605	94.951499325938
1	11050	521085.860519473926	406.61736414506
1	11065	521401.049620422047	291.19532556067
1	11082	521799.768946754483	201.22264326409
1	11095	523061.329118225008	1447.8773154593
1	11114	523778.864097390949	210.55513499285
1	11133	524297.744377222053	21.968332977005
1	11160	525045.497485136169	51.528268608496
1	11227	527243.560990605936	968.34935537194
1	11239	527982.473799684913	776.63043419107
1	11248	528161.798285095285	757.95462991304
1	11253	528303.362144143535	744.84148742278
1	11295	530392.601323481541	0
1	11306	530669.191435688335	206.3773539973
1	11321	531442.65000860087	511.63439052156
1	11330	532182.369474559128	732.05169952843
1	11350	532710.091005689564	398.63972302696
1	11358	532862.195021276882	9.346094536548
1	11379	533246.112272302081	4.736858913022
1	11433	534920.89363724899	334.01589408149
1	11438	535003.596012328575	324.61070910681
1	11447	535773.43978311781	220.34805232005
1	11455	536001.763490731323	69.265885179166
1	11469	536507.186928770138	121.48219903311
1	11482	536825.995955495215	80.62851145394
1	11499	537013.707812634006	65.267276995858
1	11510	537239.236923776011	285.15295549236
1	11529	537977.264854128867	0
1	11546	538644.044351943193	0
1	11561	539343.639201413371	340.70129648127
1	11566	539406.868477406133	203.22797195079
1	11581	540000.052413955188	707.18536275455
1	11597	540275.445444738729	48.420921737338
1	11605	540684.195748408418	66.306542931537
1	11617	541296.791742090577	275.66592471666
1	11703	544038.768498271071	111.80559745603
1	11723	545501.335001803386	161.6842931485
1	11731	545835.465039408659	0
1	11740	546245.291865662829	289.76943072227
1	11772	547553.762099018241	694.52535684953
1	11777	547589.244374816215	215.62975031118
1	11785	548129.651621940434	270.44800350919
1	11794	548561.556621976673	312.54532941379
1	11810	548751.402845248028	122.31199805402
1	11816	549097.310986205079	380.10004760002
1	11847	550240.349135751086	534.95305996315
1	11889	551740.066860330504	299.6176608938
1	11894	551790.252511204529	317.18655232908
1	11911	552416.047999608239	32.927102885989
1	11942	553895.53042193821	0
1	11951	554254.870060310069	53.071007896003
1	11959	554777.003215976866	0
1	11985	555815.050525086479	0
1	12013	556587.493934110621	3.384177386743
1	12036	557395.851183838627	629.85370473147
1	12041	557461.763092385752	496.64790924768
1	12046	557490.005462860594	407.82833092382
1	12061	558005.453728006277	862.31657468674
1	12066	558020.228605983723	388.9924412666
1	12084	558755.817975944271	1107.5377428069
1	12092	558921.665924735718	554.87915369005
1	12107	559597.514219313902	1049.3820066405
1	12112	559612.486866344063	830.5004555108
1	12120	559941.212878611505	947.77728691341
1	12129	560476.648089298274	1110.4478322141
1	12147	561088.345223167757	1073.5466017988
1	12152	561187.028899884198	263.67308851371
1	12205	563407.812318155637	426.88972643813
1	12216	563725.762946325718	707.75629533438
1	12237	564402.101673644343	899.05116265868
1	12242	564667.3768053699	661.11964865819
1	12247	564672.371409986096	421.47535176227
1	12259	565000.904397398665	614.12971296516
1	12274	565813.696794733284	951.84886702628
1	12283	566993.318112329426	1474.2313070573
1	12305	568261.566494370455	639.06810856826
1	12310	568317.574452770036	471.71595977761
1	12320	569400.710099324225	1027.8431081143
1	12347	570960.822814610834	850.59139806374
1	12352	571455.869148438897	1134.1817531235
1	12358	571858.50017044401	1083.3529828887
1	12363	571916.988385212809	962.7549980079
1	12390	573178.032412455032	398.56823704328
1	12458	576797.454758174085	265.07066454043
1	12481	578446.606057528558	1057.3218042123
1	12509	579392.421377987424	774.59251718533
1	12515	579828.857158667423	1203.1084086468
1	12526	580161.776865249929	1115.0150696425
1	12534	580430.430466521399	1212.4513020538
1	12546	581016.717455412495	961.55683899573
1	12552	581263.710754456694	929.07129953714
1	12557	581264.96468439702	492.29944026844
1	12627	584819.967141852934	62.780039984229
1	12646	585472.971842406003	129.382135389
1	12664	585528.22193633633	20.873454891346
1	12673	585957.886486376386	0
1	12690	586546.108743133838	204.79049309246
1	12698	586795.261898726603	25.415689990644
1	12706	587065.570091612208	0
1	12747	589012.315168115621	211.2075864421
1	12796	591950.997562110844	201.10163358089
1	12826	592510.658779105747	92.379575274719
1	12837	592880.941246100572	120.70598310846
1	12845	592981.971510440975	186.36960875034
1	12857	593413.405873424431	282.05550036695
1	12880	594364.179994336461	686.55392936893
[...]
7	15811	727799.341916880628	6
7	15825	728125.999475256885	7
7	15833	728324.019104600579	6
7	15836	728422.461338775182	5
7	15840	728468.677403479048	6
7	15844	728482.222238537472	5
7	15867	729674.316514561138	6
7	15870	730477.996073231628	5
7	15884	731112.425646448597	4
7	15892	731545.315193918901	5
7	15897	731577.889179351966	6
7	15910	732056.572075914809	5
7	15914	732301.054888493199	6
7	15918	732617.633765690866	5
7	15936	733154.704541897933	6
7	15938	733350.068752404905	5
7	15954	734290.248537574937	6
7	15956	734437.571519861003	5
7	15970	735146.239524111113	4
7	15973	735192.802281753232	3
7	15977	735199.833133713328	4
7	15981	735286.477081493226	3
7	16003	736081.505974958619	4
7	16008	736303.929960687867	5
7	16014	736579.171095008405	6
7	16018	736635.529011184896	5
7	16022	737210.133780015525	6
7	16030	737400.73088883627	5
7	16038	737766.544967902709	4
7	16055	738058.484722456694	5
7	16059	738138.721284354033	4
7	16073	738770.277886599602	5
7	16078	738791.653949801412	6
7	16083	738858.372777970111	7
7	16088	738932.917737495668	8
7	16092	739285.577201999124	7
7	16095	739347.435967977316	6
7	16099	739363.082628322068	7
7	16104	739375.59740560483	8
7	16110	739625.994264922247	9
7	16120	740416.331826560304	8
7	16131	740622.557076458136	7
7	16135	741168.203673289578	6
7	16144	741531.962981871771	7
7	16161	742130.52700611053	8
7	16165	742449.657762172165	7
7	16170	742756.385454512954	8
7	16179	743047.767488240624	7
7	16204	743720.566264094309	6
7	16214	744005.941785788218	7
7	16222	744164.473421418881	8
7	16227	744250.948564337642	9
7	16231	744393.114104954974	8
7	16234	744409.141334668075	7
7	16237	744490.109167862196	6
7	16240	744572.482770268318	5
7	16246	744673.550369593922	4
7	16262	745130.593010015146	5
7	16268	745680.579428724402	6
7	16273	745723.659938607199	7
7	16286	745923.587413695107	8
7	16336	747131.089980755128	7
7	16339	747248.606355476573	6
7	16343	747300.845473322757	7
7	16348	747575.440665389333	8
7	16353	747582.135894287087	9
7	16358	748281.355832788333	8
7	16361	748366.414210916358	7
7	16375	748619.867017882065	6
7	16392	749618.880334439661	5
7	16397	749701.937659878222	4
7	16406	750125.989018438833	3
7	16417	750641.443456001765	2
7	16436	751723.21934204971	3
7	16441	752028.245176453966	4
7	16443	752154.203303174385	3
7	16458	752609.137713733344	4
7	16465	752978.969982598185	3
7	16478	753503.204776786929	2
7	16485	753818.232855018169	1
7	16492	753844.942644168844	2
7	16496	754365.312087165254	1
7	16501	754652.95471574971	2
7	16506	754864.761316158201	3
7	16510	754966.553403032394	2
7	16513	755051.257255667003	1
7	16521	755372.289556720082	2
7	16526	755683.419229935983	3
7	16531	755838.314194439831	4
7	16536	755868.033101824121	5
7	16546	756282.85870443321	4
7	16549	756501.576071001756	3
7	16552	756712.121998454906	2
7	16595	758294.709110095481	3
7	16600	758382.262091234828	4
7	16607	758618.118284638009	3
7	16620	759262.714684377149	4
7	16625	759418.500919480684	5
7	16629	759636.657504694042	4
7	16632	759736.107410749674	3
7	16655	760840.85759965084	2
7	16670	761604.659111686128	3
7	16673	762202.434296797398	2
7	16690	762700.472915223478	3
7	16696	762800.612700454528	4
7	16704	763100.154002951663	5
7	16707	763833.819469032147	4
7	16721	764144.942347910204	5
7	16728	764207.848899696759	4
7	16733	764383.305968914768	5
7	16741	765327.946148118684	4
7	16754	765686.746357380952	3
7	16759	765850.77827832592	4
7	16766	766003.38413735261	3
7	16775	766122.107815864663	4
7	16792	766788.345428967643	5
7	16796	767030.662573244786	4
7	16804	767341.610771004784	5
7	16809	767573.342864090969	6
7	16813	767594.934273656978	5
7	16824	767888.307443183936	4
7	16828	767918.116675209575	5
7	16850	768786.083719562097	4
7	16854	768836.863080188606	5
7	16865	769133.932335499629	6
7	16869	769196.880390169332	5
7	16873	769291.108277211738	6
7	16878	769395.816582998749	7
7	16888	769569.922670042748	6
7	16905	769888.628417586524	5
7	16908	769923.331767041714	4
7	16912	769962.041841438022	5
7	16917	769963.439044733188	6
7	16923	770258.098532527282	7
7	16935	770513.508295856212	6
7	16943	770555.820821809518	5
7	16954	771037.650262810051	6
7	16959	771400.896999713606	7
7	16966	771598.364516326605	6
7	16969	771744.017930145764	5
7	16973	771777.600579519615	4
7	16977	771801.432490486402	5
7	16981	771968.146755999459	4
7	16984	772140.282447730407	3
7	16987	772317.556724322319	2
7	16994	772379.457302210721	3
7	17000	772628.354813869417	4
7	17009	772723.84836016045	3
7	17025	773380.134976338031	4
7	17029	773513.99627210124	3
7	17039	773705.063205980025	4
7	17043	773740.5524793168	3
7	17047	773783.101596248646	4
7	17051	773810.665828533225	3
7	17055	774301.304346507527	2
7	17059	774547.043397842778	3
7	17082	775236.167041035866	2
7	17086	775281.45103072482	3
7	17090	775401.292959378378	2
7	17109	775883.351755053463	1
7	17133	776755.743742055929	2
7	17137	776851.702217662178	1
7	17142	777234.321720095683	2
7	17147	777281.288533362064	3
7	17167	778341.909730217544	2
7	17183	778880.157920724425	3
7	17188	778886.546343518838	4
7	17192	778963.003205789268	3
7	17232	780132.334660617189	4
7	17240	780218.584608548521	5
7	17248	780553.838551812591	6
7	17253	780560.707427810238	7
7	17257	780677.998915971748	6
7	17260	780729.982813116528	5
7	17264	781046.67057355979	4
7	17268	781341.916043434269	5
7	17276	782060.709934264238	4
7	17289	782459.652484544781	5
7	17293	782462.227923650446	4
7	17297	782515.997799285544	5
7	17306	782698.620476713375	4
7	17315	783342.050065505068	3
7	17327	783747.69695837182	4
7	17351	784361.816949274302	5
7	17365	784940.695981295594	6
7	17367	785100.211761553026	5
7	17376	785722.270346747532	4
7	17381	785789.464898645929	3
7	17384	785802.864902898781	2
7	17400	786527.296241937202	3
7	17415	787193.4541322784	4
7	17419	787228.400519242024	3
7	17427	787737.548974380209	4
7	17435	788368.729452805765	3
7	17441	788857.640910347407	2
7	17445	788872.114951194617	3
7	17450	788932.005797436905	4
7	17455	788944.506891717457	5
7	17461	789081.29520079126	6
7	17469	789696.175605874195	7
7	17474	789802.267066397354	6
7	17477	789912.48148329965	5
7	17481	790011.671899332121	6
7	17507	791848.25809013752	7
7	17511	791869.683492346078	6
7	17515	791965.839265181041	7
7	17520	791979.985161790021	8
7	17533	792253.841180145374	7
7	17537	792345.906771542039	8
7	17556	792653.670911577929	7
7	17578	793417.093705170544	6
7	17583	793459.814158521287	5
7	17587	794081.896771213321	4
7	17604	794693.867336640238	3
7	17619	795156.097495987445	4
7	17627	795662.609033984721	5
7	17629	795722.697377634343	4
7	17635	795877.340784559567	3
7	17644	796596.170297268045	2
7	17660	797735.035813388054	3
7	17672	798100.265694532472	4
7	17677	798159.88506904725	5
7	17682	798554.514232944116	6
7	17701	799024.69872833626	5
7	17705	799068.355539809881	6
7	17709	799244.04392249214	5
7	17712	799400.092752980096	4
7	17716	799415.089671308199	5
7	17722	799513.288736746996	6
7	17726	800110.806372617755	5
7	17729	800155.739941848074	4
7	17732	800178.448029632967	3
7	17758	800944.721724663596	4
7	17764	801151.918492846253	5
7	17783	801762.795578772034	6
7	17795	802308.818359266895	5
7	17799	802356.564727126778	6
7	17807	803021.351077218294	5
7	17817	803624.442138078124	6
7	17821	803745.033313657048	5
7	17833	804689.077571154945	4
7	17838	804733.557511342612	3
7	17852	806344.893456620821	2
7	17857	806387.973254437892	1
7	17875	807128.854037978488	2
7	17887	807805.3181691935	3
7	17892	807875.516907769956	4
7	17894	807878.154398651677	3
7	17911	808055.872250518251	4
7	17915	808116.244008712362	3
7	17918	808341.456047443252	2
7	17923	808522.679004013653	3
7	17936	809280.79182971131	2
7	17950	809625.39821443076	3
7	17958	810098.691319961043	2
7	17968	810280.548320796241	3
7	17976	810510.749563357129	4
7	17981	810570.385130397559	5
7	17985	810675.131373058799	4
7	17993	811053.388256989048	5
7	17998	811144.454201794783	6
7	18002	811174.802534474054	5
7	18019	812030.64815441375	4
7	18022	812113.558763898832	3
7	18026	812239.456476410907	4
7	18031	812507.433602617444	3
7	18044	813232.326445573469	4
7	18062	814313.80438313702	3
7	18071	814713.870251355439	2
7	18092	815734.411249222113	3
7	18097	815761.997084043204	4
7	18102	815800.638446902344	5
7	18104	815875.228084883902	4
7	18109	815943.567522363773	3
7	18113	816155.341886538553	2
7	18126	816668.142464109408	1
7	18146	819073.250640238942	0
7	18153	819207.823358313524	1
7	18167	819634.213788138315	2
7	18172	819735.490892141176	3
7	18178	819823.220891266636	4
7	18182	819913.688466432461	3
7	18185	820328.024474246984	2
7	18189	820402.868063303387	3
7	18193	820406.588285501549	2
7	18202	821112.362137857714	1
7	18218	821848.372975671168	2
7	18222	821982.081449360201	1
7	18226	822021.499941121541	0
7	18230	822145.852244761809	1
7	18239	822588.520048254928	0
7	18255	823490.657308210214	1
7	18260	823813.112784572169	0
7	18264	824113.784358869063	1
7	18269	824263.922037911667	0
7	18296	824864.297011638204	1
7	18310	825400.69202904707	2
7	18317	825538.512536993591	1
7	18339	826767.25444771449	2
7	18344	826966.684879755134	3
7	18349	827100.837728538655	4
7	18352	827376.347343013835	3
7	18365	827719.169232614462	2
7	18368	827925.777285876662	1
7	18372	827962.25027924814	2
7	18393	829529.527090966216	3
7	18401	829752.557284684435	4
7	18403	829850.101407364804	3
7	18421	830536.911571856935	4
7	18426	830575.283903059185	5
7	18428	830588.298638821551	4
7	18443	831447.05653834538	5
7	18446	831862.485485216286	4
7	18454	831974.415894794989	3
7	18457	831980.392960769536	2
7	18466	832628.491592565099	1
7	18470	832797.486097228543	2
7	18475	833269.715905474826	1
7	18497	834345.093006520705	0
7	18512	834857.092439269984	1
7	18521	835968.221846151203	2
7	18533	836715.450656759619	3
7	18538	836896.926879800204	4
7	18547	837186.577550725938	5
7	18549	837207.792893690268	4
7	18557	837408.308180102001	3
7	18565	837485.788787225224	2
7	18571	837809.126901446365	1
7	18589	838936.847519193016	2
7	18593	840101.691128954525	1
7	18607	841010.288227577627	0
7	18611	841468.891256088249	1
7	18635	843381.438412609942	0
7	18640	843752.843567922956	1
7	18645	843864.925689478169	2
7	18650	844244.635256702736	3
7	18656	844549.256396055524	4
7	18668	845113.886316300982	3
7	18672	845128.361016044545	4
7	18677	845464.683784903274	3
7	18698	846362.085459023967	4
7	18703	846933.464558741949	3
7	18706	847141.718204999461	2
7	18713	847246.668812023706	3
7	18719	847551.046868124447	4
7	18737	848412.519557625635	3
7	18741	848453.644866908179	4
7	18754	848617.076505651372	5
7	18757	849385.097050091242	4
7	18770	849539.224497849865	3
7	18774	849654.973213589002	4
7	18782	850036.796797652306	3
7	18796	850705.10967915848	2
7	18800	850767.550502887771	3
7	18804	851195.08739910998	2
7	18817	851433.456929199266	3
7	18832	852970.542646312431	4
7	18835	853661.021647871663	3
7	18850	854499.092590798804	4
7	18858	854856.156114781017	5
7	18868	855933.665741247382	6
7	18876	856165.18861256907	7
7	18878	856254.566762346743	6
7	18887	856565.929111291845	5
7	18895	857025.316179061436	4
7	18910	857707.305686673783	5
7	18918	857810.630632773028	6
7	18927	858176.91019728884	7
7	18936	859742.250146453462	6
7	18939	859772.052950555636	5
7	18946	860063.408179564956	6
7	18951	860230.38833118741	7
7	18961	860404.201848273796	6
7	18969	860475.779932576953	5
7	18987	861461.890178774024	6
7	18990	861928.502065034297	5
7	19003	862407.691501636538	4
7	19011	862639.980505459002	5
7	19016	862669.820374034709	6
7	19023	862770.263477848766	5
7	19031	862875.519529614073	4
7	19045	863218.002663834831	5
7	19047	863227.932349390171	4
7	19053	863408.642789172643	3
7	19069	863615.605787339762	2
7	19076	864038.302574591478	1
7	19080	864163.781434714556	2
7	19085	864200.815902440098	3
7	19093	864948.262437271144	2
7	19106	865638.75870882253	3
7	19110	865696.355631153637	2
7	19114	865795.758293493648	3
7	19118	865980.684809721597	2
7	19121	866124.202167704285	1
7	19134	866355.390301752303	2
7	19147	866830.721999035061	3
7	19170	867842.324324526461	4
7	19174	867960.688160535788	3
7	19178	868051.54449743806	4
7	19190	868429.793638112964	3
7	19212	869712.197822850853	4
7	19216	869843.524309025294	3
7	19220	869858.09058966817	4
7	19225	869920.187047114876	5
7	19230	870194.015272447508	4
7	19233	870390.594005064137	3
7	19247	870701.976793086466	2
7	19255	871020.901099319409	3
7	19259	871159.522496484347	2
7	19264	871720.334707368535	3
7	19269	871815.62940514583	4
7	19296	872533.46268151927	5
7	19303	872903.769815346693	4
7	19314	873053.404585538247	5
7	19318	873093.07686046574	4
7	19321	873187.230520497774	3
7	19325	873296.738727985184	4
7	19330	873405.689677568933	5
7	19335	873452.640591295184	6
7	19359	874588.319808675037	5
7	19364	874659.544660818555	4
7	19370	875107.98847635739	3
7	19380	875494.345356870241	4
7	19387	875714.188455086809	3
7	19397	876404.597115853869	4
7	19401	876436.036508722794	3
7	19419	877527.33741018459	2
7	19433	877944.747565286845	3
7	19442	878286.544037385829	4
7	19444	878294.60703601704	3
7	19462	879224.822017424776	4
7	19467	879367.410997131115	5
7	19479	880266.230805124195	6
7	19488	880517.826141422297	7
7	19493	880802.473592697026	8
7	19495	881047.780829630515	7
7	19504	881290.474774308123	6
7	19512	881911.279406826923	5
7	19521	882333.814429323082	4
7	19530	882769.088001920645	3
7	19548	883586.516878843086	4
7	19553	883615.931340767697	5
7	19561	883940.591519598183	6
7	19568	883994.278899424481	5
7	19571	884105.759282276937	4
7	19575	884221.677825435495	5
7	19597	884370.877119565857	6
7	19604	884450.64021727818	5
7	19608	884482.800598580706	6
7	19613	884597.560703872534	7
7	19621	885050.819979907261	6
7	19637	885528.905089822031	5
7	19641	885877.267431884465	4
7	19644	886248.311696250237	3
7	19651	886483.761759846402	4
7	19660	886928.823010163217	5
7	19664	886929.405659628969	4
7	19668	887044.258951976219	5
7	19676	887195.871531620307	6
7	19680	887210.068245760473	5
7	19684	887240.746295158439	6
7	19689	887491.982316165037	5
7	19692	887497.17151822302	4
7	19695	887770.834506610752	3
7	19713	888291.1764537235	4
7	19722	888688.78376449245	3
7	19737	889589.916234572311	2
7	19758	889761.175765266615	1
7	19767	889868.924621729045	2
7	19787	891138.936343394546	3
7	19795	891850.80801809211	2
7	19801	892188.096076296604	1
7	19805	892484.821004996325	2
7	19811	892689.786945662743	3
7	19832	892915.558730637052	4
7	19840	893540.865915248962	3
7	19846	893601.610105741302	2
7	19850	893634.727060780903	3
7	19856	894226.984425729112	4
7	19860	894366.020398862257	3
7	19864	894572.060278010423	4
7	19879	895033.895628138934	3
7	19891	895535.476961633051	2
7	19906	896705.03924266818	3
7	19924	897572.256858425149	4
7	19929	897608.376043843299	5
7	19935	898114.048990214617	6
7	19939	898292.614681099299	5
7	19944	898575.955333993689	6
7	19948	898598.274184902788	5
7	19956	898935.913237210644	4
7	19967	899054.090516001718	3
7	19976	899408.900223175378	2
7	19991	900045.458361339739	3
7	19998	900102.009059100456	2
7	20008	900453.653638167357	3
7	20014	901026.66089844221	4
7	20018	901033.387024386196	3
7	20025	901350.458799099596	4
7	20033	901519.389174529601	3
7	20037	901603.031883023286	4
7	20042	901633.825042557162	5
7	20046	901653.707228043832	4
7	20049	902117.838179817791	3
7	20073	903226.042794711806	2
7	20077	903386.610201498513	3
7	20082	903432.303953450726	4
7	20089	903446.985406702686	3
7	20094	903779.09317895085	4
7	20102	904267.574056677903	5
7	20106	904292.893137319975	4
7	20114	904654.834721815878	5
7	20121	905140.596453960868	4
7	20128	905591.785746508965	3
7	20131	905628.938236482047	2
7	20135	905771.796501768073	3
7	20140	905838.806591701715	4
7	20149	906214.369947322857	5
7	20153	906320.70416054388	4
7	20160	906463.544674677436	5
7	20165	906915.591203241008	4
7	20172	907144.496306266323	5
7	20180	907405.114053767818	6
7	20185	907536.447988432613	5
7	20189	907540.961005833978	6
7	20203	907764.987371813632	5
7	20206	907985.405108341561	4
7	20233	909121.39839423828	5
7	20237	909256.485057498321	4
7	20241	909354.796060100671	5
7	20256	909567.388134953341	4
7	20272	910366.600476130163	5
7	20276	910370.770312050045	4
7	20280	910441.36533303578	5
7	20289	910601.075302287781	6
7	20293	910631.230756097133	5
7	20297	910704.773370869591	6
7	20301	910749.284682900726	5
7	20304	910761.023577676337	4
7	20308	910770.293261387171	5
7	20322	911721.07364328655	6
7	20330	912387.321577429107	5
7	20343	913095.69208214082	6
7	20348	913116.164283390775	7
7	20368	914199.166010140667	6
7	20377	914334.353290679873	5
7	20390	914807.928778763723	4
7	20403	915099.481951498457	5
7	20416	915887.969598048151	4
7	20419	915985.347709671253	3
7	20425	916253.603458882562	2
7	20429	916332.469092075321	3
7	20435	916552.469862150601	4
7	20451	917372.234402642018	3
7	20460	917654.803708889686	4
7	20468	918033.922218048055	3
7	20472	918389.74434814363	4
7	20483	919226.63643919317	3
7	20487	919404.131251656751	4
7	20492	919605.768286331301	3
7	20499	919724.032854963659	4
7	20504	919749.604194713773	5
7	20508	919821.63323866251	4
7	20515	920239.774752039699	5
7	20519	920249.246322895954	4
7	20523	920261.096890354538	3
7	20526	920407.509330344919	2
7	20529	920717.143126582043	1
7	20533	920798.291545130903	2
7	20557	921231.399692248316	3
7	20573	921434.803016099108	4
7	20591	922712.616057048494	3
7	20595	923116.209135383196	4
7	20599	923216.750972880403	3
7	20604	923272.113858986185	4
7	20608	923330.816460765166	3
7	20616	924088.711697474342	4
7	20621	924132.056523238741	5
7	20628	924275.216924696204	4
7	20635	924492.803950044013	5
7	20643	924692.771478648975	6
7	20655	924990.249976352912	7
7	20662	925273.05898817914	6
7	20666	925309.769833943546	7
7	20671	925344.187931480573	8
7	20676	925407.408935015774	9
7	20681	925821.065172417937	8
7	20685	925823.520102006755	9
7	20689	925876.828602211066	8
7	20692	926020.472365106815	7
7	20695	926106.194057434033	6
7	20700	926278.475873028441	7
7	20715	926597.526927800799	6
7	20722	926892.33015390397	7
7	20728	927082.235674925338	8
7	20735	927472.28641069208	7
7	20749	927842.436096470586	8
7	20754	927853.576038843393	9
7	20758	928136.871786962943	8
7	20761	928254.695001959205	7
7	20764	928301.432941030128	6
7	20768	928328.996813607842	7
7	20772	928361.912589798626	6
7	20776	928382.724887724957	7
7	20781	928437.644688382532	8
7	20796	928932.49238735888	7
7	20805	929562.429120424498	6
7	20824	930153.747433012675	5
7	20827	930566.797331492489	4
7	20840	931357.573571740818	5
7	20854	931565.934846701531	6
7	20881	932222.707347056669	7
7	20886	932396.002070235073	6
7	20890	932470.080729326235	7
7	20895	932881.694932036841	8
7	20899	932934.753107541179	7
7	20903	933063.441268409477	6
7	20906	933219.963241524038	5
7	20909	933406.775295349277	4
7	20913	933524.711862923357	5
7	20921	934123.590264976821	4
7	20924	934198.837602665824	3
7	20933	934784.229174685335	2
7	20937	934831.708719242482	3
7	20941	934938.926892232459	2
7	20944	935069.079061492077	1
7	20964	935490.385404220431	0
7	20983	936576.738738970051	1
7	20989	936975.623644653653	2
7	20994	936990.905820855407	3
7	20998	937038.079474961157	2
7	21002	937160.554366965186	3
7	21007	937190.929510776688	4
7	21023	937758.179555716182	3
7	21032	938406.793911432942	2
7	21036	938775.947742426441	3
7	21041	938843.940358446012	4
7	21046	939041.84460548611	3
7	21049	939339.695825131372	2
7	21072	940322.696268462455	3
7	21102	940988.368155069464	2
7	21131	941534.384582105261	1
7	21152	942223.502678065455	2
7	21170	943485.386213006793	3
7	21176	943628.669876140376	4
7	21180	944050.212748537658	3
7	21184	944142.469565340326	4
7	21189	944217.290262062932	5
7	21194	944225.769858728571	6
7	21208	944584.806993683391	7
7	21212	944661.051166263076	6
7	21229	945323.721164971551	5
7	21240	945704.46224256962	4
7	21245	945763.140335330311	5
7	21249	945940.408297607604	4
7	21252	946022.255174324697	3
7	21256	946157.464774280758	4
7	21276	946554.48222151422	3
7	21285	946942.25539724481	2
7	21298	947356.281352040885	3
7	21303	947363.736168826657	4
7	21308	947416.253948451865	5
7	21362	949063.214825700471	6
7	21366	949075.716857194615	5
7	21370	949097.809734910365	6
7	21378	949423.023294870216	7
7	21383	949487.266775058421	8
7	21391	949892.881755042549	7
7	21395	950309.195165091918	6
