file 398568 1483627025                                          
version 2
run QueueMeasurement-35-20170105-15:37:05-4557
attr configname QueueMeasurement
attr datetime 20170105-15:37:05
attr experiment QueueMeasurement
attr inifile queueStudy.ini
attr iterationvars ""
attr iterationvars2 $repetition=35
attr measurement ""
attr network SimNetwork
attr processid 4557
attr repetition 35
attr replication #35
attr resultdir results
attr runnumber 35
attr seedset 35
param SimNetwork.a.parkingLot.parkingDelay exponential(45min)
param SimNetwork.a.runway.landingTime exponential(5min)
param SimNetwork.a.runway.takeoffTime exponential(5min)
param SimNetwork.a.runway.throughputCheckInterval 12.5min
param SimNetwork.wg.interArrivalTime exponential(12.5min)

vector 7  SimNetwork.a.parkingLot  parkingOccupancy:vector  ETV
attr source  parkingOccupancy
vector 4  SimNetwork.a.takeoffQueue  queueLength:vector  ETV
attr source  queueLengthSignal
vector 3  SimNetwork.a.takeoffQueue  queueTime:vector  ETV
attr source  queueTimeSignal
vector 5  SimNetwork.a.runway  landedThroughput:vector  ETV
attr source  landedThroughputSignal
vector 6  SimNetwork.a.runway  tookoffThroughput:vector  ETV
attr source  tookoffThroughputSignal
vector 2  SimNetwork.a.landingQueue  queueLength:vector  ETV
attr source  queueLengthSignal
vector 0  SimNetwork.wg  responseTime:vector  ETV
attr source  responseTimeSignal
vector 1  SimNetwork.a.landingQueue  queueTime:vector  ETV
attr source  queueTimeSignal
0	1422 51702 1176 21277 61654.500326643052 950312.561421299866 1194 521.73410773522 40581.144534341 7912728.3776689 70590160330.47
1	53124 48213 1178 21261 61654.500326643052 948996.882716528418 1176 0 2284.2720903027 442568.92331882 361747988.53048
2	101337 69182 1170 21261 61580.724440911969 948996.882716528418 2352 0 7 2342 4808
3	170519 49287 1166 21279 61480.017548093211 950312.561421299866 1195 0 12757.048681964 2643956.4440297 13112401430.429
4	219806 70153 1166 21279 61480.017548093211 950312.561421299866 2378 0 22 8941 74697
5	289959 19596 1168 21275 61500 950250 1186 0 4 1178 2394
6	309555 19596 1168 21275 61500 950250 1186 0 7 1194 2778
7	329151 69417 1164 21272 61480.017548093211 949703.411686098317 2360 0 11 9712 48544
