version 2
run QueueMeasurement-11-20170109-14:11:54-5834
attr configname QueueMeasurement
attr datetime 20170109-14:11:54
attr experiment QueueMeasurement
attr inifile queueStudy.ini
attr iterationvars ""
attr iterationvars2 $repetition=11
attr measurement ""
attr network controltower.SimNetwork
attr processid 5834
attr repetition 11
attr replication #11
attr resultdir results
attr runnumber 11
attr seedset 11
param SimNetwork.a.parkingLot.parkingDelay exponential(45min)
param SimNetwork.a.runway.landingTime exponential(5min)
param SimNetwork.a.runway.takeoffTime exponential(5min)
param SimNetwork.a.runway.throughputCheckInterval 12.5min
param SimNetwork.wg.interArrivalTime exponential(12.5min)

vector 7  SimNetwork.a.parkingLot  parkingOccupancy:vector  ETV
attr source  parkingOccupancy
vector 4  SimNetwork.a.takeoffQueue  queueLength:vector  ETV
attr source  queueLengthSignal
vector 2  SimNetwork.a.landingQueue  queueLength:vector  ETV
attr source  queueLengthSignal
vector 1  SimNetwork.a.landingQueue  queueTime:vector  ETV
attr source  queueTimeSignal
vector 5  SimNetwork.a.runway  landedThroughput:vector  ETV
attr source  landedThroughputSignal
vector 6  SimNetwork.a.runway  tookoffThroughput:vector  ETV
attr source  tookoffThroughputSignal
vector 3  SimNetwork.a.takeoffQueue  queueTime:vector  ETV
attr source  queueTimeSignal
vector 0  SimNetwork.wg  responseTime:vector  ETV
attr source  responseTimeSignal
0	1432	63358.940233616818	12324.532304985
0	1465	64245.60556634173	12596.276206384
0	1526	66727.251431055286	19995.654049121
0	1535	67054.933937623446	18794.152668656
0	1547	68031.18979813711	17546.789543328
0	1573	68603.447865408843	16749.921236133
0	1612	69549.659725938027	18797.559341686
0	1628	69906.3265468176	17898.373610914
0	1633	69914.763887115191	15270.479205168
0	1641	70294.924132702367	13606.333384414
0	1646	70459.721299576486	12771.471288085
0	1658	70675.92049195326	14041.409784426
0	1663	70696.226438960956	19445.560413256
0	1668	71000.006177319882	14276.19875806
0	1680	71256.463246690154	12722.480353917
0	1695	71671.167055063746	12630.058237786
0	1700	71945.791967906354	13128.295342387
0	1709	72211.001455713757	14289.140242438
0	1719	72380.555967677418	17959.146197418
0	1725	72973.389092889066	13707.382880954
0	1730	73137.031448204211	15016.333437029
0	1735	73267.177671024201	14184.342898747
0	1744	73585.861240261218	11356.267024391
0	1749	73631.326518153574	11442.716875283
0	1769	74140.333668937308	10725.299028567
0	1793	74662.405443230545	10451.238173105
0	1801	74898.239018951979	11266.575835002
0	1820	75910.093901321186	11943.03553062
0	1849	76648.377968219304	17617.316923632
0	1854	76766.138007811649	10975.164159901
0	1859	76970.239497009207	9154.9620858617
0	1864	77022.277163895478	13023.875589199
0	1869	77084.667098218807	8667.1604915289
0	1875	77339.370791794125	8781.4026701578
0	1883	77480.053124366141	8222.9976816174
0	1888	77685.720352140376	8258.6494341037
0	1897	78016.661025954774	12020.226554211
0	1907	78225.892203077632	7213.2588907828
0	1912	78282.741284361938	7140.5798607412
0	1920	78443.742056818807	6428.1698019017
0	1928	78498.515849530192	10231.831306814
0	1947	79214.999237551476	5222.543640239
0	1952	79329.69462239204	5567.0602397943
0	1969	79896.541397848054	1955.8478094808
0	1987	80851.412243259976	5560.7236913196
0	1993	81179.60947628786	2681.8322399063
0	2001	81606.360210844478	6191.4234014038
0	2019	82608.901045062419	8658.1135713264
0	2032	82986.028759453704	7811.2731133518
0	2046	83816.696788530503	2217.6610861148
0	2055	84424.788623598538	5078.746577219
0	2089	86132.747015857004	7231.8236000402
0	2247	93618.837381408014	9125.7017995132
0	2253	94041.134011145073	9331.8685702816
0	2261	94100.594068115615	11246.854347561
0	2266	94344.796295671728	12210.857783022
0	2271	94382.912515087412	8178.0572604406
0	2277	94601.323805492163	18453.765836852
0	2282	94715.477645370447	6939.4591967964
0	2287	94859.30987612849	6560.1692831038
0	2292	94867.814676400888	7616.5821658755
0	2297	94981.161103222162	8448.4698582821
0	2302	95245.466645787727	6112.2950868653
0	2320	95909.028509852336	9081.7709944215
0	2332	97490.64346586548	5902.0820430726
0	2338	97508.966425324143	7673.9682484109
0	2343	97580.253734265548	7248.8042029551
0	2348	97854.207766622542	12844.044285707
0	2353	98184.122320620557	9562.700611939
0	2393	100806.334589027765	5111.4137414791
0	2411	101218.570097839179	13953.432047847
0	2417	101313.764939815956	2828.2371449267
0	2422	101931.777461268269	2724.0846860078
0	2438	103063.698012700102	11164.988909733
0	2472	104535.338323418589	1627.4201429399
0	2491	105141.311420640242	1583.7225378991
0	2499	105379.234872957785	4697.0447152215
0	2524	106155.280686610042	5649.0286189924
0	2533	106945.267721912247	4062.5515801205
0	2541	107063.497381389301	2671.4030979976
0	2566	109118.279688218976	4650.1874998509
0	2583	109774.996961930495	3917.597995153
0	2597	110292.064253374109	4641.4734480684
0	2610	110843.896144933221	1826.9658972076
0	2636	112357.576257296095	1046.571420501
0	2669	114264.24981648148	6072.0171224037
0	2686	114751.485337543221	3226.3668782742
0	2704	115365.302997514663	739.79586418221
0	2716	115726.205426728816	2857.3727410103
0	2736	116821.964890709332	3950.8305850771
0	2758	117338.462994342515	2619.9540816202
0	2766	117441.777859537142	3475.2546220391
0	2786	120063.691420785414	4416.8259645574
0	2791	120108.551618082026	10082.215202644
0	2806	121303.206503498431	11650.040247475
0	2816	121474.86782603749	4435.2845755659
0	2828	121871.34315402217	4506.2384392298
0	2833	121966.68505263104	5187.9754222881
0	2888	124665.581231211727	2119.2311756479
0	2893	125150.334836822679	1847.9033889367
0	2909	126406.927338082522	4070.1225206282
0	2928	127103.005913393606	4478.9152309301
0	2945	127526.61751544023	6688.8806357044
0	2970	128333.489972659762	1166.2196758394
0	2979	129343.110023308612	5552.0835234263
0	3035	132634.45663059017	4797.7246171033
0	3041	132877.306874482012	6737.1189808544
0	3050	133721.276201925769	6073.1523494875
0	3055	134058.752683409944	7819.9747901643
0	3065	135028.901277784687	5103.8761314952
0	3084	136183.709883872552	5795.5915567916
0	3101	136684.131665922161	2571.0661036544
0	3110	137312.387615639094	6200.2356112169
0	3128	139056.797451794076	3721.3683680021
0	3156	140247.579997717578	994.27248080978
0	3207	141995.667626357364	1869.2745806738
0	3223	142447.183674392578	1876.0631961822
0	3243	143085.905053846627	5360.3226567015
0	3263	143668.832339014429	4359.4634475183
0	3274	143906.469839931188	2075.7190111047
0	3279	143915.723839716407	1635.8198260301
0	3295	144920.976786670338	3475.9398555871
0	3347	147963.078131162708	7650.6670916191
0	3352	148294.459088031864	16750.471688689
0	3361	148913.104050619644	7664.7008339521
0	3366	148986.555098277256	12717.778646218
0	3375	149345.332211827078	6426.3565672594
0	3380	149410.447498348978	4825.5371081542
0	3385	149421.72711219666	4809.3295152845
0	3390	149651.158761216056	4926.3489772247
0	3417	151015.480726925774	5162.7864121937
0	3493	154131.953446216306	4131.4186004676
0	3503	154363.57274848175	4045.0932770166
0	3508	154491.923458566263	3698.9806850166
0	3529	155629.013291310275	3130.9327793254
0	3534	155701.564817759716	4373.5042724028
0	3552	156639.279560731711	4261.4828930658
0	3558	156911.563793381968	11020.602103775
0	3563	157179.528441584856	4768.61881392
0	3568	157250.104484715068	5649.2475151307
0	3624	160122.128149755052	6068.3603710351
0	3653	161375.70692275379	10474.477423515
0	3658	161676.628289050286	4411.1064542602
0	3663	161815.099530183624	4198.8876016177
0	3678	162231.042847008102	7185.645227704
0	3725	163722.910180446456	5428.3803488159
0	3733	164141.740319418846	5140.4884838364
0	3738	164224.850354911099	4251.745319975
0	3747	164577.387227536267	4059.7853127129
0	3770	165805.408072012678	3827.8408903081
0	3793	167075.507659230792	4809.0909457882
0	3812	167464.904510319295	2141.1577807312
0	3817	167546.577758661596	5061.2099427656
0	3825	167677.797997240431	3361.087661998
0	3839	168207.444659152191	4965.1545275438
0	3869	170366.900096746262	2734.3148890906
0	3881	171018.736780036207	2105.1844816327
0	3891	171522.907695419042	9389.4026270524
0	3916	173882.3917372052	8203.5350704332
0	3938	174369.94938088924	3414.1494372648
0	3951	174568.161834755984	8307.0508073044
0	3969	176246.789516277043	2042.9610248403
0	4137	183249.875422714248	10560.780570008
0	4152	183769.976883657584	10602.339294604
0	4165	183854.290622880231	7795.592903539
0	4173	183982.112382029941	7677.6999416387
0	4178	184300.536155341054	7412.5690901811
0	4183	184337.657166867543	7789.1391067253
0	4204	184811.536928865829	11405.51623796
0	4225	185390.567529124417	19134.515583613
0	4230	185592.128075920454	15738.729502082
0	4235	185634.522802130126	8054.4195938303
0	4244	186081.707065056691	4740.6206729361
0	4249	186315.024826244924	8521.7012986
0	4254	186483.438851950985	4920.586823539
0	4281	187364.652072110164	6737.4791205602
0	4305	188051.905494895906	8979.4159824741
0	4310	188094.058191822676	5531.3090682101
0	4315	188189.303531562955	8756.4707478073
0	4328	189238.16390155231	10984.752780068
0	4349	189737.569824718142	5192.6919497417
0	4355	189998.469179713588	12203.461630323
0	4360	190191.756397880855	8964.2132955
0	4366	190639.420774631265	7341.3810850375
0	4377	190847.117071609746	8389.6517603036
0	4447	193141.706618878193	6490.6069324359
0	4461	193551.142011636349	8991.7922419638
0	4476	194532.018532079468	9934.381609485
0	4490	195180.367563556699	6297.4526617513
0	4498	195241.417152130014	4480.0696672996
0	4517	195541.528167032222	4307.1458494839
0	4608	198640.441948401706	7209.7973485524
0	4636	199307.837052862921	12363.327748319
0	4641	199407.003380452307	6299.8119371272
0	4646	199426.118374900042	10122.445474956
0	4658	199749.087332789109	8213.1113840946
0	4671	200005.363401463415	13039.087212177
0	4676	200157.366668134419	9365.7336020484
0	4681	200185.201911849938	4950.4748971426
0	4690	200616.211190761493	4645.7590037753
0	4695	200639.942398180886	4905.7337100116
0	4706	200986.784455409369	8695.9704295176
0	4776	204792.310936476991	9342.8229127068
0	4781	204925.698499708534	10777.702374991
0	4786	205068.724871044026	7679.6959259251
0	4791	205105.848955322439	7493.585648852
0	4799	205311.109006010242	6856.7672794353
0	4811	205577.809465170676	6744.5615250577
0	4821	205879.101378059678	6394.4496608206
0	4826	206154.808880809671	9870.380471988
0	4832	206357.204392277236	9612.7833033512
0	4840	206438.838415317743	5335.1161020687
0	4873	207224.226647774378	6514.1322814952
0	4891	208020.156416356958	3769.0539147799
0	4964	211828.850695727029	16397.199438714
0	4969	211898.991426251653	8932.1993589225
0	4978	212271.387545880947	9794.9740310219
0	4988	212464.800065520885	6047.9407941349
0	4996	212522.757683374302	21121.11515183
0	5013	213007.837184946642	6428.0935751097
0	5018	213069.021884905353	12389.812572379
0	5026	213106.227148235776	4473.2045614383
0	5031	213122.028085489621	6183.2527756312
0	5036	213313.572371562882	5373.401325489
0	5041	213534.188973971322	8174.3011723399
0	5049	213710.009238350721	3778.5927330235
0	5068	213929.631079846704	4813.3174408776
0	5080	214783.287441154712	1213.0742827535
0	5095	215498.014275271195	3347.9582065855
0	5145	217381.112457476033	7132.9501873611
0	5154	217675.84156939938	7481.1062462819
0	5163	218617.172712751496	16308.973501971
0	5171	218903.210926861581	6427.3124580814
0	5180	219259.179527013054	5429.6573975481
0	5199	220136.63547960208	4958.4002667125
0	5214	220758.458030990906	5174.613458137
0	5237	222104.580851006005	7016.3939791113
0	5247	222326.916539685577	5301.7053276282
0	5257	224099.679227387384	2955.033272991
0	5272	224712.90132855423	4971.2928483651
0	5289	225440.785463048477	6192.1070734114
0	5299	225572.496221430744	3837.818901063
0	5315	225736.263085599989	428.83079195634
0	5324	226353.833581872241	5932.8142457872
0	5340	227259.652994108371	2773.3296340545
0	5359	228417.199697882794	1606.4120531254
0	5387	231506.058566042013	14347.00136472
0	5397	232541.171997438912	5455.7061886274
0	5423	233573.862413648381	3187.0262095686
0	5442	234300.642854570421	3683.3893432736
0	5447	234456.325501651054	8871.2339325083
0	5467	235051.638644212389	2283.9926482451
0	5472	235183.496243823138	1336.563990242
0	5485	236571.533661460576	3150.2932953771
0	5544	239243.483020661479	1702.5500591926
0	5554	240033.099409380775	2612.029261943
0	5568	240568.036101829724	6085.5738482957
0	5583	240656.739618744511	2707.9188151253
0	5596	241616.55489313447	1415.839941417
0	5613	242380.908812543666	6195.0840213847
0	5658	244012.891846046702	5924.0275585408
0	5663	244094.50573376958	3808.1935554823
0	5668	244222.360049635461	2020.8082284563
0	5699	246831.642846486717	3692.1600700628
0	5715	247178.504204527291	2747.4472559014
0	5720	247194.977397797278	559.8694356197
0	5781	250099.427390180942	8666.6327865845
0	5786	250107.638479156074	11295.611363348
0	5791	250128.774073375316	3310.3245339095
0	5797	250640.851301402174	7814.0560920232
0	5817	251204.375963884625	8324.5040339082
0	5850	252107.017603046538	3050.5329923952
0	5855	252397.944531813602	3942.0499547328
0	5867	252762.05684575632	2955.8796189092
0	5875	252968.325211388202	4217.3245881942
0	5895	253655.081560442701	5439.4487652905
0	5900	253886.375386359798	3099.9169083445
0	5905	253944.422612990989	2664.1519255086
0	5914	254888.739908267597	3706.1348345754
0	5950	257408.486996481282	802.39633773067
0	5962	258026.805687652543	1113.6304873251
0	5975	258438.375354805382	7096.7595332848
0	6024	262258.145211011021	5124.3441265007
0	6035	263052.31339303969	5069.8392342281
0	6041	263786.401442850881	3999.4934061898
0	6046	263803.162186016302	3201.3289804635
0	6055	264186.742222316766	3255.3798880527
0	6106	270495.817590612754	17701.73074782
0	6133	271678.699947838859	2258.6650940351
0	6144	272292.366037887862	10418.542441534
0	6152	272352.576413084813	2763.150257144
0	6162	272687.007765548253	3992.2290975666
0	6171	273464.480607747878	5268.658443657
0	6189	274635.544318412726	2342.6826540922
0	6197	275146.97337233482	3764.8614617301
0	6225	277844.193927161814	7599.7885065641
0	6234	278609.569936546663	4821.7130198244
0	6254	281410.999007274218	6166.8599082114
0	6293	286581.600687997289	9428.3651941671
0	6321	289575.235339220545	4907.8806649291
0	6341	290353.152770888117	1798.1071563549
0	6349	290738.896420945571	11997.685156797
0	6354	290762.483555845172	5384.592235239
0	6363	291220.673009762343	8486.4790435848
0	6463	296100.697050836939	3889.1445463336
0	6474	296233.711466415855	9509.4808128394
0	6480	296542.652324845752	2776.8427482166
0	6491	296701.251773648353	2794.7414138978
0	6525	298223.233710316053	5647.5205007952
0	6530	298308.016232890602	5336.7351854673
0	6535	298484.402700678349	8785.0068878569
0	6542	299449.623847669897	4935.902731757
0	6560	300407.056216704016	3629.4829837653
0	6624	302903.171338432655	10232.348572088
0	6636	303528.750844804988	9610.6658457371
0	6651	303915.251970556461	4163.8750325787
0	6662	304343.068411797108	3246.3875671372
0	6708	305959.318947201376	12249.827805276
0	6782	308930.979214019198	11768.383777625
0	6799	309274.830483607259	8205.0799783636
0	6804	309438.408887391771	9164.8698810228
0	6809	309618.785519349498	12921.130556467
0	6824	309780.03537079305	8158.0668699535
0	6847	310336.624123022511	8717.5951574772
0	6862	311137.116341438642	16466.012655243
0	6873	311539.931426105796	5875.8265152811
0	6878	311606.704362126254	7288.1181845378
0	6883	311609.643135329852	5942.2233655402
0	6891	311695.441035684729	4115.8565627671
0	6899	311731.43060888368	5044.494403272
0	6988	314991.141025444005	10456.65210523
0	7019	315958.071992564202	11693.901143614
0	7029	316065.548853998644	15483.58830143
0	7034	316083.413819260578	10388.055004633
0	7058	317078.183939247291	8524.6661217492
0	7082	317907.439680760265	11676.919367237
0	7088	318027.712492068312	8400.6933426295
0	7093	318161.812780335916	8437.1612583833
0	7101	318502.067633577543	10909.40730509
0	7129	318918.960252987248	7186.877827829
0	7140	319071.654005543832	6882.0210893375
0	7149	319501.536999928189	9852.4189803939
0	7182	320778.467030092536	8517.175897407
0	7194	321355.422836192705	6376.0184308825
0	7210	322050.754445672019	10342.255455617
0	7218	322319.485243092752	9375.6809044493
0	7238	323002.45205730464	10964.389778212
0	7244	323439.283054205185	9390.7027006955
0	7249	323484.303300834841	6976.7670228273
0	7254	323554.547209709437	7649.3102856384
0	7262	323909.074454861365	7817.3607684521
0	7271	324495.514340806698	13555.7786394
0	7276	324567.024073966734	6145.1094421572
0	7285	324860.582224276417	8176.355796869
0	7299	326002.130121234288	7274.9724300072
0	7308	326284.464967823923	6605.0228332965
0	7318	326745.720527114194	5475.0404870411
0	7330	327408.448451501249	7969.4278546896
0	7342	328234.471522321565	15836.736699994
0	7373	329492.792192145147	8506.2156201528
0	7378	329629.003326022537	14125.694137195
0	7383	329643.23659848143	9825.9981279374
0	7389	330339.137830271589	8039.4673303158
0	7394	330378.140074802204	5749.0279119291
0	7399	330471.660392030763	2663.5030099354
0	7427	331265.401012163083	5236.0559242161
0	7432	331278.061049844232	692.27117476647
0	7458	332916.141912103181	3782.3003646058
0	7467	333123.32787233162	2012.4321293047
0	7496	334616.758371781046	3085.9867271296
0	7514	336301.804620133987	2494.9604234748
0	7519	336531.676476238529	9117.7357866992
0	7551	338170.478083649813	6651.6748923056
0	7592	341073.656360153022	2970.4876978395
0	7605	341228.292640741962	4096.367267305
0	7614	341349.698132918543	3203.2541590338
0	7626	342120.318703982225	1498.272892142
0	7634	342244.797995125522	8348.5506048389
0	7648	343143.186210346121	5767.7612434712
0	7684	345309.844477684707	11317.933946426
0	7697	345526.894753011265	5376.6871070388
0	7702	345542.370733127264	4569.9973788038
0	7711	345855.546381769384	1981.8212074982
0	7733	346877.633683600321	1317.1461211042
0	7759	348033.431178738478	3471.9537323624
0	7767	348420.285164767572	6201.988935587
0	7792	349117.106482141139	3201.515733173
0	7813	350427.902470015991	3140.0579940177
0	7830	351113.714735795343	2554.0328763884
0	7835	351149.467096776773	4257.276567463
0	7869	352753.694213665006	3547.3338125541
0	7877	353106.450655031324	1623.7171076334
0	7915	354835.016375877161	3668.3700873588
0	7920	355030.998538159633	4937.9141428359
0	7954	356909.17526624495	4784.2397330162
0	7975	357560.760456355787	3125.4545097223
0	7986	357950.334530797452	2468.7981913149
0	7997	358283.98981839727	3806.889880135
0	8011	358733.262363679266	3512.7531671133
0	8016	358895.568809531325	14764.629625158
0	8025	359272.509010286407	6149.6665058073
0	8040	360403.589074990884	2953.5350633542
0	8055	360742.770678047333	4763.2848381195
0	8191	367747.671636729534	8236.1942387062
0	8219	368521.531859196084	19722.331455338
0	8244	369255.034602203283	7336.6120055346
0	8257	369634.117418320273	7624.2329257463
0	8303	371194.566740435387	9612.377648034
0	8314	372889.410750685063	14832.660807773
0	8333	373311.438790689631	12080.210736528
0	8381	375476.023053344941	10964.291352008
0	8389	375624.107754543001	15708.994486808
0	8394	375692.33629838798	9363.853733497
0	8400	376044.568030326163	11864.806990362
0	8405	376053.590285838241	13859.902014333
0	8410	376349.04936619011	14651.881334403
0	8416	377001.126383321056	11152.140322481
0	8424	377225.506192134882	10788.165231757
0	8449	377675.663333701399	9340.8295077078
0	8460	377949.068894684622	8333.8626417775
0	8479	378498.791030412997	9889.7649649939
0	8491	378944.968696193536	9702.4012964067
0	8501	379230.903848983158	9115.1253183578
0	8506	379245.927210481184	6926.589635725
0	8517	379470.513835545791	12472.278622442
0	8534	380062.702124418584	6490.9950288153
0	8543	380515.080581131013	7511.7148786143
0	8548	380535.496843519704	10218.04797861
0	8556	380898.726254837041	7889.4040417297
0	8562	381088.649309353739	7213.3903677679
0	8567	381240.065523678348	7299.5329652653
0	8572	381341.856535214602	4185.8292974566
0	8580	381672.551809055056	3826.80885018
0	8586	381751.028266983547	4300.1886894689
0	8591	382300.782119794994	4262.9326866174
0	8596	382451.844899079958	14545.163658596
0	8619	385117.943734480725	6221.6211161938
0	8646	387495.600745463011	2452.65190779
0	8660	387902.508753299607	1730.7618350349
0	8694	389093.84001983751	5001.7742716322
0	8710	389552.680764631292	2179.3111287745
0	8719	390040.862789986922	10759.258523373
0	8755	391190.197224817052	3031.8234384786
0	8763	391498.64090349987	1440.5066192978
0	8778	392399.710593161464	1389.3937472631
0	8786	392655.179550971156	3720.1183971673
0	8843	395069.24498541864	6317.2785003367
0	8852	395445.805436884686	3993.7139881803
0	8857	395721.913473659798	7377.2946789002
0	8862	395942.89875870767	5550.2845123554
0	8871	396571.292587686689	2833.4270499435
0	8904	398857.747968253943	4125.3813413208
0	8970	401971.050563226235	8598.023402071
0	8979	402460.455241825039	9072.4049276047
0	8988	402815.476138748826	8283.1302675885
0	8999	403762.756419926851	5910.577810042
0	9004	403812.376886757212	5632.301346139
0	9019	404595.711481951346	4305.5334990871
0	9027	404986.256401510033	4474.267989776
0	9038	405475.588975979174	6337.257384495
0	9047	405946.931115083992	5356.5010834025
0	9052	406095.833883181646	6339.0655153835
0	9074	408043.493128105073	10888.403727567
0	9112	408796.078914776712	463.68716977832
0	9121	409695.022148458626	4788.6744366208
0	9129	409831.446685465264	7137.053808331
0	9139	411003.412209171457	3654.9575757392
0	9157	412523.458596359559	4074.623093612
0	9166	413454.50520302931	5087.547012606
0	9185	413999.5702744523	7814.0474828931
0	9216	415238.654862285832	1510.2094185944
0	9224	415385.440128340371	1399.2981407449
0	9263	418048.495404307933	4006.7208650364
0	9268	418204.826007529053	1897.2959615734
0	9289	419707.664010032997	7713.3455330759
0	9294	419937.917680537154	4458.7236641447
0	9306	420567.793191680209	6121.3258133796
0	9355	423012.104151646052	2274.4497322372
0	9363	423343.914884662469	2828.3437117233
0	9371	423551.54368153103	4922.4680495456
0	9400	425018.116353509131	3310.7688769156
0	9408	425193.755942332577	3800.6661247983
0	9425	425570.749450369367	8954.5475580056
0	9436	425851.20083448289	1628.0182795008
0	9441	425917.72238976138	2259.6434520228
0	9447	426083.382464513167	4255.8841278224
0	9502	431767.22273547914	2974.5037596287
0	9597	433990.341247952677	5698.9348889742
0	9602	434055.723992295246	8930.5324199204
0	9610	434138.900464793441	2298.0210190874
0	9621	434475.245677758275	2427.0832361722
0	9626	434540.163648484108	2232.9119648569
0	9634	434882.235561818651	2726.6323979893
0	9649	435608.698774826495	6412.3053290606
0	9654	435653.741830666499	3034.8306715914
0	9664	436584.762531665555	4020.613400979
0	9697	437612.710747114576	5778.8213592615
0	9705	437676.411016398789	6368.1284418035
0	9710	437724.107852583953	1098.5813775413
0	9729	439021.457489802272	5660.3602710723
0	9739	439168.583139551627	6605.7558417382
0	9744	439258.512165838547	5191.3906064658
0	9812	443036.676038125502	6062.0094068536
0	9831	444986.664738850788	6834.7635614004
0	9862	445755.200094684515	9646.9054839073
0	9994	451426.564294935253	10985.616863616
0	10006	451778.228608174172	11141.171707025
0	10020	452409.087679620598	24516.552602052
0	10028	452699.781665743499	10975.230200931
0	10039	453159.672127277344	11709.659494046
0	10054	453775.250789860108	8128.9485141461
0	10087	454992.686942258094	14297.495145033
0	10146	456877.751034106432	11827.64019507
0	10151	456882.451808275681	11019.737123073
0	10168	457392.839234150003	11787.581725671
0	10179	457629.836759212202	14721.088574855
0	10191	458270.154037068971	13631.308301494
0	10216	459736.339826069176	13126.995593524
0	10222	459777.514468266667	13303.862350132
0	10230	459942.026544367151	11810.988747041
0	10235	460297.890866719929	13075.91329536
0	10241	460582.642935820693	12446.232093356
0	10249	460743.534438531345	9709.8467738442
0	10257	461075.973508211098	13086.750259198
0	10266	461446.601156756551	9942.9196581314
0	10272	462130.401852117162	13014.468605249
0	10280	462571.545461366843	8991.0154194532
0	10302	464278.327636105296	9803.1422167838
0	10316	465253.588832374823	10668.51165969
0	10321	465474.699215217487	9957.7299722669
0	10329	465640.975331730877	8974.9428674269
0	10360	466871.210914514519	11294.710771637
0	10380	469046.011396429932	21040.600535534
0	10423	471598.74422915976	19045.402193772
0	10434	471766.029874516314	16788.635726282
0	10439	472149.081439550892	18829.775282214
0	10447	472452.197597018144	15223.820297489
0	10453	472866.004804011737	19577.067196938
0	10458	472873.386023848241	14165.163448988
0	10467	473392.903819102973	11150.817461779
0	10477	473765.584179399118	16080.977703488
0	10489	474671.978864982653	8701.7053144377
0	10503	474974.951167748505	11402.462284727
0	10519	475152.696897017919	9049.6930379892
0	10530	475514.900126351131	9874.9741339647
0	10535	475657.275257477124	5854.2436791886
0	10543	475782.557523195048	8191.150991745
0	10548	475832.609743723008	5257.1655830745
0	10556	476234.523642924674	1395.1784053102
0	10570	476916.574106150691	3658.8227494128
0	10587	477403.421107493526	8021.4727103602
0	10608	478716.013047654744	3594.7570051452
0	10716	482780.742426602344	6821.0195466593
0	10721	482806.87578064022	13796.651451193
0	10727	483158.972131690993	9213.1669731805
0	10748	483841.5787695767	5220.8425516672
0	10758	484392.97813499656	7109.0935585596
0	10763	484432.155906022259	5384.6037962132
0	10772	484759.926367355082	4699.2983431345
0	10787	485434.809500888939	4964.0266958769
0	10811	486045.601869975567	6929.1278068715
0	10819	486284.300626418264	4756.1315334377
0	10832	486644.34082017848	6472.8259651636
0	10841	486790.603001717223	4864.7360497527
0	10857	487413.452240951598	9525.9194248182
0	10862	487489.953212716362	6712.1010754449
0	10871	487585.404400785854	3779.4304857488
0	10888	488911.059781129374	3334.1429980495
0	10897	489130.812497104012	4106.5316726327
0	10905	489281.497785411013	4109.9115931286
0	10910	489387.366368858424	8857.2639749128
0	10915	489508.14377908591	2861.7249849887
0	10953	493669.682673565173	6144.9318279412
0	10982	495328.423143951623	5714.6324068801
0	10995	495743.209950142182	2930.2239283838
0	11014	496576.994643298264	4457.3582119494
0	11031	497305.805692706719	2597.478532453
0	11046	497559.619341385074	3444.4402784803
0	11058	498611.162342307726	3591.3014684169
0	11072	498866.266829513129	12647.319405958
0	11185	504287.17940232067	8104.8189231529
0	11203	504633.215413805616	4659.6100149688
0	11211	504717.484825567819	7529.2890799709
0	11222	504760.225252540711	5489.298014162
0	11227	504909.066896881332	5925.8356068844
0	11232	504918.902696387577	4131.4070644891
0	11258	505927.532487613874	6398.2398897192
0	11263	506201.023590253074	8042.4916672292
0	11269	506350.85638781756	4198.0613197313
0	11277	506884.339669320672	7568.9352633998
0	11294	507640.791009777579	10648.028715672
0	11299	507685.547767115314	3889.6194109835
0	11314	508068.207215132755	3413.5855838443
0	11331	508881.120941358698	7705.8475211986
0	11358	510029.167549997133	10686.624180504
0	11385	511149.453610294071	6217.7458315773
0	11397	511631.256855032553	11757.866063747
0	11405	511996.747859478019	5529.1414101362
0	11415	512112.796200654987	8179.3430267303
0	11433	512523.485479918616	3896.4519760523
0	11449	513143.023722070325	3789.2035770231
0	11458	513994.396225679164	4601.516735455
0	11472	514660.874421375851	4803.1961787236
0	11498	516077.299557865749	1466.0498425546
0	11511	516457.248386726101	4522.9455928549
0	11519	516676.658294983634	4463.2660592687
0	11572	519343.727823043707	11617.003302089
0	11583	519450.247209986453	6230.4192791355
0	11600	520069.034734554089	5200.7684941995
0	11617	520643.520012935966	3648.0426340539
0	11625	520789.605665401773	5419.5152731589
0	11635	520833.064915729333	8354.7160512766
0	11640	520909.08162602425	3274.1810369085
0	11645	521019.625583498617	1627.639296057
0	11694	522948.00896034878	3014.7118464794
0	11699	523202.491798544922	5789.0308035181
0	11704	523487.152723298267	1696.8769348915
0	11714	524265.555807933971	2307.4595106327
0	11725	524871.278023094198	3182.3767164779
0	11740	526410.55844704462	5627.4020290584
0	11758	527480.182585561874	2843.4503217796
0	11770	530564.674618642185	8544.0409470684
0	11779	531112.639756480304	13149.384078253
0	11799	534480.980133395288	7125.3465954098
0	11828	538482.551299002308	6109.6885269408
0	11865	539932.032876522283	4637.4093336391
0	11874	540479.361510865027	3623.8457678167
0	11919	541821.926718803765	3079.2829476401
0	11924	542158.8286276633	1903.343838057
0	11933	542472.624038943528	3871.0792509832
0	11954	544040.40096225402	3333.4269882713
0	12008	546258.251441221884	4944.9834379151
0	12018	546471.007758731266	7678.3102675186
0	12023	546628.859612157511	6104.8742865801
0	12056	548961.828383596646	4475.940238364
0	12071	550414.38814156009	5267.0364834016
0	12080	550571.474577160714	4426.4970588542
0	12088	550957.499380735304	6651.3021742705
0	12096	551210.430646443737	5624.0613950389
0	12110	551425.071654874561	8974.7187352821
0	12242	555818.42300463105	12110.237833901
0	12256	556367.669457745481	7668.2486661402
0	12265	556774.077053380653	5106.3557731586
0	12279	557601.457641783612	5918.6491076864
0	12292	557951.341876254059	6869.2299268052
0	12306	558508.722981387199	10639.361572226
0	12315	558821.843258479332	7108.6540666473
0	12330	559562.863089739395	7466.9778358377
0	12355	560797.378012636136	8595.2783603177
0	12377	561520.891480279871	8950.3521630677
0	12407	562016.256152559771	10167.967425856
0	12412	562067.572502123418	8486.6730164099
0	12420	562083.466064927192	9441.16743163
0	12438	562419.362696542716	8964.8822007992
0	12451	563444.415696490741	5882.1852330494
0	12469	564245.553675060869	16111.371161758
0	12477	564467.814340948032	9408.6734230584
0	12486	564942.217405165367	8344.3803490349
0	12497	565665.615248948119	6803.0382591471
0	12502	565671.97010380909	4246.1202873989
0	12507	565689.518553336698	4175.9423503794
0	12516	566256.292559641909	5838.6489206536
0	12524	566341.885414593209	7313.1634897498
0	12534	566476.041614710536	8702.3607893121
0	12542	566730.412165070982	4661.9990775333
0	12550	566780.297440261147	5127.1369893561
0	12560	566940.83827879984	6581.6649271037
0	12569	567586.905046437043	5472.9620257298
0	12586	568298.103423207359	3658.4003112673
0	12596	568483.887592743741	2191.0171414928
0	12614	569645.774274538444	2269.282165098
0	12628	571675.097305014752	4931.6140370329
0	12658	573757.050872006412	5034.2896398763
0	12697	575745.036507054402	2910.1111239371
0	12702	575770.638220354643	3439.6470584688
0	12727	576676.610390725309	8455.9384377853
0	12739	577140.061759233555	1285.1991084458
0	12775	577569.310051444944	4370.7319149193
0	12789	578281.312227783468	6611.2309497744
0	12797	578361.776561151281	1383.5171139279
0	12818	578989.805639620009	1639.4969117186
0	12838	579729.469255716704	4832.533335961
0	12844	579802.045829207568	1513.7782807427
0	12856	580797.837772041908	3486.5337888411
0	12862	581301.177037504696	3837.2659161168
0	12886	583093.023072410106	4670.3134789456
0	12905	584246.054399523813	8322.8202289033
0	12922	584814.228948748895	5446.5682042211
0	12946	585903.759059129011	3296.8824956413
0	12968	586683.038882573533	3477.9390679654
0	12976	587105.960270725841	1839.8284223611
0	12982	587476.43489707106	4506.3470110448
0	12991	588457.257845334928	13449.725157659
0	13008	588804.147309481667	2916.0910947977
0	13030	589410.880370485815	3520.1449237101
0	13041	589687.417285380061	5185.2235580545
0	13049	590024.881579775143	1143.1907318526
0	13083	591394.205367985031	2873.115187103
0	13104	593139.891675648878	2725.5392270798
0	13132	595573.715438572253	2490.4566235666
0	13161	597167.799482751226	7060.0760215056
0	13180	597515.271553101105	1974.2917752965
0	13218	598370.352823836868	7664.393712887
0	13240	599104.046128924319	7214.5215751622
0	13246	599598.66931432054	10229.017862083
0	13257	599739.584956033326	1510.7787691426
0	13262	599792.575444941612	2334.8140834967
0	13273	599896.883152827672	3198.8086977091
0	13302	601268.013116512237	2759.3947848129
0	13307	601422.538426603283	8205.2396671404
0	13313	601595.695088521753	5844.9158901376
0	13338	602818.205016542504	5214.1454620538
0	13370	603850.974078949003	4002.240976227
0	13407	605222.911572672166	3103.7608454015
0	13419	606481.238475128305	3633.9106952447
0	13428	606866.672162377911	8978.3625862007
0	13439	607448.4173016766	3835.4073782571
0	13458	607840.742816971482	5659.5909462055
0	13469	608118.323123399901	10607.027702749
0	13558	611726.970839658674	7984.6814035115
0	13568	611820.390226302325	11728.745316711
0	13587	612919.552625842783	5886.4208834367
0	13605	613460.536906860142	8701.6930894139
0	13618	614258.649015698964	5578.5964169309
0	13628	614669.540594739259	7125.3376254789
0	13637	615213.036400426576	6080.5661683879
0	13642	615264.081200941959	7235.8121578714
0	13647	615524.01858675205	4932.2823390902
0	13652	615652.072725802124	5505.3991386629
0	13658	615887.955467361327	7095.8873884604
0	13663	615998.118774678039	4323.2756988792
0	13671	616144.963630022299	4216.8960120933
0	13685	616630.677886506066	4667.8458476405
0	13694	617459.326886594372	3692.9709553998
0	13711	618353.287782143965	7874.8568114936
0	13719	618472.303749847996	2391.9409188908
0	13762	620781.179120200259	11363.370655535
0	13771	621282.594250754613	18289.069005168
0	13788	621886.916107368751	2096.4322650262
0	13805	622796.285987396355	5241.9230681831
0	13815	624264.380702744318	4607.6861924011
0	13955	631545.034730440904	11602.856583935
0	14014	635180.826800866805	13607.9971133
0	14028	635898.441703450934	9265.0669161346
0	14038	635928.810882441334	10231.388127663
0	14047	636083.004180816682	8044.0842785433
0	14063	636489.839474995856	10976.673393243
0	14075	636916.777953853361	14859.942553077
0	14154	639522.03084318356	9313.2776101721
0	14171	640089.667603860146	14250.281559584
0	14186	640822.164634205783	10362.148662041
0	14191	640888.506868052822	11053.176765932
0	14203	641622.131935716041	11299.057140873
0	14225	642248.648291246469	11279.921547585
0	14249	642854.218040774765	11311.758302655
0	14271	644241.468852155426	8973.9336029602
0	14282	644831.838475976554	25980.740994144
0	14294	645282.695449141287	12480.619299451
0	14304	645354.04614496935	13688.686609751
0	14309	645541.952626047414	17837.948410841
0	14327	646018.065662291421	9948.1723612811
0	14338	646578.170297438039	17804.658926614
0	14346	646909.849763643713	9878.6107592861
0	14351	647085.147341494936	10128.707329702
0	14357	647271.916202923389	12486.47793518
0	14362	647346.99518977147	9344.468667498
0	14367	647646.214726986912	14269.299654132
0	14372	647857.046834717938	9690.1524720013
0	14387	648107.205365397203	6541.9369676448
0	14420	649257.9597047419	11199.420947307
0	14430	649327.743292001293	9931.1787939512
0	14435	649440.0703443998	12604.732169093
0	14444	649771.945792325882	11074.515496161
0	14455	650331.466010116428	8534.8775629485
0	14463	650395.306277449711	8056.8025863608
0	14473	650499.041521823332	8128.0220036832
0	14488	651315.833029594397	22193.634144889
0	14497	652096.313985049916	7962.2991919836
0	14511	652632.528968172559	6923.9789672859
0	14516	653086.956485926894	8147.4058313979
0	14521	653162.938946899138	5188.1486767796
0	14530	653255.282022466937	5269.6806843952
0	14562	655660.088574713889	7651.7346237914
0	14567	656038.547197061342	6499.4770774903
0	14572	656113.090067341272	7317.2871620333
0	14577	656155.193771027027	2992.0080301285
0	14603	657422.653390743897	3820.7986924678
0	14612	657768.113242370012	1377.7600787924
0	14621	658738.842365966616	4692.8417290128
0	14633	659825.772301056429	9477.4160043218
0	14666	660575.593650639321	4056.4239672846
0	14703	662031.845130977098	3001.1026976736
0	14712	662251.973399003278	2300.1876532426
0	14729	663305.93890273606	11771.390382222
0	14802	665898.823993546339	3820.8279771836
0	14814	666037.809789813126	3103.9643503399
0	14824	666465.312747707974	6322.0320666341
0	14836	666860.431615835943	6406.0398470268
0	14846	667149.945247033147	3969.0259617536
0	14865	668840.893841807565	4772.3098791395
0	14881	669114.684788128481	4727.7010207169
0	14889	669460.004857698727	6038.875544921
0	14898	669918.342552742113	3965.6500904192
0	14906	670000.700053438244	3378.7066481334
0	14911	670142.560755699632	4929.5732729271
0	14916	670278.217355762945	9628.3982904743
0	14925	670951.502678104008	9493.4450516524
0	14986	673707.846031224445	8944.2007811903
0	14991	673711.336812555009	1033.2666638065
0	15002	673847.524947072731	5560.4153538798
0	15016	674503.973670463387	3462.8361121234
0	15021	674520.866426265902	2465.4026545576
0	15027	675240.047219291758	3730.0686083098
0	15065	677924.646811051864	4079.5730084009
0	15071	678227.011812672188	5111.9857029799
0	15097	679332.9439867682	2763.7196537489
0	15108	679737.0963680372	3096.8920988905
0	15113	679936.618199994154	3717.3006785312
0	15131	681013.050317098721	2226.8317819228
0	15157	682576.818928650894	2225.6887107023
0	15177	683675.304126364205	4409.6331825297
0	15192	684285.26247478738	2677.5077908904
0	15208	684793.3589334778	2624.5997305007
0	15221	686376.118310481449	2527.1460084989
0	15226	686749.220862060647	19375.807685457
0	15244	688201.639925785289	4324.6343442335
0	15261	688870.01056790375	6018.4270847705
0	15270	689644.787591595785	2839.3759598496
0	15333	692913.904157668158	4455.5367325876
0	15350	693712.756837170819	3005.6967726209
0	15365	694078.734633738736	3812.8175249028
0	15421	697187.432451031714	7016.6197917674
0	15457	698346.414264159514	6668.7404161363
0	15482	699735.12833277048	7259.9098948038
0	15494	700420.212936806707	8336.0924838367
0	15509	701062.539232671577	7336.5801662045
0	15534	701783.127918094074	8914.1649465709
0	15542	701964.647685751897	8082.4505972538
0	15548	702236.897580702692	5356.8155906415
0	15553	702277.974942061486	5287.6204978022
0	15558	702339.400895357875	5414.505629752
0	15566	702367.784174301954	7705.3818271102
0	15577	702895.549168165798	4704.4788049877
0	15585	703254.321692494246	7067.0990289629
0	15608	704271.742934408413	5951.0871890115
0	15626	705397.152569831538	6701.8984093571
0	15639	705701.881673236189	5143.2035376869
0	15655	706674.212164150463	4948.5389056296
0	15682	707472.461776540717	4463.4214097353
0	15692	707598.528274229257	5244.4323514944
0	15704	708388.404196100977	4914.3896671079
0	15712	708600.096783608477	3626.2050197494
0	15791	711562.710952343809	5039.9989344199
0	15801	711597.801971088903	5626.6457375421
0	15806	711697.200186219113	4276.8477176748
0	15815	712189.969342995201	3784.370110033
0	15820	712227.69374763601	1976.2319363967
0	15829	712621.236867105218	3546.5134203829
0	15837	712874.505683759692	2817.4439448523
0	15863	713961.238414962766	3252.6966810409
0	15869	714090.615214512792	3007.580810687
0	15877	714182.603144526527	4723.5465591272
0	15886	715032.423124994757	8484.889867379
0	15920	716504.985407994041	4988.1448214504
0	15932	717015.41241689987	6491.8499283852
0	15945	717436.292675407897	4493.0006192165
0	15951	717950.717031918887	2909.9561260361
0	15960	718768.019894296955	4148.8428953828
0	15972	719371.278616035629	4196.0926536304
0	16048	722405.868320716984	3043.659900225
0	16059	722804.856766128636	1777.5512376578
0	16076	723049.56410980815	3636.9332954361
0	16081	723722.96825328134	2485.5368564422
0	16093	724205.579644030768	2633.4255078638
0	16126	725321.055468185815	6211.0158210317
0	16134	725457.34614390455	8522.216208354
0	16146	726470.850710629454	6750.0561981239
0	16155	726765.152219484985	3029.4683663992
0	16160	726836.024842661239	4216.252233823
0	16188	727909.072978627584	3848.1732476643
0	16205	728634.772433181143	1410.4574737801
0	16247	729794.133640472823	2452.2933738063
0	16263	730157.222195420788	1813.1182816987
0	16281	731270.986208046409	10166.559733482
0	16294	731951.347294875101	2712.4508669438
0	16310	732964.839743664556	8596.9722450917
0	16344	734305.533108204059	6610.4786277574
0	16352	734483.287418508867	5649.7022591947
0	16357	734609.706820421418	3356.5244706442
0	16362	734861.429966821703	6188.024567608
0	16371	735087.183714054221	10522.262496487
0	16379	735651.819607449021	5913.6106874088
0	16389	736852.960100628848	6786.7709995554
0	16420	739692.951247500527	6974.205497949
0	16433	740237.749331992284	960.25449204554
0	16442	740644.417722170811	6991.9844556999
0	16468	741937.390141924484	9151.3278653984
0	16483	742517.369191194331	1478.6272905705
0	16501	743033.838039937305	5053.7455969173
0	16523	745457.224963165618	3020.2759299005
0	16558	747113.672603094367	5740.6335438526
0	16573	748336.86455973321	5224.4573706162
0	16606	749786.459248987212	4200.7970494221
0	16741	755468.354553624602	15941.596115869
0	16751	755684.988224918922	9716.9100059418
0	16756	755750.178497039067	13074.116329286
0	16765	756215.075713500803	8298.3864931274
0	16785	756975.429928055234	7918.0415169537
0	16796	757115.054401172736	11894.04938789
0	16819	757972.772323251763	8779.6587084037
0	16882	761015.447712916459	11274.282092047
0	16888	761281.62656547867	10754.702090752
0	16893	761537.765595119418	11678.9528955
0	16902	762467.33174319602	11548.732533749
0	16913	763247.561035103338	11377.285692037
0	16918	763418.504030242265	13873.19658896
0	16924	763789.132990425483	11184.940179051
0	16929	763983.243260084285	9186.1488455908
0	16941	764681.559526431545	9214.7365982703
0	16952	765022.661845867828	15561.739417681
0	16957	765071.236573137014	12246.536225912
0	16962	765107.04659139877	11120.790591934
0	16970	765370.797844295879	9471.1002686097
0	16975	765406.790279986478	8381.5066975676
0	16991	766972.636727031794	8471.3874697675
0	17024	767916.798593340453	9967.8279796189
0	17038	768279.456729292487	9166.6051859363
0	17057	770134.223188426521	7917.1550180208
0	17074	771407.17586254661	12803.13937909
0	17086	772303.639560981388	6225.9208494312
0	17091	772305.551341672473	7985.1707661184
0	17100	772509.592708971886	13503.290935595
0	17113	772629.206140038553	14806.902763817
0	17122	773374.955030928813	7326.292983227
0	17136	774036.609998045096	7069.6175801186
0	17161	774878.436663415821	7130.622498005
0	17171	774953.313465420721	5807.0667649904
0	17176	775011.469401708138	1767.7945752013
0	17188	775623.251350404076	6221.7772437263
0	17218	776464.7458043041	765.91042233775
0	17259	777401.52382707326	5042.6081553997
0	17274	777920.161215721471	4010.3946424516
0	17284	778167.048976749	1151.1138636772
0	17293	779020.571055874674	3398.2056379687
0	17306	780225.249538247205	3738.2670301545
0	17311	780307.797084632532	3517.0908194429
0	17320	780859.966745056538	4687.0489281274
0	17337	782002.48458514864	4978.3026101289
0	17354	782612.189583909729	8447.2159427604
0	17384	784652.046384154311	3677.5090184659
0	17389	784768.689452005428	10022.452017054
0	17406	787261.020048540666	9614.0329258426
0	17425	788102.232385727372	5007.7102651696
0	17443	789366.521870478496	6474.3603925575
0	17451	789533.482150137558	7308.3364873387
0	17460	789833.402165980977	2663.4972842433
0	17499	794320.805312060878	4007.6837530375
0	17509	794726.137483694243	5661.5005378119
0	17514	794840.393796617874	7785.1373685882
0	17587	799227.423070984563	6270.549249644
0	17592	799399.667782290085	3053.3944407803
0	17618	800282.78594201273	3495.9569505185
0	17626	800390.290077069957	3943.5306088168
0	17640	800894.57428285816	1176.0939598824
0	17646	801075.312326249318	2726.2190385434
0	17651	801107.527967537887	3854.7973962508
0	17659	801538.601441281189	9332.1935373989
0	17680	802565.82542784712	6283.621503186
0	17697	803960.057429240769	4074.431865607
0	17703	804211.529055866021	6074.9621443461
0	17721	805516.028279975064	3217.4243187186
0	17734	807106.553369645766	5107.5775375633
0	17768	809176.869627973739	2412.8411733844
0	17774	809379.432147054573	5124.4283386916
0	17800	811448.715300557602	3196.3214219922
0	17818	812936.749041769068	2343.6233825544
0	17831	814002.745090556682	4052.8146207483
0	17836	814287.637213295373	6762.3670309729
0	17896	820547.016912312725	5460.9520929973
0	17901	820689.147986142201	2335.4069104699
0	17910	821336.944056833565	3324.0453820525
0	17993	826565.289461693329	14752.555888421
0	18021	827736.711058823182	4083.5167490605
0	18026	827818.87963804937	9257.0599088708
0	18031	827887.539731132265	5044.9972324423
0	18046	828208.723008303704	10242.166835152
0	18051	828441.370033981464	3073.9007409749
0	18056	828451.130830230765	4391.6057781063
0	18064	828609.42154794936	4468.4208504015
0	18078	829266.605621907767	4217.9430231659
0	18092	830220.527533576216	7467.5845071819
0	18097	830240.792243209373	3851.9539481967
0	18113	831138.747227888873	2665.2679349639
0	18165	832610.645393513162	3419.0978976475
0	18184	834556.224504655104	2305.8376575325
0	18197	834646.963979644109	8169.3530408384
0	18203	834765.563712401108	3959.3342145881
0	18211	835438.11811714345	2952.7310208694
0	18278	838750.320683886418	7604.7230637513
0	18298	839442.401118761112	8109.677438476
0	18323	840147.791967874956	6944.3540029168
0	18354	841482.494672441849	3544.7379229687
0	18414	844696.605262882459	9553.0699157157
0	18430	847131.386701811645	9047.8608028051
0	18435	847326.587799517639	8580.9087381992
0	18444	847651.420868431349	11486.699757675
0	18454	847778.373140765409	17031.894837571
0	18462	847939.39814108409	10741.937604503
0	18473	848140.473960635743	8136.9090303155
0	18487	848345.787478499692	6939.6166033447
0	18500	848905.204173719253	13099.277580027
0	18506	849024.30399212686	8649.2444603243
0	18511	849151.234480897617	9754.5959268419
0	18516	849564.930874289696	10330.561612494
0	18521	849644.909776810139	8186.9298045387
0	18530	849878.597475779849	5612.5147288592
0	18543	850227.882415128226	5780.4441839195
0	18549	850633.873872576074	8089.0148512083
0	18566	851527.399217394067	3582.6941977058
0	18632	854554.409796103197	4721.7981353235
0	18641	855016.906064815251	7586.682948829
0	18651	855101.758306219164	4404.1156395386
0	18659	855465.202833434784	3702.6440061786
0	18667	855555.457882702458	2997.9232103322
0	18687	856108.033985446569	3200.2042298068
0	18692	856113.367178037102	2514.2713009262
0	18716	857377.79927862987	1765.2840497994
0	18721	857495.397548307478	3979.5657269182
0	18729	857656.986866185208	9331.9886213025
0	18743	858314.980361661565	1813.4295545731
0	18760	859211.749956955896	4637.6197267465
0	18778	860742.834524182887	8249.4730916747
0	18813	863138.328360706176	4525.6760924832
0	18832	864131.175823013636	6548.9177663581
0	18856	864778.363386465738	2795.9195895284
0	18867	864961.983128341129	2883.2719899233
0	18904	866338.304741999057	2453.892649818
0	18968	868014.86454811218	8747.9042779207
0	18973	868065.035749577322	4053.8578790421
0	18978	868138.595855378326	3272.8333784548
0	18983	868271.816853157653	2605.3132828972
0	19001	868869.720533057443	4607.9113771291
0	19036	870940.397331432768	9865.1919307345
0	19051	871716.48372397527	6063.6376762985
0	19070	872288.729305137204	4934.7426795941
0	19081	872793.084963334212	6345.5569559366
0	19087	873396.205444682036	4608.093982985
0	19095	873724.244159155834	7480.0450013504
0	19101	873773.677770272702	5169.5707052656
0	19109	874061.147680911184	4831.2573897965
0	19123	874619.302615088529	8272.6156880785
0	19136	874784.721486906727	8476.9746382876
0	19150	875775.891050516641	9070.7865421992
0	19171	876874.581457919909	5090.3841067671
0	19176	877072.503337952184	2423.5998452719
0	19204	878095.168959616059	6525.3158594138
0	19209	878212.899753166091	3644.409029912
0	19222	879389.276582710498	3306.615642745
0	19227	879461.336482065481	5435.4502212718
0	19252	881424.667263653352	4007.3250982051
0	19272	883007.187741213592	5443.421438778
0	19280	883431.56796970777	2972.0233286587
0	19298	884757.079693981619	4755.2248591995
0	19328	888928.032820792271	2053.3530349999
0	19352	890603.031683529242	9764.3316787355
0	19358	891038.660211011047	7444.5487622058
0	19363	891281.937865170034	4164.3603967609
0	19384	892557.937316330523	3458.2573714778
0	19397	893138.313367446989	1772.9250530627
0	19435	895100.829042556426	2769.1967104734
0	19449	896024.009947336846	1259.7075670635
0	19457	896240.183427610444	2526.2602768948
0	19570	901688.932084999938	6650.7416771946
0	19575	901771.266481652653	8201.9209457165
0	19580	901969.258612817011	4375.8607654602
0	19591	902206.154035231745	5087.4643274699
0	19596	902247.507596110328	2956.5982637309
0	19602	902340.209523500022	3586.0130818172
0	19614	903124.122178074644	6154.086666394
0	19619	903216.979417242116	3915.0564304033
0	19637	904951.221202024444	3626.7019636721
0	19654	905656.082096741224	4528.9464149436
0	19662	905662.153551122218	8066.2737645239
0	19671	906249.716664478902	1913.1290407061
0	19692	908061.671976357814	2698.4324280563
0	19698	908359.595864704131	10106.145580233
0	19729	911441.440472649473	2510.0253036057
0	19734	911730.594293774682	4177.0776668738
0	19794	914568.952087915754	5188.0661585735
0	19803	915004.660979069321	1889.2231653954
0	19811	915232.94955007271	1851.432381729
0	19876	917499.620938412532	5611.1538420418
0	19881	917734.056780020173	4283.8267824396
0	19893	918013.425302277789	2687.8464741772
0	19901	918246.33722430814	2272.017663114
0	19911	918507.168899776118	2478.8358257687
0	19926	918967.409128724906	2353.0780648085
0	19965	920076.584031513004	19405.44321271
0	19976	920755.016319744502	8440.4725787137
0	19981	920872.455695518178	4717.9956286918
0	19993	921470.709383410469	3361.3269462728
0	20072	924828.558154579311	5132.2452945863
0	20108	925749.666180557565	12526.293084628
0	20118	925820.611719186051	6905.5562998577
0	20123	926048.321364581293	9992.0860889354
0	20129	926279.506106862287	5171.4684379563
0	20134	926533.15461329382	6978.3832144041
0	20145	926870.221516218427	6896.8414996095
0	20156	927571.567851264845	4831.1925585366
0	20161	927719.986314841552	6125.6163032989
0	20170	927835.846525173436	3316.2123690201
0	20183	928107.27548748961	3126.7238058441
0	20221	930004.961938086827	7012.2832990601
0	20226	930048.282764905794	4372.2784072573
0	20234	930394.639544913481	6710.7898780809
0	20240	930914.008982725774	5662.5623888787
0	20325	933559.801610228224	10932.278261028
0	20334	934343.543231957376	6331.445428349
0	20340	934595.721830546877	6817.488174844
0	20345	934716.612861876208	3727.1298584001
0	20350	934754.598658997934	8030.6171944536
0	20358	934859.162544054723	3441.0152046318
0	20373	935426.889977320994	3997.7319954068
0	20383	935601.082315312262	4453.3898271581
0	20397	935941.954084311632	7485.2521793005
0	20413	936511.612664427909	4307.462754837
0	20418	936513.326668180413	3802.0600390856
0	20423	936616.361399089996	7035.9786406667
0	20460	937555.067807219241	4835.1017528595
0	20477	938755.555790172872	2868.7559380098
0	20508	939353.886670644853	3579.265428056
0	20548	941040.782667568465	6055.410400886
0	20570	941846.478399072105	3305.4927692284
0	20578	941964.602557302277	3090.3292787542
0	20584	942002.692310039204	2657.113744402
0	20589	942207.799458893676	5190.195544065
0	20597	942486.783608016357	5831.2534866088
0	20602	942543.486736727075	1890.8735853478
0	20608	942961.068937927156	3084.4243238565
0	20616	943412.760869184005	6354.4409448325
0	20642	944915.772528458892	3989.953434642
0	20651	945062.094270846859	5876.6881757421
0	20684	946437.774688029891	2115.0787894427
0	20729	947581.277327918594	1522.5043099515
0	20744	948106.957724132136	1353.1388022266
0	20755	948754.054979015884	3061.7369898029
0	20760	948796.101849088903	4745.040679422
0	20768	949346.844158498458	2873.4316334248
0	20777	949876.70539508411	2892.6298549332
1	1384	61282.841637434219	2251.780592847
1	1390	61759.229526939887	2718.1207096622
1	1395	62076.728216442837	2993.8934441653
1	1400	62138.945020057113	2872.938808122
1	1412	62758.528508435684	569.91886556465
1	1421	63071.571388934825	841.97717306448
1	1467	64245.60556634173	830.57092597174
1	1472	64261.927174788348	630.26399083824
1	1478	64796.457933112991	829.39956241221
1	1483	64820.944555311083	822.54298061477
1	1495	65733.009601749241	1521.8423316233
1	1510	66100.412939262524	309.43909135209
1	1518	66605.727451128748	609.29297938516
1	1549	68031.18979813711	215.91238698961
1	1575	68603.447865408843	336.76332269276
1	1580	68710.060701270823	292.5540945809
1	1592	69045.84924451129	487.88112287498
1	1614	69549.659725938027	292.60428318928
1	1619	69585.672631192948	158.60171315627
1	1682	71256.463246690154	243.82993439535
1	1687	71276.283217619309	134.1217939986
1	1711	72211.001455713757	195.42920079661
1	1771	74140.333668937308	377.69928633954
1	1776	74158.277458933173	207.48998519712
1	1785	74412.448642187918	419.9930448754
1	1822	75910.093901321186	735.33825521931
1	1827	76137.72218895373	847.03363701337
1	1835	76294.808713344003	879.87190390335
1	1840	76370.74980886823	223.19184022783
1	1899	78016.661025954774	75.967437587509
1	1930	78498.515849530192	0.738613148631
1	1939	79111.702230703442	210.77881488661
1	1957	79346.042046379547	0
1	2003	81606.360210844478	7.324508428758
1	2021	82608.901045062419	474.96253241227
1	2034	82986.028759453704	132.28903889865
1	2060	84493.135581894863	0
1	2072	85123.147202049213	413.88176118576
1	2081	86042.565729159489	1032.4022482441
1	2094	86204.855254646775	0
1	2103	86683.24158169328	150.55033675317
1	2115	87212.245968044108	384.98845261326
1	2129	87525.764976430097	274.53246590471
1	2144	88307.475510804775	1042.3374608129
1	2156	88998.671442919572	1222.6529943455
1	2161	89110.355007599898	811.21441457519
1	2176	89658.798169375582	1037.376460694
1	2181	89691.575492964384	558.40393404192
1	2199	90590.76368645501	755.76550954179
1	2212	91509.380785485757	1177.9312541753
1	2226	92010.017898792526	421.45647599965
1	2232	92277.512431473841	378.80332850631
1	2322	95909.028509852336	214.10766230363
1	2359	98485.52779488926	0
1	2368	99207.692775260474	0
1	2395	100806.334589027765	300.0825214101
1	2400	100828.935733650568	146.74557591432
1	2440	103063.698012700102	180.98187090835
1	2445	103091.877604960911	183.95942448227
1	2454	103557.588882741152	0
1	2474	104535.338323418589	143.24404002691
1	2479	104543.850855751727	75.758667383619
1	2504	105650.590805305704	0
1	2513	105857.398966777453	0
1	2548	108192.232694077824	0
1	2568	109118.279688218976	101.34944049336
1	2585	109774.996961930495	121.83070590704
1	2599	110292.064253374109	265.72783793653
1	2616	111311.004836795049	0
1	2625	112018.013974194233	492.89551492519
1	2642	112868.832685718488	0
1	2650	113117.353460831492	246.21915519925
1	2671	114264.24981648148	297.72657898348
1	2688	114751.485337543221	125.97820421077
1	2693	114788.838949879559	70.330037157256
1	2718	115726.205426728816	79.339970500845
1	2738	116821.964890709332	43.255260366399
1	2747	117141.165655377864	101.58240490626
1	2768	117441.777859537142	76.673144744768
1	2808	121303.206503498431	465.4696237626
1	2839	122336.804817454284	0
1	2847	122546.350055563842	0
1	2855	122624.090682463498	0
1	2864	123304.487890129575	2.056442243604
1	2873	123939.315009907973	148.28851002564
1	2911	126406.927338082522	266.73944445496
1	2916	126505.260770348245	266.48287710255
1	2933	127167.270296820332	0
1	2950	127648.123852438285	0
1	2958	127836.732013486906	0
1	2985	129925.025146289466	0
1	2993	130388.118327080915	0
1	3014	131206.031303768013	93.879299345804
1	3027	132420.271876517189	876.28447717467
1	3067	135028.901277784687	915.83571551689
1	3075	135390.755253539749	55.326169747776
1	3089	136268.776452059456	0
1	3115	137725.582397145108	0
1	3133	139253.307516907801	0
1	3142	139724.357960556052	414.98906905995
1	3158	140247.579997717578	121.18695203403
1	3171	141089.939254795378	777.52821525176
1	3179	141434.919167927253	863.79868971689
1	3187	141540.877633755884	292.47441708838
1	3195	141670.310511953089	225.27358086984
1	3209	141995.667626357364	164.91679753092
1	3225	142447.183674392578	167.27966070622
1	3245	143085.905053846627	166.92940927896
1	3297	144920.976786670338	336.06639647554
1	3302	145280.981297051504	668.58370013938
1	3324	146390.001757441645	1665.1919734503
1	3329	146518.194082394048	665.49976766195
1	3337	146813.054152053532	922.09246244663
1	3396	150000.5348457487	0
1	3419	151015.480726925774	697.00125546067
1	3428	151539.904876612041	746.96210306239
1	3433	151592.116795508687	690.88729626985
1	3441	151923.693028638824	595.63248328189
1	3446	152073.425881665932	472.56891208153
1	3467	152994.432336764586	616.63566909868
1	3473	153023.507653838926	612.59802617409
1	3481	153543.868777814889	1045.78826583
1	3495	154131.953446216306	78.185667496394
1	3514	155045.397619304138	0
1	3573	157265.52183479012	0
1	3582	157616.211928565967	0
1	3601	159356.513888559266	1061.9840569287
1	3606	159366.661063930842	365.40922834844
1	3626	160122.128149755052	149.02311481898
1	3638	160617.155495573525	99.553580750187
1	3680	162231.042847008102	253.47566530351
1	3688	162329.465552239153	195.9604838725
1	3696	162427.08626975113	160.66955630854
1	3705	162793.538696969256	308.17088107325
1	3713	163347.033953397985	104.74382178955
1	3749	164577.387227536267	260.6768922938
1	3758	165569.524194791563	245.77746520344
1	3772	165805.408072012678	126.55140524071
1	3795	167075.507659230792	819.45571371961
1	3804	167279.636627985312	1018.5256005337
1	3827	167677.797997240431	45.212789584757
1	3845	168913.552298403493	0
1	3854	169853.398573838879	0
1	3883	171018.736780036207	62.936836411733
1	3898	172689.094852706121	0
1	3918	173882.3917372052	714.75414815138
1	3927	174125.806430770525	719.78573986446
1	3940	174369.94938088924	166.1208894525
1	3958	176058.697719341249	0
1	3975	176304.412440391254	0
1	4003	177834.942511617087	1286.4244514748
1	4015	178669.069267825828	1781.1022026659
1	4023	179141.770405436386	1561.6671971366
1	4035	179678.773772594027	1885.4502449491
1	4047	180401.700816940283	2606.6932675493
1	4062	180799.33043883739	2545.9193173532
1	4073	181239.403460967732	2166.9139485459
1	4081	181496.08195586474	2063.2491721091
1	4094	182409.245286269124	1782.0723347192
1	4102	182489.888788561359	1262.3456861805
1	4107	182541.830273749602	1200.743881629
1	4115	182714.36887379401	1151.516845382
1	4120	182753.739683326032	296.27437201989
1	4129	183026.015948664982	463.26682505239
1	4154	183769.976883657584	471.93719406379
1	4206	184811.536928865829	266.65905388938
1	4211	185033.363096219606	474.01332654704
1	4216	185079.247947715553	481.61102512104
1	4283	187364.652072110164	713.55238566782
1	4288	187396.060415737108	451.55111119283
1	4296	187463.739181398776	497.46299211261
1	4330	189238.16390155231	355.24899974689
1	4338	189447.468175575464	143.79527563139
1	4379	190847.117071609746	85.769586779311
1	4384	190906.64801755867	115.01495147265
1	4396	191329.098269788113	94.715952239817
1	4410	191539.690888111044	138.04835656653
1	4415	191984.601598823657	553.95699897432
1	4421	192028.487321870759	492.51137317627
1	4429	192296.777781307055	5.963755415299
1	4449	193141.706618878193	34.515175553047
1	4478	194532.018532079468	384.02240736158
1	4500	195241.417152130014	6.690137422639
1	4519	195541.528167032222	109.87691001969
1	4534	196102.893503659193	653.40547988902
1	4539	196187.88276385464	453.67407568533
1	4554	197000.561185013762	1030.1089980275
1	4562	197181.451946962339	897.02353814064
1	4568	197307.924738264673	563.50364933859
1	4579	197481.18238848848	92.153443369584
1	4594	198131.725048227052	519.46174175664
1	4610	198640.441948401706	186.10022182674
1	4628	198998.476100023552	165.22815991055
1	4660	199749.087332789109	264.43561555003
1	4708	200986.784455409369	307.57514288298
1	4718	201933.52814915168	1223.4337828725
1	4740	203433.222616308034	2329.500303059
1	4745	203549.279055951538	1241.079845171
1	4750	203802.594235673724	1326.1807208147
1	4755	203996.955843055223	1030.1637757261
1	4767	204514.970476098841	263.86797452178
1	4813	205577.809465170676	217.92166353929
1	4842	206438.838415317743	21.979143931764
1	4850	206614.486104095471	34.742494258571
1	4864	206991.166229984418	52.390920126041
1	4893	208020.156416356958	79.985370283028
1	4908	209107.669512899495	474.64692610201
1	4930	210423.374104526289	1307.0604655572
1	4935	210503.555244432674	572.13873910547
1	4944	210988.430729319372	793.69540620188
1	4956	211590.029716997789	1341.8674468828
1	4980	212271.387545880947	121.33147719525
1	4998	212522.757683374302	46.859214594112
1	5051	213710.009238350721	139.79607994954
1	5060	213873.243358770383	43.721229305428
1	5097	215498.014275271195	409.82740337653
1	5109	216304.12646145981	1125.8912485702
1	5120	216557.523156291956	973.67858343801
1	5132	217195.83480353019	170.62359147284
1	5137	217222.267817516345	63.210616194035
1	5182	219259.179527013054	10.501137375972
1	5191	220038.972164379539	297.36368419046
1	5216	220758.458030990906	337.43869490589
1	5225	221606.500876945134	461.85492254878
1	5239	222104.580851006005	369.90353063825
1	5274	224712.90132855423	226.57796850033
1	5291	225440.785463048477	133.35316940483
1	5304	225585.091569142714	0
1	5342	227259.652994108371	448.865349351
1	5347	227585.554140209395	500.08833139784
1	5367	230386.836204079827	0
1	5375	230944.134798544006	326.88128724719
1	5402	232767.645995967326	0
1	5425	233573.862413648381	152.62204756488
1	5433	233850.523139054096	3.590885472912
1	5452	234482.462253534048	0
1	5487	236571.533661460576	385.7088703016
1	5496	237421.070147437818	0
1	5505	237874.230492692052	333.29753122315
1	5513	237948.820803619187	0
1	5521	238088.864287505933	0
1	5530	238812.027115807867	0
1	5570	240568.036101829724	367.32115011224
1	5575	240642.185389807459	355.87321152021
1	5598	241616.55489313447	183.76028953807
1	5615	242380.908812543666	179.35699136453
1	5623	242826.795209379	0
1	5631	242928.116977114125	48.245047137696
1	5643	243224.327441224194	84.844664800323
1	5673	244431.056948625925	0
1	5684	246635.107962177575	0
1	5701	246831.642846486717	13.193307020946
1	5726	248215.632795152212	0
1	5738	248501.964842552216	46.070265471368
1	5746	248894.694599933633	143.69397673964
1	5761	249357.676386202485	301.19177555117
1	5770	249957.960917700593	151.78369085343
1	5819	251204.375963884625	417.91748586933
1	5828	251305.802505203192	123.19743151102
1	5836	251357.059280201149	76.7885927188
1	5841	251651.057951078691	309.44212955815
1	5877	252968.325211388202	174.23836859556
1	5922	256606.090658750611	0
1	5930	256913.175200327401	0
1	5938	257133.80108451032	0
1	5964	258026.805687652543	44.33152884092
1	5982	259786.908036661042	0
1	5991	260637.849224980672	36.016019427835
1	5999	260931.362334264027	0
1	6026	262258.145211011021	384.32161465735
1	6065	268195.822164090918	0
1	6074	268694.778667981681	0
1	6083	269420.034853803804	0
1	6091	269589.426155940848	0
1	6108	270495.817590612754	251.412170015
1	6135	271678.699947838859	296.58803723409
1	6154	272352.576413084813	59.714748764317
1	6177	273787.856916722297	0
1	6202	275244.139099062825	0
1	6213	277153.235493830202	0
1	6239	278741.211264148689	0
1	6260	282734.193966177525	0
1	6271	284667.354674291486	0
1	6280	285377.891320606198	0
1	6298	286724.230653576421	0
1	6308	288555.045614533262	0
1	6326	289699.395812821431	0
1	6369	292211.552504503311	0
1	6378	292575.71320952086	0
1	6386	292670.822766344532	0
1	6394	292983.952504065777	12.671456642507
1	6403	293709.491141924902	0
1	6417	293817.997223652338	52.187647023202
1	6429	294147.029173156495	240.51881340598
1	6434	294413.402290211021	495.31729114313
1	6446	295125.300763672084	611.57964775916
1	6451	295229.7226572553	558.61897105945
1	6493	296701.251773648353	3.596810766021
1	6512	297802.581833340667	1025.008600402
1	6517	297819.007093514715	656.41165712021
1	6562	300407.056216704016	655.67927872624
1	6580	301291.906882435499	1018.3678760665
1	6585	301413.206458158044	831.24590558981
1	6597	302016.029068103928	946.27856286026
1	6602	302026.292964064893	929.61211940499
1	6607	302136.463231438913	517.43426589361
1	6616	302380.086053313133	758.11755247361
1	6664	304343.068411797108	78.897562846959
1	6673	304901.287494845806	582.70131725733
1	6679	305352.415833970441	817.9269137564
1	6710	305959.318947201376	295.21403637665
1	6716	306028.34184254908	360.92207275944
1	6721	306175.3869978324	480.02818320447
1	6736	306961.054172222265	730.53385869928
1	6744	307292.376224513517	605.44001890183
1	6756	307812.140259138575	232.55578622098
1	6761	307831.56051339405	238.90018490642
1	6784	308930.979214019198	377.46139652114
1	6826	309780.03537079305	153.01622135424
1	6831	309815.563054358763	166.44503482452
1	6839	310253.79806646145	529.14654450882
1	6864	311137.116341438642	197.38064003228
1	6901	311731.43060888368	22.931618829024
1	6913	312120.106716265603	388.02429110731
1	6924	312344.754467572813	306.69218847986
1	6933	312818.122758933784	628.48984272741
1	6947	313261.066235312756	999.77510262727
1	6955	313437.452601494763	1039.7177791677
1	6964	313852.38317164475	908.57883300131
1	6990	314991.141025444005	942.56067193434
1	6996	315351.462778218251	372.05837290801
1	7004	315514.812159037987	11.502970210671
1	7021	315958.071992564202	52.835068493137
1	7060	317078.183939247291	986.47025283805
1	7066	317577.239117623347	1069.7028396158
1	7071	317603.224701383295	918.99827397583
1	7103	318502.067633577543	80.153001768054
1	7118	318820.509734730431	93.35204350337
1	7151	319501.536999928189	62.516403116499
1	7162	319928.231782395412	248.78964786799
1	7167	320186.251902903093	369.0134323591
1	7196	321355.422836192705	368.84626420035
1	7202	321856.383211153515	585.70317108037
1	7220	322319.485243092752	19.814743136988
1	7287	324860.582224276417	231.4700614033
1	7310	326284.464967823923	255.1198798769
1	7344	328234.471522321565	820.53083278225
1	7353	329025.219520061931	1217.0621379665
1	7362	329337.04624278396	203.2046952866
1	7404	330585.789875077767	0
1	7413	331110.895743026937	0
1	7438	331518.803191344219	0
1	7446	331720.955511126647	190.18386647522
1	7473	333806.844196659148	0
1	7481	333896.247390286588	0
1	7498	334616.758371781046	624.84784052246
1	7525	337131.92537343699	0
1	7533	337375.424966874916	0
1	7553	338170.478083649813	67.309421336247
1	7560	339005.368953577283	858.92497969254
1	7569	340150.20764597251	0
1	7578	340622.045811840178	0
1	7594	341073.656360153022	101.28300582959
1	7636	342244.797995125522	26.501765944939
1	7654	343873.725174271233	0
1	7669	344417.760023114459	286.82083874143
1	7686	345309.844477684707	748.36703130862
1	7713	345855.546381769384	295.05881927325
1	7721	346255.890784766884	340.30003579879
1	7738	346892.190529313818	0
1	7747	347731.321386613153	443.47691061482
1	7772	348559.681859406961	0
1	7781	348799.200403858176	0
1	7797	349206.360401110915	0
1	7815	350427.902470015991	334.81807469231
1	7840	351166.64628851832	0
1	7848	351482.733547397939	0
1	7857	352124.935533228702	0
1	7882	353122.84250447913	0
1	7892	354438.761441530018	3.45549489653
1	7900	354477.099938262298	0
1	7925	355220.509196565977	0
1	7933	355486.809279849411	5.272940366816
1	7942	355979.485839927814	0
1	7977	357560.760456355787	110.70644471913
1	7999	358283.98981839727	227.23987548553
1	8042	360403.589074990884	892.11167696751
1	8047	360446.527507470624	531.41423973571
1	8061	361231.228054161542	0
1	8073	361711.903775614539	129.71468321311
1	8081	361976.20786712447	279.03983533711
1	8093	362788.674631559012	870.25203489033
1	8102	363684.188753756333	1674.3042611823
1	8108	364137.778704274355	1944.0904327692
1	8116	364462.914747071035	283.1537071069
1	8138	365870.260056776966	1358.52835544
1	8146	365993.220427643295	144.23436680334
1	8161	366554.867139579626	226.38457468864
1	8169	366713.68594893369	276.3449885555
1	8193	367747.671636729534	749.43642362552
1	8207	368233.137159548807	326.45591906482
1	8221	368521.531859196084	186.6980332025
1	8229	368990.611024764132	381.58495934503
1	8246	369255.034602203283	12.467202416435
1	8259	369634.117418320273	18.911165413105
1	8277	370220.907314122848	105.12878349747
1	8285	370340.96316517883	23.514300269149
1	8316	372889.410750685063	570.0731759289
1	8335	373311.438790689631	308.07308817291
1	8340	373484.455732529903	475.13351942256
1	8355	374081.081998008212	509.37490240491
1	8360	374115.535455937507	240.27651435166
1	8366	374382.019911108197	441.48735269519
1	8426	377225.506192134882	69.478954376834
1	8441	377560.434832258218	109.59525474353
1	8462	377949.068894684622	103.32593580959
1	8471	378391.873661356008	354.02422817844
1	8493	378944.968696193536	48.646077906574
1	8519	379470.513835545791	188.90956893174
1	8604	384092.06574820528	0
1	8621	385117.943734480725	74.994896807729
1	8630	386171.746918264677	0
1	8648	387495.600745463011	122.23110960626
1	8665	388158.373786338467	0
1	8673	388344.618794759551	0
1	8696	389093.84001983751	341.87353475558
1	8702	389351.818972735623	416.75781893179
1	8724	390058.134284202067	0
1	8732	390392.614246352239	0
1	8741	391010.31684589835	0
1	8765	391498.64090349987	46.549454795465
1	8792	393373.0271611552	0
1	8800	393501.946907601634	113.89659338129
1	8808	393737.86553774314	0
1	8818	394532.345871160359	0
1	8829	394933.449345855566	201.08271892239
1	8877	397155.089400538167	0
1	8886	397852.17860988482	0
1	8906	398857.747968253943	677.67242763569
1	8925	399879.493340875126	741.161749391
1	8930	400139.182296321253	382.41392852306
1	8945	400606.831292247741	316.65330938345
1	8953	401241.001049703344	729.01263796933
1	8962	401514.264705347793	923.83467366627
1	8990	402815.476138748826	121.08326161455
1	9029	404986.256401510033	79.908689672195
1	9057	406185.52279155918	0
1	9076	408043.493128105073	695.03849467278
1	9084	408332.39174499839	0
1	9095	408594.551689539685	227.5934991164
1	9100	408673.267739291933	224.43223654434
1	9145	411994.318476957086	0
1	9171	413728.445443691407	0
1	9187	413999.5702744523	13.428286856787
1	9196	414122.49085408247	80.716314810958
1	9205	415051.34631315199	604.87893485135
1	9229	415479.194016392463	0
1	9239	416307.530045955697	0
1	9247	416616.201892363793	0
1	9274	418629.075631985445	0
1	9308	420567.793191680209	52.222018741052
1	9316	420737.654419408814	0
1	9325	421393.089817534295	0
1	9334	421707.347476593518	0
1	9346	422626.096228904315	798.59789221357
1	9376	423658.078937738543	0
1	9385	424223.182554982057	0
1	9410	425193.755942332577	68.564369957756
1	9454	427892.535077568601	0
1	9463	428291.406358978428	0
1	9471	428792.718975850433	0
1	9480	429196.393445765868	0
1	9491	431308.282574595336	0
1	9507	431833.889387853073	0
1	9515	431861.766725435493	20.887279729448
1	9533	432521.01263421626	472.85019263016
1	9547	432659.532461431831	503.92929760244
1	9552	432725.875054195569	418.62337056839
1	9558	433260.399643417377	697.57234560397
1	9569	433301.094502657385	736.94537197087
1	9577	433379.959566826122	761.04840775098
1	9586	433569.060129696727	207.96291096674
1	9612	434138.900464793441	71.778905420687
1	9666	436584.762531665555	476.46792088833
1	9680	437209.114241729338	583.58776668673
1	9689	437429.146100769468	454.47946949753
1	9731	439021.457489802272	869.55631235192
1	9751	440440.947431319075	0
1	9759	440674.165362480749	37.108461331168
1	9784	441793.551119135894	1098.3593219104
1	9792	442411.262048746235	961.24941551493
1	9798	442573.938047148229	849.38658233582
1	9814	443036.676038125502	127.92785376797
1	9833	444986.664738850788	347.81900327607
1	9847	445239.087302083521	188.97646304694
1	9864	445755.200094684515	149.94258620582
1	9872	446089.534958169006	443.23268245501
1	9884	446962.276366596939	1099.5616813941
1	9890	447134.896685436326	661.24456730182
1	9898	447157.473091622572	548.12885907727
1	9934	448411.914507478742	1189.9369361189
1	9946	449249.584151207009	1260.3609021939
1	9955	449376.543667826151	1371.13280693
1	9964	450104.943460489869	1973.9056631639
1	9969	450712.094721572477	2575.6838791075
1	9975	450841.201190818778	1725.2679439505
1	9983	451088.223134160859	54.535469473755
1	10008	451778.228608174172	274.54710954903
1	10030	452699.781665743499	146.43963035585
1	10056	453775.250789860108	486.3131827862
1	10061	453829.392877504999	510.08672016785
1	10066	453950.896670129314	370.36662821565
1	10089	454992.686942258094	517.50152293662
1	10094	455234.08625611723	649.00908343238
1	10109	455714.459152260831	737.06500402632
1	10115	456161.859066836936	644.88982388631
1	10120	456385.203550765751	808.70340788869
1	10134	456708.593569126822	42.561104822806
1	10170	457392.839234150003	164.46193462082
1	10193	458270.154037068971	585.54756115771
1	10204	458816.127024898599	107.90445003859
1	10282	462571.545461366843	329.45910404278
1	10304	464278.327636105296	705.83875308396
1	10331	465640.975331730877	1.049339344425
1	10340	466025.997424279781	55.723873734871
1	10351	466393.84320345559	290.83934442686
1	10382	469046.011396429932	1454.6048649799
1	10390	469428.791914723003	418.56758527616
1	10399	469898.992865646303	517.04446851297
1	10408	470427.155526014529	624.12394772601
1	10425	471598.74422915976	1023.3000685112
1	10469	473392.903819102973	135.1524623651
1	10491	474671.978864982653	726.17370647216
1	10505	474974.951167748505	135.60593013402
1	10521	475152.696897017919	31.440854508419
1	10558	476234.523642924674	274.80076298163
1	10576	477283.884576436993	0
1	10593	477887.532816133416	0
1	10610	478716.013047654744	95.276829745266
1	10618	479047.552109809033	0
1	10630	479594.513100016248	478.03903691213
1	10651	480203.530240114555	142.90221589393
1	10656	480372.089510974574	200.57465595971
1	10674	481317.02958893174	846.24678391968
1	10683	481712.511979704925	1182.4095857593
1	10691	481986.301504316185	1208.4493670447
1	10696	482007.990435188306	479.8213422077
1	10705	482344.34386088204	418.47690891751
1	10750	483841.5787695767	35.604854539624
1	10789	485434.809500888939	410.52867641761
1	10794	485562.696068585575	391.1098763032
1	10802	485934.20824290716	357.29145982724
1	10821	486284.300626418264	65.353202863219
1	10843	486790.603001717223	144.18420761999
1	10873	487585.404400785854	60.653555161872
1	10920	489613.79073707151	0
1	10932	492119.636431348827	0
1	10941	492812.986021758417	0
1	10958	494115.179062904794	0
1	10967	494708.327160253742	0
1	10984	495328.423143951623	308.56227006081
1	11016	496576.994643298264	394.63416413053
1	11033	497305.805692706719	313.04339860161
1	11038	497375.23121942701	187.0354738301
1	11060	498611.162342307726	452.63041928386
1	11077	498983.231289996925	0
1	11108	500898.525872567264	1627.5986341885
1	11113	500908.029448800527	1592.6250428796
1	11122	501323.125581994693	1980.5822125014
1	11127	501674.994438656956	2145.7018407623
1	11133	501873.715915893757	2000.3251246085
1	11142	502778.500360942818	2804.894962106
1	11147	502882.833002860919	2095.3373709625
1	11152	502921.125707848415	1745.8522876883
1	11157	503060.251763436421	907.45669535015
1	11187	504287.17940232067	491.25104618884
1	11195	504375.038532778361	441.5853588537
1	11213	504717.484825567819	62.863194279333
1	11237	504931.707778716821	0
1	11279	506884.339669320672	416.7332199789
1	11316	508068.207215132755	341.48269417761
1	11333	508881.120941358698	254.08743749235
1	11360	510029.167549997133	675.34740494988
1	11371	510662.113119507203	1269.233629283
1	11377	511075.397477274114	1217.7192346219
1	11407	511996.747859478019	62.445065606835
1	11435	512523.485479918616	310.09324420371
1	11440	512616.966629734964	138.61776528223
1	11460	513994.396225679164	774.56829482817
1	11474	514660.874421375851	49.624706064751
1	11482	514868.266240354542	0
1	11500	516077.299557865749	707.20916562289
1	11525	516995.477378882074	0
1	11533	517413.460995026864	0
1	11542	517715.210050307232	80.309461191519
1	11550	518020.111072795751	56.855394568385
1	11585	519450.247209986453	58.260922544829
1	11602	520069.034734554089	135.7376206847
1	11627	520789.605665401773	6.449247415524
1	11651	521688.901306616293	0
1	11666	522001.862294455439	211.58650604866
1	11674	522084.227913188516	126.1316158872
1	11679	522402.656754729609	382.02308315587
1	11727	524871.278023094198	234.54575931191
1	11747	527355.633537985472	0
1	11785	532372.86277206147	0
1	11805	535294.623542883162	0
1	11815	536855.515743048323	0
1	11834	538601.544787960336	0
1	11848	538910.64717067105	168.0033995074
1	11857	539584.878364149883	792.18087293722
1	11876	540479.361510865027	223.87672125873
1	11891	540928.035066128546	404.04974055118
1	11896	541062.55835401033	355.58438002763
1	11907	541482.104343078936	168.83633977211
1	11935	542472.624038943528	22.271119351022
1	11956	544040.40096225402	332.21579152407
1	11975	545281.593678691516	975.39647222668
1	11980	545378.072358280812	892.18421304816
1	11985	545418.690482215632	271.33882405716
1	11993	545917.241969139128	330.87271773429
1	12010	546258.251441221884	113.27392291538
1	12030	547869.361409161303	0
1	12038	548134.182513303075	0
1	12058	548961.828383596646	262.40759199134
1	12098	551210.430646443737	128.31869699488
1	12115	551667.721280222008	0
1	12136	552117.351182486705	434.5426483895
1	12144	552240.34078442071	527.15159258869
1	12152	552539.443367342143	691.15464063886
1	12167	552994.376125798202	898.49087189654
1	12182	553525.402414535827	1323.3027622174
1	12194	554282.257541927786	1711.7182247156
1	12205	554453.09001664297	1810.7913833458
1	12210	554467.45627997484	1012.9757842313
1	12222	555125.857355654568	1544.9578699411
1	12230	555708.94146833073	649.80055044106
1	12267	556774.077053380653	176.23999725023
1	12281	557601.457641783612	39.227178342239
1	12294	557951.341876254059	177.66105085562
1	12332	559562.863089739395	700.28609993841
1	12340	559765.860224099245	737.13829925585
1	12357	560797.378012636136	438.20466093997
1	12362	560804.518583949773	386.87494496151
1	12379	561520.891480279871	95.041663869667
1	12387	561626.609121745237	113.03291878791
1	12395	561669.016813232657	15.856362327599
1	12422	562083.466064927192	15.052977389539
1	12430	562141.207984129053	27.264963421772
1	12488	564942.217405165367	302.51429322531
1	12526	566341.885414593209	49.014963342248
1	12552	566780.297440261147	36.814172279319
1	12571	567586.905046437043	210.41293699656
1	12588	568298.103423207359	77.431470267334
1	12602	568722.761232130131	0
1	12630	571675.097305014752	5.016027005636
1	12639	572330.991161885825	0
1	12660	573757.050872006412	922.12548888908
1	12665	573823.388034534475	624.80989800881
1	12674	574896.93591975573	0
1	12682	575156.475576343891	148.94288866833
1	12707	575854.862650787749	0
1	12716	576228.090063743367	304.85589312287
1	12741	577140.061759233555	161.80231201016
1	12749	577340.757030598467	29.453047397645
1	12760	577441.973987137032	91.665259235666
1	12777	577569.310051444944	105.398930057
1	12799	578361.776561151281	73.509012686434
1	12810	578622.01245650986	199.30286304539
1	12824	579367.660744527775	0
1	12868	582606.876563487707	0
1	12888	583093.023072410106	122.93518638387
1	12896	583333.983667375353	128.88385276717
1	12911	584502.193727325528	0
1	12928	585266.131848364738	0
1	12948	585903.759059129011	15.702844445019
1	12953	586058.652905396035	167.91745862035
1	12996	588521.09018088199	0
1	13013	588881.690847922537	0
1	13032	589410.880370485815	41.228918248089
1	13054	590107.723461245659	0
1	13063	590414.352448569102	0
1	13071	590740.602067955308	34.642957005463
1	13089	591889.52455376214	0
1	13106	593139.891675648878	56.632860643239
1	13116	594556.650165360351	1339.3514058974
1	13134	595573.715438572253	32.735660767676
1	13142	595750.779198384197	0
1	13163	597167.799482751226	469.72502763266
1	13182	597515.271553101105	57.510191656164
1	13194	597788.626957338583	277.33153668733
1	13202	597888.500078703836	284.44052421511
1	13207	597936.608451102679	48.298874925423
1	13220	598370.352823836868	141.54663694618
1	13229	598556.111309647594	47.492977948222
1	13275	599896.883152827672	48.150050105662
1	13284	600091.644909591697	0
1	13318	602119.150727270657	0
1	13326	602244.783055547263	63.631184781313
1	13343	602847.327779883651	0
1	13352	603186.688344631584	193.16309904455
1	13372	603850.974078949003	237.9641555295
1	13377	603911.607259505215	169.31782335806
1	13409	605222.911572672166	464.06775522591
1	13441	607448.4173016766	415.28555927048
1	13450	607726.014378006276	181.81140874593
1	13471	608118.323123399901	90.054080329301
1	13484	609064.772257142421	384.7196583744
1	13492	609391.439636882441	599.37155798149
1	13500	609613.598335637276	481.12810359863
1	13509	609984.921330717977	567.11286605272
1	13526	610499.303209329496	352.62962219029
1	13532	610578.242990037983	99.812019387582
1	13543	610776.011472925321	184.27522526346
1	13560	611726.970839658674	52.127763859883
1	13589	612919.552625842783	991.48500791375
1	13594	613008.213613037679	1045.3815741722
1	13620	614258.649015698964	492.29308450441
1	13673	616144.963630022299	64.600799065135
1	13699	617554.362919213241	0
1	13725	618851.097481832673	0
1	13734	619656.694510343205	0
1	13745	620089.954559314013	299.47071697148
[...]
7	15060	677451.072812448998	3
7	15079	678954.078603613911	2
7	15083	678954.432376642404	3
7	15087	679093.069014866511	2
7	15093	679265.678861002721	1
7	15103	679529.982583477636	2
7	15122	680647.19242120501	3
7	15124	680708.175181355213	2
7	15140	682048.230901998195	3
7	15147	682171.562935842325	2
7	15151	682329.329580075465	3
7	15164	682909.073570576309	2
7	15167	682977.615730557273	1
7	15172	683566.105238223891	2
7	15187	683905.293859426641	1
7	15197	684306.496416580401	2
7	15202	684658.021878235984	3
7	15211	686230.185477859481	2
7	15217	686372.11161596441	1
7	15235	687003.850115906026	2
7	15237	687059.97052093923	1
7	15253	688637.520742399533	2
7	15255	688677.638947036182	1
7	15264	689505.942231438767	0
7	15282	690276.579919408099	1
7	15287	690316.767919672598	2
7	15296	691636.549184624902	1
7	15307	692385.254251572303	2
7	15312	692462.732416662022	3
7	15320	692565.477101541879	4
7	15325	692809.945138943575	5
7	15339	693159.817639055285	6
7	15341	693472.57479214297	5
7	15346	693553.838376066067	4
7	15358	693783.328505840188	3
7	15374	694914.150126757985	4
7	15378	695011.248215339743	3
7	15382	695232.358994305402	4
7	15387	695615.780278053597	3
7	15391	696042.858836685981	2
7	15394	696124.407236622988	1
7	15401	696455.238196809384	2
7	15406	696663.257899737325	3
7	15426	697221.086297795963	4
7	15430	697229.789440354203	3
7	15435	698189.033980457509	4
7	15443	698205.255399854242	5
7	15448	698244.844968181178	6
7	15465	698727.398054897951	7
7	15470	699241.53795681434	6
7	15474	699430.050573034122	7
7	15478	699732.49406102328	6
7	15487	700332.027724623461	5
7	15490	700371.119727917312	4
7	15498	700483.190227618526	3
7	15505	700565.569666509926	2
7	15513	701163.114408958768	1
7	15517	701506.798947874571	0
7	15524	701760.09937653044	1
7	15529	701763.239282056309	2
7	15538	701843.021963035899	1
7	15571	702390.265197912611	2
7	15594	703778.335638974235	3
7	15598	704022.874333873261	2
7	15602	704229.126055902981	3
7	15612	704707.196108979376	2
7	15619	705293.462010848653	1
7	15622	705298.093797636718	0
7	15631	705559.635135536745	1
7	15635	705638.368446057013	0
7	15660	706675.312217504511	1
7	15664	706918.535560659224	0
7	15668	707099.870073947408	1
7	15674	707352.992700213223	2
7	15687	707510.288212090078	3
7	15696	707635.520242384664	2
7	15700	708363.225189418723	1
7	15721	709411.397700529575	2
7	15729	709962.593996613828	1
7	15733	709970.212898017649	2
7	15748	710555.375634282541	3
7	15753	710576.636173293208	4
7	15758	710622.253454947247	5
7	15766	711003.411526973145	4
7	15773	711299.682188546259	5
7	15778	711311.044320265265	6
7	15783	711460.262434961782	7
7	15796	711569.95905389796	8
7	15811	712035.547408010282	7
7	15822	712448.946345574769	6
7	15831	712825.859640662647	5
7	15844	713161.476646137501	4
7	15848	713275.04605563308	3
7	15851	713418.204511498695	2
7	15854	713714.839663182472	1
7	15858	713748.197335060172	2
7	15873	714160.222850183928	1
7	15897	715290.08667638671	2
7	15902	715555.277040347476	1
7	15906	715894.203514787815	2
7	15911	716151.41020668166	3
7	15916	716323.840152662861	2
7	15924	716603.491911910846	1
7	15937	717378.788738866182	2
7	15941	717379.839663738341	1
7	15955	718147.268306469231	0
7	15980	719489.535700398011	1
7	15985	719699.136267340686	2
7	15994	720121.160769045735	3
7	15999	720175.882017645369	4
7	16008	721032.352618473881	5
7	16019	721499.142668860047	6
7	16027	721633.834384219169	5
7	16030	721635.931688897012	4
7	16034	721692.028283112858	5
7	16039	721780.424465394161	6
7	16043	721997.465093829009	5
7	16055	722770.715532024349	4
7	16064	722810.067724258441	5
7	16069	723005.275693769742	4
7	16072	723048.921172542479	3
7	16102	724516.931190362575	4
7	16110	724594.169823451732	5
7	16115	724916.466214457523	6
7	16121	725316.867319586943	7
7	16128	725345.752905079169	6
7	16136	725941.694354379505	5
7	16142	726450.336878327006	4
7	16150	726533.454683296786	3
7	16170	727394.078751870287	2
7	16174	727406.712445431681	3
7	16179	727469.884245631405	4
7	16193	728055.705892155879	5
7	16196	728291.725880877713	4
7	16209	728670.136365949961	3
7	16219	728882.67641655911	4
7	16228	729247.326712421079	5
7	16233	729397.055988734692	6
7	16238	729733.066171776157	7
7	16252	729912.435299076959	8
7	16254	729921.504063568797	7
7	16269	730617.569641607618	8
7	16271	731226.866852528136	7
7	16286	731694.389963201412	8
7	16288	731935.689495457188	7
7	16297	732452.070265788649	6
7	16314	733355.971532752081	5
7	16319	733586.376887935833	6
7	16326	733813.44377093796	5
7	16329	734188.011783247288	4
7	16333	734193.891070840289	5
7	16338	734227.657116513322	6
7	16348	734454.367074378646	5
7	16365	735084.974853967869	4
7	16373	735125.287539922014	3
7	16383	736761.705445162618	2
7	16400	738811.629969002247	3
7	16408	739360.855082955794	4
7	16410	739422.853802625305	3
7	16425	739823.973616740292	4
7	16427	740109.569355152788	3
7	16436	740302.934376598812	2
7	16454	741424.55429492044	3
7	16458	741437.863305225446	2
7	16463	741901.065845185059	3
7	16470	742196.827565434934	2
7	16475	742325.632555986318	1
7	16491	742781.349606749747	2
7	16496	742802.023817038858	3
7	16510	743316.375113094803	4
7	16514	745027.32097630975	3
7	16531	745956.218624974614	2
7	16538	746090.692205927979	3
7	16543	746117.427291813825	4
7	16548	746204.31052736342	5
7	16553	746732.879330905524	4
7	16562	747140.067234872209	3
7	16569	748200.818632390076	2
7	16578	748339.483716315386	3
7	16583	748656.764394568298	2
7	16586	748981.375208646757	1
7	16611	749806.657923904455	2
7	16620	750272.008873541789	3
7	16625	750335.8218945027	4
7	16638	751549.566226371084	5
7	16642	751699.58130823658	4
7	16645	751820.362682520456	3
7	16652	752196.230305156987	4
7	16657	752357.292755788493	3
7	16663	752694.687202360281	2
7	16667	752710.27309312427	3
7	16676	753306.971579488794	4
7	16681	753344.358546198781	5
7	16686	753827.374588664011	4
7	16692	753994.313083904736	3
7	16696	754271.740747028254	4
7	16700	754444.594594645982	3
7	16703	754466.727786543094	2
7	16711	755048.666822091671	3
7	16716	755134.702523369434	4
7	16720	755212.041039673458	3
7	16724	755240.688686718547	4
7	16729	755441.418317597562	3
7	16733	755456.195415669924	4
7	16746	755595.74229527649	5
7	16769	756224.146259845223	4
7	16773	756738.109934025056	5
7	16777	756742.90416472605	4
7	16781	756803.010379162627	3
7	16792	757093.074379082262	2
7	16800	757464.581343383196	1
7	16805	757517.225093218112	2
7	16812	757904.889844257096	1
7	16828	758527.996658435643	2
7	16836	758653.748367969735	3
7	16844	759021.380737516877	2
7	16852	759759.834435866133	3
7	16856	759861.46162230743	2
7	16860	759880.533864009201	3
7	16864	760306.650159139036	2
7	16867	760339.285681998002	1
7	16871	760425.602521873295	2
7	16877	760898.008797523528	3
7	16907	762725.900287375913	4
7	16933	764163.467310580603	3
7	16946	764799.7033526526	4
7	16966	765147.074882256906	3
7	16996	767164.417892625809	4
7	17001	767358.005820173679	3
7	17005	767638.381303894619	4
7	17010	767684.605440901716	5
7	17014	767698.134356518877	4
7	17020	767820.275383395327	3
7	17029	768007.486860892206	2
7	17033	768220.920107574019	3
7	17042	768376.336914984787	2
7	17053	769965.720563026391	1
7	17063	770255.533087717864	2
7	17068	770582.616162049584	3
7	17079	772004.277534323562	2
7	17082	772273.434136466376	1
7	17104	772546.412136900378	0
7	17108	772591.781020021486	1
7	17127	773555.386481720509	2
7	17144	774254.320293051862	3
7	17148	774532.462823892238	2
7	17152	774617.927332604856	3
7	17166	774949.872895151048	4
7	17178	775059.962753785995	3
7	17193	775695.118916784273	4
7	17201	775804.018771223754	5
7	17209	776236.191177908515	6
7	17212	776457.54750036797	5
7	17228	776858.635428414335	4
7	17232	776968.846560738694	5
7	17244	777084.318907121287	6
7	17249	777130.993375388544	7
7	17254	777169.87152515591	8
7	17261	777563.218107744469	7
7	17269	777743.075176663994	6
7	17279	778142.307540072619	7
7	17287	778869.806966813542	6
7	17296	779853.165902353746	5
7	17302	780215.086244079057	4
7	17313	780414.490837749395	3
7	17328	781044.105955618945	4
7	17331	781953.682621426113	3
7	17346	782383.882869502582	4
7	17348	782611.60618655494	3
7	17362	782941.449253503745	4
7	17371	783184.933770078376	5
7	17374	784468.377354561553	4
7	17380	784546.279665907033	3
7	17394	786955.332627656855	2
7	17411	787411.375695086316	3
7	17417	787559.221216234259	4
7	17419	788050.43669913321	3
7	17435	789228.509079191548	4
7	17437	789312.81563466467	3
7	17445	789375.915110260771	2
7	17453	789739.343856512994	1
7	17468	790419.107998835509	2
7	17479	792296.686097541943	3
7	17482	792791.153441205036	2
7	17490	793267.702490318675	1
7	17494	793628.755685817123	0
7	17504	794548.97033262166	1
7	17534	797104.635075293692	2
7	17538	797180.514880158625	1
7	17546	797326.398406084155	2
7	17551	797378.279391565017	3
7	17555	797621.505643169338	2
7	17559	797974.537973635971	3
7	17568	798205.725636075528	4
7	17577	798769.912061026209	5
7	17582	799153.842158884091	6
7	17604	799988.471259929912	7
7	17609	800039.651362363705	8
7	17611	800218.24584021079	7
7	17620	800326.710783126973	6
7	17628	800524.115522648808	5
7	17633	800635.857278310001	4
7	17636	800814.825962480902	3
7	17653	801439.572107223848	2
7	17667	802121.878129573463	1
7	17671	802146.804311555933	2
7	17685	802571.644598885129	3
7	17687	802649.248270049988	2
7	17693	803660.754508939929	1
7	17711	804450.0298860084	2
7	17714	805289.473498981463	1
7	17724	806598.768888655523	0
7	17739	807146.05892903769	1
7	17748	807952.498702140624	2
7	17755	808318.939925458856	1
7	17759	808384.561814218174	2
7	17764	808646.463386524632	1
7	17782	809953.14169054856	2
7	17791	810622.178551184079	3
7	17794	811387.895491364017	2
7	17810	812415.791149164699	3
7	17812	812915.530949520374	2
7	17821	813208.205320349767	1
7	17827	813999.314166917372	0
7	17847	816363.509420837676	1
7	17860	818121.45041143953	2
7	17866	818329.034596190513	3
7	17877	818750.630383303697	4
7	17881	818896.931029652605	3
7	17886	819711.021469135128	4
7	17891	819773.969183452693	3
7	17904	821262.923571392294	2
7	17922	823240.189684255684	1
7	17926	823368.324565306571	2
7	17942	824485.80745983298	3
7	17947	824706.105776560668	4
7	17956	825119.428464734988	5
7	17960	825177.853279743949	4
7	17966	825648.263216195807	3
7	17970	825652.364945672485	4
7	17975	825720.017806545291	5
7	17981	826076.483086051792	6
7	17997	826741.460272458583	5
7	18000	826797.332585683917	4
7	18004	827132.034501870067	5
7	18010	827294.773740863801	6
7	18014	827540.945647308155	5
7	18017	827608.30063207893	4
7	18035	827953.761170412851	3
7	18039	828043.932085187602	2
7	18042	828150.835008501768	1
7	18070	829117.026355416748	2
7	18084	829895.642681001314	3
7	18088	830204.691499772154	2
7	18100	830253.446115952633	1
7	18124	831503.422434703942	2
7	18130	831987.77413865081	3
7	18138	832438.612743245047	4
7	18146	832496.00660371099	5
7	18152	832514.115780308425	6
7	18156	832514.506514230903	5
7	18160	832573.560593836153	6
7	18167	833079.446573473988	5
7	18175	833219.455551724191	4
7	18178	833225.941543368214	3
7	18189	834562.946270112333	4
7	18193	834567.916445594549	3
7	18216	835642.180754551141	2
7	18226	836214.60703448977	3
7	18235	837459.278465142733	2
7	18239	837714.849647421696	3
7	18251	838144.177922537667	4
7	18256	838220.548787772236	5
7	18261	838266.955563646109	6
7	18266	838432.95734903404	7
7	18271	838654.436213910406	6
7	18283	839077.415118475257	7
7	18287	839117.246338636172	6
7	18302	839462.475183986392	5
7	18306	839637.918183533986	6
7	18311	839850.216060369277	7
7	18319	840092.015752271706	6
7	18327	840339.206423821478	5
7	18335	840771.988249474657	6
7	18339	840889.920144226823	5
7	18343	841155.253305647112	6
7	18359	841723.049454092408	5
7	18366	842642.086740688397	4
7	18370	842828.416273589906	5
7	18376	843414.307678028955	6
7	18380	843446.188529403733	5
7	18383	843477.009869747009	4
7	18386	843515.218199974315	3
7	18390	843783.238408090791	2
7	18393	844091.641586781924	1
7	18400	844271.502740547584	2
7	18405	844428.790430106024	3
7	18420	846234.797404904259	2
7	18425	846860.256951888373	3
7	18449	847771.465097691761	4
7	18458	847791.783153942648	3
7	18469	848016.507244224632	2
7	18479	848256.882454992509	3
7	18492	848346.080382809138	4
7	18496	848399.847996418223	3
7	18534	850064.31128009889	2
7	18538	850145.866226927513	3
7	18557	851087.000475828984	4
7	18559	851198.009493350167	3
7	18575	852308.855029336351	4
7	18590	853024.51577885914	5
7	18594	853213.818637128673	4
7	18597	853234.862429613109	3
7	18601	853277.800407478522	4
7	18610	853598.673048546273	5
7	18617	853952.986980290987	4
7	18621	854021.093966478467	5
7	18626	854123.446477920142	6
7	18646	855049.514257318747	7
7	18653	855438.163178359472	6
7	18661	855482.092631488366	5
7	18674	855736.695962908186	4
7	18679	855986.416096332994	5
7	18683	856100.714850795797	4
7	18701	856788.280248856893	5
7	18703	856933.82244383869	4
7	18708	857007.794947025851	3
7	18711	857126.837729448549	2
7	18734	857667.681750456429	3
7	18737	858148.17561841985	2
7	18752	858782.983129422907	3
7	18754	859043.666188162275	2
7	18768	859411.717254451388	3
7	18772	860570.615150102674	2
7	18787	861149.388615568698	3
7	18799	862878.217796619724	2
7	18803	862973.752375052322	3
7	18808	863006.450526612366	4
7	18816	863793.062884122467	3
7	18824	863898.581862059817	2
7	18837	864227.565764569829	3
7	18845	864429.16044831309	4
7	18850	864556.538077392171	5
7	18858	864790.671369863347	4
7	18872	865226.476752762532	5
7	18884	865762.065513220045	6
7	18889	865802.627635030699	7
7	18891	865992.778400316402	6
7	18908	866344.095057851208	5
7	18918	866504.648922713241	6
7	18922	866513.445345830813	5
7	18925	866560.829283922959	4
7	18933	867279.371356803757	5
7	18937	867343.031984090795	4
7	18944	867408.180846631205	5
7	18948	867481.39405117054	4
7	18952	867643.779736266753	5
7	18957	867695.342165101694	6
7	18963	867761.136004508538	7
7	18991	868694.157706273894	6
7	18997	868828.504030321912	5
7	19010	869598.669633686351	6
7	19014	869955.518284101532	5
7	19019	870015.376156012438	6
7	19023	870358.39424653921	5
7	19027	870587.702267957337	6
7	19032	870794.74096453164	5
7	19040	871497.593541184355	4
7	19047	871587.798987056514	3
7	19059	871987.076167312267	4
7	19064	872157.936139862187	5
7	19074	872587.389942841113	4
7	19077	872720.327038551623	3
7	19091	873485.100898821725	2
7	19114	874303.09694116465	3
7	19128	874644.81781900845	4
7	19141	874872.072221609371	5
7	19144	875332.818518756612	4
7	19158	876088.846593198516	3
7	19162	876383.86115107613	4
7	19166	876459.621286067464	3
7	19188	877771.744790615558	4
7	19193	878026.821021270391	5
7	19195	878070.995435210467	4
7	19200	878073.91650471199	3
7	19213	879031.217129896525	2
7	19218	879175.673086503366	1
7	19235	880161.142911742782	0
7	19239	880269.953410395945	1
7	19256	881812.57625149074	0
7	19261	882468.985019292264	1
7	19266	882679.300276157891	2
7	19274	883076.835126974931	1
7	19289	883698.902905708215	2
7	19292	884628.43568136148	1
7	19309	886960.07927152612	2
7	19318	887353.019298544321	3
7	19322	888860.544706933768	2
7	19337	889601.762742405649	3
7	19339	889767.312552854245	2
7	19344	889985.288569112464	1
7	19347	890232.006503502595	0
7	19372	891755.53404465216	1
7	19374	891944.051431038603	0
7	19389	892630.810369613706	1
7	19391	893121.169001004272	0
7	19406	893660.090301686089	1
7	19415	894110.011348345895	2
7	19424	894803.633973841518	3
7	19426	894886.919231618403	2
7	19440	895235.490204430784	3
7	19443	895959.74054478252	2
7	19451	896058.093024053564	1
7	19476	897693.353579046463	2
7	19482	898078.767796818182	3
7	19489	898370.2853840872	2
7	19494	898613.076722293952	3
7	19502	898805.871306937579	4
7	19507	899087.293897923827	5
7	19511	899184.655289534161	4
7	19514	899217.280878725659	3
7	19524	899475.649997679923	2
7	19528	899873.634963395529	3
7	19534	900479.589466515094	4
7	19542	900740.678289366147	5
7	19555	901518.406088443404	6
7	19560	901617.368108521186	7
7	19565	901661.89246393922	8
7	19584	902069.856531484497	7
7	19587	902123.685296041447	6
7	19604	902913.87609363093	5
7	19610	903004.667462923901	4
7	19628	904368.366778625712	5
7	19631	904535.206040295729	4
7	19646	905519.735585777131	5
7	19648	905564.078072209061	4
7	19656	905656.856350991433	3
7	19665	906129.545096076877	2
7	19681	907587.278363691925	3
7	19683	907684.560775171431	2
7	19688	907728.516754070891	1
7	19710	909575.255232037388	2
7	19716	910303.303227733142	3
7	19719	910983.5221333214	2
7	19724	911111.606340262866	1
7	19743	912060.833923647636	2
7	19758	913252.956384787485	3
7	19769	913646.529793479809	2
7	19773	913742.683235113241	3
7	19778	913914.465775743152	4
7	19783	914196.783930434378	5
7	19789	914260.608189388046	6
7	19796	914907.634389385315	5
7	19805	915190.858064754974	4
7	19818	915430.22191669157	3
7	19829	916050.067592861868	4
7	19840	916175.184270805492	5
7	19849	916641.13148008586	6
7	19854	916708.060806004448	7
7	19859	916944.340131681171	8
7	19863	917051.561259446073	7
7	19867	917214.222189079548	8
7	19871	917221.516992659539	7
7	19885	917967.475019991189	6
7	19888	917995.184251532282	5
7	19906	918439.398752378963	6
7	19914	918759.895038043605	5
7	19922	918960.632373224768	4
7	19935	919597.310344532875	5
7	19939	919622.776225323867	4
7	19946	919718.686822955141	5
7	19951	919837.926614580905	6
7	19955	919908.249938760261	5
7	19958	919966.630093827196	4
7	19971	920684.037731782658	5
7	19985	920931.163247885921	4
7	20000	921622.15058427106	3
7	20005	921761.742567238477	4
7	20009	922015.926293769156	3
7	20016	922730.260180034519	2
7	20023	922873.205907688697	3
7	20031	923378.973945025047	2
7	20034	923430.347146068025	1
7	20042	924127.00142109396	2
7	20047	924357.572348697891	3
7	20052	924400.328365297686	4
7	20057	924408.899626794818	5
7	20061	924468.742011660787	4
7	20067	924630.149214737687	3
7	20080	925177.542188794514	4
7	20088	925275.446117328596	5
7	20092	925308.686621955921	4
7	20096	925429.960456699869	5
7	20101	925506.735295801149	4
7	20113	925765.015216154885	5
7	20138	926682.18429127543	4
7	20151	927423.202639287185	5
7	20175	927911.882443926208	6
7	20191	928753.535414255991	5
7	20194	929222.845500011505	4
7	20198	929300.115454630214	3
7	20202	929544.020554474558	4
7	20210	929755.579033734678	5
7	20215	929835.052569477658	6
7	20230	930263.988714767103	5
7	20248	931039.69998655407	6
7	20255	931306.082353364253	5
7	20265	931436.16724223236	6
7	20270	931480.677503181772	7
7	20275	931770.936548261531	6
7	20278	931815.815690865103	5
7	20281	932093.402531105585	4
7	20288	932259.639566887077	3
7	20292	932492.119064060511	4
7	20296	932581.773527384725	3
7	20306	932867.058786923127	4
7	20310	932992.539534815396	3
7	20315	933115.577494777948	4
7	20320	933291.555551775369	5
7	20330	933807.611193675886	4
7	20354	934849.577162827554	3
7	20362	934985.348007384915	2
7	20368	934986.770749576789	1
7	20378	935452.758068578091	2
7	20387	935742.157143806824	1
7	20402	935986.24808890396	2
7	20408	936161.557048186163	3
7	20431	936699.320105845429	4
7	20442	937264.306333948613	3
7	20446	937347.97947384695	4
7	20451	937351.892648772826	5
7	20464	937978.958027092659	4
7	20468	938237.860174603825	5
7	20482	938840.74519908391	6
7	20490	938887.200070977745	7
7	20492	938912.983330223284	6
7	20501	939268.862029038991	5
7	20513	939370.291868312513	6
7	20521	939916.810620353846	5
7	20525	940439.252305827494	6
7	20531	940544.487617733269	7
7	20538	940748.133740461427	6
7	20541	940764.590115228361	5
7	20553	941516.635017139878	4
7	20557	941530.505563304565	5
7	20562	941608.088104266663	6
7	20566	941631.557924729107	5
7	20574	941876.353142321604	4
7	20593	942435.855565276013	3
7	20610	943230.677399959601	2
7	20625	944166.403591109599	3
7	20633	944509.109688646098	2
7	20637	944679.366007785822	3
7	20644	944940.427477166156	2
7	20659	945664.72807006749	3
7	20668	945886.472035243908	4
7	20676	946075.786186125625	5
7	20678	946416.800309901501	4
7	20696	946564.761367444742	5
7	20701	946597.323050162315	6
7	20708	946932.759209751251	5
7	20715	947032.526850207408	6
7	20721	947291.972565793162	7
7	20725	947538.589549173346	6
7	20736	947757.213350567351	5
7	20739	947759.863904196696	4
7	20749	948365.635842140536	5
7	20762	948968.121297464134	4
7	20771	949829.467962524003	3
