version 2
run ParkingMeasurement-89-20170108-17:31:31-5810
attr configname ParkingMeasurement
attr datetime 20170108-17:31:31
attr experiment ParkingMeasurement
attr inifile parkingStudy.ini
attr iterationvars ""
attr iterationvars2 $repetition=89
attr measurement ""
attr network controltower.SimNetwork
attr processid 5810
attr repetition 89
attr replication #89
attr resultdir results
attr runnumber 89
attr seedset 89
param SimNetwork.a.parkingLot.parkingDelay exponential(60min)
param SimNetwork.a.runway.landingTime exponential(15min)
param SimNetwork.a.runway.takeoffTime exponential(5min)
param SimNetwork.a.runway.throughputCheckInterval 100min
param SimNetwork.wg.interArrivalTime exponential(100min)

statistic SimNetwork.wg 	responseTime:stats
field count 152
field mean 11531.427810874
field stddev 6984.7354066874
field sum 1752777.0272529
field sqrsum 27578787592.242
field min 1160.4531202641
field max 34686.455198302
attr source  responseTimeSignal
scalar SimNetwork.a.landingQueue 	queueLength:timeavg 	0.018748644150607
attr source  queueLengthSignal
statistic SimNetwork.a.landingQueue 	queueLength:stats
field count 300
field mean 0.51333333333333
field stddev 0.51384401764588
field sum 154
field sqrsum 158
field min 0
field max 2
attr source  queueLengthSignal
statistic SimNetwork.a.landingQueue 	queueTime:stats
field count 150
field mean 115.28235230277
field stddev 427.06786591868
field sum 17292.352845415
field sqrsum 29169160.465818
field min 0
field max 3274.0697762376
attr source  queueTimeSignal
scalar SimNetwork.a.takeoffQueue 	queueLength:timeavg 	0.051177467760188
attr source  queueLengthSignal
statistic SimNetwork.a.takeoffQueue 	queueLength:stats
field count 304
field mean 0.57894736842105
field stddev 0.59176210309525
field sum 176
field sqrsum 208
field min 0
field max 3
attr source  queueLengthSignal
statistic SimNetwork.a.takeoffQueue 	queueTime:stats
field count 152
field mean 310.31443747209
field stddev 790.37521077908
field sum 47167.794495758
field sqrsum 108965486.66168
field min 0
field max 5936.6605877544
attr source  queueTimeSignal
scalar SimNetwork.a.parkingLot 	parkingOccupancy:timeavg 	0.61631299718822
attr source  parkingOccupancy
statistic SimNetwork.a.parkingLot 	parkingOccupancy:stats
field count 302
field mean 1.0629139072848
field stddev 0.88884679433109
field sum 321
field sqrsum 579
field min 0
field max 4
attr source  parkingOccupancy
