version 2
run ParkingMeasurement-103-20170108-17:31:34-5838
attr configname ParkingMeasurement
attr datetime 20170108-17:31:34
attr experiment ParkingMeasurement
attr inifile parkingStudy.ini
attr iterationvars ""
attr iterationvars2 $repetition=103
attr measurement ""
attr network controltower.SimNetwork
attr processid 5838
attr repetition 103
attr replication #103
attr resultdir results
attr runnumber 103
attr seedset 103
param SimNetwork.a.parkingLot.parkingDelay exponential(60min)
param SimNetwork.a.runway.landingTime exponential(15min)
param SimNetwork.a.runway.takeoffTime exponential(5min)
param SimNetwork.a.runway.throughputCheckInterval 100min
param SimNetwork.wg.interArrivalTime exponential(100min)

statistic SimNetwork.wg 	responseTime:stats
field count 163
field mean 11071.933875321
field stddev 6617.337089292
field sum 1804725.2216772
field sqrsum 27075640642.372
field min 1787.7192847553
field max 37409.172911352
attr source  responseTimeSignal
scalar SimNetwork.a.landingQueue 	queueLength:timeavg 	0.034433905811692
attr source  queueLengthSignal
statistic SimNetwork.a.landingQueue 	queueLength:stats
field count 326
field mean 0.53680981595092
field stddev 0.53510108953956
field sum 175
field sqrsum 187
field min 0
field max 2
attr source  queueLengthSignal
statistic SimNetwork.a.landingQueue 	queueTime:stats
field count 163
field mean 194.88021767317
field stddev 510.56082637366
field sum 31765.475480726
field sqrsum 48419384.679407
field min 0
field max 3245.0656208568
attr source  queueTimeSignal
scalar SimNetwork.a.takeoffQueue 	queueLength:timeavg 	0.037342137502563
attr source  queueLengthSignal
statistic SimNetwork.a.takeoffQueue 	queueLength:stats
field count 326
field mean 0.53067484662577
field stddev 0.52971182741546
field sum 173
field sqrsum 183
field min 0
field max 2
attr source  queueLengthSignal
statistic SimNetwork.a.takeoffQueue 	queueTime:stats
field count 163
field mean 211.17267650242
field stddev 472.93446229214
field sum 34421.146269894
field sqrsum 43502860.497111
field min 0
field max 2365.4542094997
attr source  queueTimeSignal
scalar SimNetwork.a.parkingLot 	parkingOccupancy:timeavg 	0.67485662352032
attr source  parkingOccupancy
statistic SimNetwork.a.parkingLot 	parkingOccupancy:stats
field count 326
field mean 1.180981595092
field stddev 1.0172694762709
field sum 385
field sqrsum 791
field min 0
field max 6
attr source  parkingOccupancy
