file 46525 1483715062                                           
version 2
run ParkingMeasurement-17-20170106-02:04:09-11432
attr configname ParkingMeasurement
attr datetime 20170106-02:04:09
attr experiment ParkingMeasurement
attr inifile parkingStudy.ini
attr iterationvars ""
attr iterationvars2 $repetition=17
attr measurement ""
attr network SimNetwork
attr processid 11432
attr repetition 17
attr replication #17
attr resultdir results
attr runnumber 17
attr seedset 17
param SimNetwork.a.parkingLot.parkingDelay exponential(60min)
param SimNetwork.a.runway.landingTime exponential(15min)
param SimNetwork.a.runway.takeoffTime exponential(5min)
param SimNetwork.a.runway.throughputCheckInterval 100min
param SimNetwork.wg.interArrivalTime exponential(100min)
vector 7  SimNetwork.a.parkingLot  parkingOccupancy:vector  ETV
attr source parkingOccupancy
7	38237 8288 586 3033 200678.766957074904 1122153.007194854982 287 0 4 315 579
vector 4  SimNetwork.a.takeoffQueue  queueLength:vector  ETV
attr source queueLengthSignal
4	25031 8292 587 3034 200678.766957074904 1122153.007194854982 287 0 4 164 200
vector 3  SimNetwork.a.takeoffQueue  queueTime:vector  ETV
attr source queueTimeSignal
3	20426 4605 589 3013 200678.766957074904 1111303.257196608257 143 0 8603.1156583213 42382.151738341 214522303.20259
vector 0  SimNetwork.wg  responseTime:vector  ETV
attr source responseTimeSignal
0	1431 6117 592 3016 200774.751353262188 1111402.823226199969 143 2040.2456989885 39180.867980881 1758584.4478766 31087551205.339
vector 2  SimNetwork.a.landingQueue  queueLength:vector  ETV
attr source queueLengthSignal
2	12107 8319 595 3030 203251.025550040628 1121000.640200189877 288 0 2 150 156
vector 1  SimNetwork.a.landingQueue  queueTime:vector  ETV
attr source queueTimeSignal
1	7548 4559 597 3030 203251.025550040628 1121000.640200189877 144 0 5560.8075140021 27567.225897527 68300687.66325
vector 5  SimNetwork.a.runway  landedThroughput:vector  ETV
attr source landedThroughputSignal
5	33323 2457 602 3032 204000 1122000 154 0 4 144 282
vector 6  SimNetwork.a.runway  tookoffThroughput:vector  ETV
attr source tookoffThroughputSignal
6	35780 2457 602 3032 204000 1122000 154 0 5 143 307
