version 2
run ParkingMeasurement-30-20170108-17:31:16-5690
attr configname ParkingMeasurement
attr datetime 20170108-17:31:16
attr experiment ParkingMeasurement
attr inifile parkingStudy.ini
attr iterationvars ""
attr iterationvars2 $repetition=30
attr measurement ""
attr network controltower.SimNetwork
attr processid 5690
attr repetition 30
attr replication #30
attr resultdir results
attr runnumber 30
attr seedset 30
param SimNetwork.a.parkingLot.parkingDelay exponential(60min)
param SimNetwork.a.runway.landingTime exponential(15min)
param SimNetwork.a.runway.takeoffTime exponential(5min)
param SimNetwork.a.runway.throughputCheckInterval 100min
param SimNetwork.wg.interArrivalTime exponential(100min)

vector 7  SimNetwork.a.parkingLot  parkingOccupancy:vector  ETV
attr source  parkingOccupancy
vector 4  SimNetwork.a.takeoffQueue  queueLength:vector  ETV
attr source  queueLengthSignal
vector 3  SimNetwork.a.takeoffQueue  queueTime:vector  ETV
attr source  queueTimeSignal
vector 0  SimNetwork.wg  responseTime:vector  ETV
attr source  responseTimeSignal
vector 5  SimNetwork.a.runway  landedThroughput:vector  ETV
attr source  landedThroughputSignal
vector 6  SimNetwork.a.runway  tookoffThroughput:vector  ETV
attr source  tookoffThroughputSignal
vector 2  SimNetwork.a.landingQueue  queueLength:vector  ETV
attr source  queueLengthSignal
vector 1  SimNetwork.a.landingQueue  queueTime:vector  ETV
attr source  queueTimeSignal
0	400	201756.97718066612	5996.0837011268
0	428	209895.251903152136	11058.30095573
0	434	210355.904155932456	3003.0781525188
0	467	217121.967070645841	9215.9053953753
0	475	219133.580654600853	6185.7423485611
0	491	221687.084758250056	9403.1953197535
0	499	221841.169241316037	6405.9894995076
0	517	232199.92605584501	13002.254414702
0	554	242991.178150527766	12595.41886762
0	559	243067.750262043669	6986.8169650133
0	567	244272.805746560856	5834.306058345
0	585	254108.643469198358	13413.802207681
0	627	265912.516169468257	2595.5469064971
0	646	267035.199714868529	8126.8754009178
0	651	267052.849238542428	14051.113537219
0	659	267927.822656722886	2297.5710025464
0	667	268759.345106021284	6332.1709827266
0	706	288975.794691918344	5534.5726240211
0	711	289076.500174900862	5719.4313302864
0	721	300601.123063477862	34040.680108835
0	753	303664.291827613218	19402.366333539
0	761	305303.159095682546	3033.4453106341
0	786	309504.343409344912	3664.3274125377
0	794	310027.923234880062	6945.7585133248
0	802	310396.385776511037	9294.7931623698
0	836	318928.309446626137	11029.312951579
0	844	319058.578954805545	5299.8942927981
0	855	323574.929013670724	7797.5740124982
0	869	325396.77218609874	9173.6370611039
0	885	329374.681359908458	6095.4537524843
0	903	338026.723536666136	10385.666298078
0	921	350042.844544715278	15564.896673499
0	955	363427.425593530997	16665.516868475
0	963	363787.087510332793	2615.7906595139
0	980	368373.48227968428	6161.3133841219
0	997	375882.649335150826	14280.348289114
0	1008	390510.791079771205	24796.237514282
0	1025	396345.181816145791	23798.038781066
0	1043	413612.283112186372	22197.96824304
0	1084	418965.070964143371	3369.0588185621
0	1092	419249.176812093934	11379.656405755
0	1109	423024.411923777989	6189.2629101864
0	1117	424715.726329658572	6459.25464478
0	1135	435260.248135329231	17479.7524152
0	1152	441723.08322789534	21147.790655468
0	1160	443462.714375404771	9012.2429007078
0	1194	453778.291049485828	15967.638090751
0	1203	456588.946741586703	4994.8953146655
0	1211	457211.411210913051	7186.1633796819
0	1237	469007.98113252448	2969.1924094376
0	1245	473551.310417478532	21343.423333025
0	1270	476052.216358016384	8329.2258204158
0	1279	481730.194082475608	6314.0527526242
0	1295	484862.540064991493	9398.7009496123
0	1314	499949.688499905257	17322.081184558
0	1331	509258.53697528102	20676.127222703
0	1357	516864.771023802867	6378.630536828
0	1381	519100.981239288452	12418.53904536
0	1390	523514.342095487884	5837.8036157539
0	1415	528605.088166553042	15023.679769638
0	1423	532514.225158278491	13689.30644717
0	1432	534544.590172922686	9917.9823955597
0	1449	541787.684386780006	15297.321757472
0	1474	548771.337390799655	6489.0960478093
0	1483	554601.69006628171	15572.526258765
0	1500	562047.773622547459	18076.140618021
0	1525	565092.670414688668	8917.2271403027
0	1541	569957.456813601015	7783.0205783729
0	1551	576480.396524283799	12702.699531155
0	1568	582347.004147716692	13796.731579289
0	1586	595145.828163984694	15394.781297184
0	1603	601030.085195410171	11626.106950481
0	1621	613310.836066113312	14033.029678732
0	1645	616730.399703662004	2754.5126496875
0	1653	617071.726075208733	5297.0437858444
0	1670	620299.764197434479	5234.7716945926
0	1697	622207.53990577308	1730.0182017452
0	1702	622375.600314356671	4444.260037714
0	1721	639523.728493894598	18567.956742174
0	1738	642065.132730950302	9230.3550320474
0	1766	669483.240817936971	28424.821456421
0	1774	671171.45001600662	6279.9052517215
0	1849	682819.078552695699	15992.564171315
0	1854	683249.732895794821	8997.891598374
0	1859	683804.752943167955	7862.3152700233
0	1865	684043.885245765151	10918.030361467
0	1876	684674.696320465017	6513.6360211624
0	1889	685521.588603500219	8207.6741710876
0	1913	689038.162360189355	7186.5367605115
0	1924	689703.684300743783	13592.151276554
0	1930	690679.85104729661	6006.184004382
0	1949	694819.260673334376	9035.3732303
0	1957	695976.489795672295	9251.6805362087
0	1979	697697.360493688765	3976.0073629374
0	1996	702525.37823068324	5594.0178365912
0	2012	707645.327961774974	6151.8149896111
0	2029	712025.615085867731	6329.3484745204
0	2037	712856.803590323347	17760.023987854
0	2055	724484.387921943339	13544.258548032
0	2072	728624.106217105333	14691.650317259
0	2105	735844.542397590041	6647.3831278258
0	2117	740490.838426025154	9485.7413917962
0	2130	742335.659241425274	17572.819485313
0	2139	744460.673575984553	9790.7496497702
0	2155	748574.080904157497	8259.3788195178
0	2173	757881.766346958668	11250.276416709
0	2217	763382.544154485513	8433.365567268
0	2225	763904.978065173479	5638.6078242711
0	2230	764488.157505277363	6541.8471133585
0	2246	765446.591156575392	3900.5124173138
0	2254	766703.876910351222	5414.349221577
0	2280	777847.382958881507	13341.990710835
0	2288	779612.104343768221	7101.1464194749
0	2317	789821.98299543708	15587.878632601
0	2322	789866.587266033294	4902.3302090365
0	2340	803321.375881195937	15895.569027547
0	2357	808123.711906376729	7012.3280076219
0	2375	820017.7581785301	16260.131601612
0	2393	833522.963245096104	24580.572655025
0	2411	841358.063040237627	15869.368073427
0	2428	850975.330740903467	16255.544898388
0	2453	857979.091513306187	4016.8281501451
0	2465	863326.807844838031	15022.515422392
0	2487	865828.092813270328	2987.7663636649
0	2495	867002.509628590926	10398.228758812
0	2520	870562.896299236793	6918.5925586164
0	2528	870997.197702661824	2550.0688697015
0	2561	877781.469883642047	6776.5263347275
0	2569	880149.345906030712	11594.197699986
0	2577	881228.172119889279	5050.503532081
0	2612	894088.387471911591	17066.891071722
0	2620	896494.450733030697	6817.3113134325
0	2628	897236.566312121778	5795.0707771815
0	2662	906181.421071145472	7421.662524808
0	2670	909435.118076110178	16946.095816865
0	2680	921238.724858617322	22150.209433608
0	2707	936195.402975523827	34598.338040372
0	2715	936591.318189006709	2839.479149423
0	2751	943643.411561367644	4961.3585110249
0	2764	944544.224518581352	5211.4282713815
0	2772	945108.80259598441	2897.8036470964
0	2781	948105.100138498801	13919.101392581
0	2797	953134.312452805656	9832.5923482184
0	2815	963362.181877199223	14463.911511421
0	2833	972494.091807031131	16421.3215038
0	2860	995840.685783501573	5331.9708291726
0	2877	996626.608826973378	980.84356610315
0	2885	1000893.912328015039	30824.79931978
0	2905	1025598.159191217367	29546.278565788
0	2931	1035448.456398587165	21113.788261321
0	2939	1037941.394799564879	10698.393000055
0	2958	1055768.455755110634	23404.219177583
0	2976	1066760.78666256847	12000.715447209
0	2993	1073569.454173151422	9645.553610154
0	3019	1085373.538323430776	14292.310303959
0	3028	1086780.066025452699	5552.4840277976
0	3045	1094936.13407566584	11910.674081412
0	3062	1099151.411184645159	9236.4526974281
0	3097	1116360.17407425681	20566.543412503
0	3105	1118037.196911536986	4313.3385117734
0	3113	1118305.586868462106	11529.301780061
1	406	207352.826003413701	0
1	414	208891.038771734609	984.97709646409
1	439	212283.8894384966	0
1	447	212947.838306039733	0
1	455	215435.179741808462	0
1	480	219197.671641142963	0
1	506	230395.759282908035	0
1	523	236080.933297030337	0
1	531	238438.499688215836	0
1	540	240694.841261517134	0
1	574	253001.735701323726	0
1	591	258908.324313950772	0
1	599	262427.174123294636	0
1	607	263316.969262971146	0
1	616	265630.251654176442	0
1	632	266560.442954643109	0
1	675	283357.068844614473	0
1	683	283754.653771125791	313.43170322856
1	691	284594.507318263225	332.58182418924
1	726	301101.59261414125	0
1	734	302904.200964313035	634.48717926461
1	742	303109.965699956247	27.800978400956
1	766	305840.015996807189	0
1	775	307898.996495047106	0
1	808	313758.68466200745	0
1	816	315777.355001172566	0
1	824	316671.972191354782	448.83706635993
1	857	323574.929013670724	295.7014062466
1	874	327641.05723858768	0
1	891	334477.947871216356	0
1	909	346761.908725056372	0
1	928	361171.296850818922	0
1	936	361602.301046036447	0
1	947	362681.476605062699	469.30770950029
1	968	365714.553565489274	0
1	986	372547.143035080264	0
1	1013	391414.314869146688	0
1	1031	407869.520406339208	0
1	1049	415596.012145581232	0
1	1057	416835.14901359159	0
1	1065	417780.495720129616	0
1	1073	418585.751538485249	329.27985360666
1	1098	420575.292572427462	0
1	1124	434450.471474696976	0
1	1140	437810.652958734599	0
1	1167	450025.247831231129	0
1	1175	451741.804722028283	147.75329510707
1	1183	453160.138705535542	952.25162108224
1	1217	466038.788723086913	0
1	1225	467722.990537600606	0
1	1251	475416.141329851404	0
1	1259	475463.839115379207	0
1	1284	482627.607315347285	0
1	1301	488582.409752578367	0
1	1320	506682.442193928263	0
1	1337	510486.14048697488	0
1	1345	513581.408396915325	0
1	1362	517676.538479733951	0
1	1370	518824.918711108802	0
1	1395	524626.607777362994	0
1	1403	526490.362629308342	0
1	1437	539029.163807516626	0
1	1454	542282.241342990383	0
1	1462	543971.633004526274	0
1	1488	556175.44327438599	0
1	1505	562174.436235228094	0
1	1513	563777.696993128735	0
1	1530	568550.272568427669	0
1	1556	579751.046866800449	0
1	1574	589403.978244929057	0
1	1591	599277.806387381599	0
1	1609	611774.682289364343	0
1	1626	613975.887053974497	0
1	1634	615299.297083621747	234.30458077983
1	1658	617931.340276642674	0
1	1675	620477.5217040279	0
1	1683	620955.771751720638	0
1	1709	632834.777698902904	0
1	1726	641058.419361515786	0
1	1746	664891.544764285098	0
1	1755	666826.514381380398	0
1	1780	673125.85488429786	0
1	1788	674251.84129742083	0
1	1799	677199.479622991579	1257.0419498469
1	1811	678173.618630690435	2062.0856065005
1	1822	680359.639359661911	3045.7249272493
1	1836	681931.068679467776	3770.0083801652
1	1841	682022.624934179734	170.99933450183
1	1878	684674.696320465017	1.029277550399
1	1894	685783.887443034344	0
1	1902	686823.400923801396	98.591664337782
1	1935	693721.353130751392	0
1	1959	695976.489795672295	879.71019320286
1	1968	697066.148661589782	134.78826749774
1	1984	701493.512972163909	0
1	2001	705696.266611347321	0
1	2018	710940.129373911347	0
1	2042	713932.455899845979	0
1	2060	724762.839756112675	0
1	2077	729197.159269764289	0
1	2085	731005.097034228951	0
1	2094	734669.923926214373	0
1	2119	740490.838426025154	176.1363413855
1	2144	746631.489930250097	0
1	2161	754949.178587217495	0
1	2178	757946.310391918873	0
1	2186	758393.290854213337	126.92061331097
1	2194	761289.527688774262	0
1	2206	762367.285791133434	821.20705187184
1	2235	764505.39224804683	0
1	2260	772510.957924293294	0
1	2269	776185.164590640561	1951.0602278043
1	2294	784964.257056996766	0
1	2303	787425.806853648836	0
1	2329	801111.383898754782	0
1	2345	803757.626576918076	0
1	2362	808942.390590071298	0
1	2381	825488.694966810982	0
1	2399	834719.785842515684	0
1	2417	848304.292422446288	0
1	2434	853962.26336316106	0
1	2442	856604.28086977854	0
1	2467	863326.807844838031	486.48139523263
1	2476	864464.165941837293	819.86220121685
1	2500	868447.128832960356	0
1	2508	869038.309590758782	483.16138471455
1	2533	871004.943548914507	0
1	2542	876177.668587808315	0
1	2550	877021.496400189658	0
1	2584	889677.139419598218	0
1	2592	891441.495534940257	0
1	2600	892489.022259244687	0
1	2633	898759.758546337465	0
1	2641	899483.220147755315	394.70472274615
1	2650	901597.06493515157	0
1	2687	933751.839039583702	0
1	2695	934185.998745918088	0
1	2720	938682.053050342767	0
1	2728	939332.796247199829	0
1	2737	942210.998948888057	0
1	2753	943643.411561367644	341.69145678035
1	2786	948898.27036577824	0
1	2803	956072.770303231264	0
1	2821	970069.113008235444	0
1	2841	990508.71495432898	0
1	2849	995645.765260870232	0
1	2866	996051.880625429285	0
1	2893	1014334.668137266593	0
1	2911	1027243.001799510239	0
1	2920	1032364.236577527967	0
1	2947	1054760.071215359023	0
1	2965	1063923.900562997381	0
1	2982	1071081.228019471715	0
1	3000	1081227.581997655063	0
1	3008	1083025.459994253761	0
1	3033	1089914.958487217099	0
1	3050	1095793.630661753897	0
1	3068	1106776.285088401087	0
1	3077	1113723.858399763585	0
1	3085	1115658.075892096119	0
2	404	207352.826003413701	1
2	406	207352.826003413701	0
2	409	207906.061675270517	1
2	414	208891.038771734609	0
2	437	212283.8894384966	1
2	439	212283.8894384966	0
2	445	212947.838306039733	1
2	447	212947.838306039733	0
2	453	215435.179741808462	1
2	455	215435.179741808462	0
2	478	219197.671641142963	1
2	480	219197.671641142963	0
2	504	230395.759282908035	1
2	506	230395.759282908035	0
2	521	236080.933297030337	1
2	523	236080.933297030337	0
2	529	238438.499688215836	1
2	531	238438.499688215836	0
2	538	240694.841261517134	1
2	540	240694.841261517134	0
2	572	253001.735701323726	1
2	574	253001.735701323726	0
2	589	258908.324313950772	1
2	591	258908.324313950772	0
2	597	262427.174123294636	1
2	599	262427.174123294636	0
2	605	263316.969262971146	1
2	607	263316.969262971146	0
2	614	265630.251654176442	1
2	616	265630.251654176442	0
2	630	266560.442954643109	1
2	632	266560.442954643109	0
2	673	283357.068844614473	1
2	675	283357.068844614473	0
2	678	283441.222067897235	1
2	683	283754.653771125791	0
2	686	284261.925494073986	1
2	691	284594.507318263225	0
2	724	301101.59261414125	1
2	726	301101.59261414125	0
2	729	302269.71378504842	1
2	734	302904.200964313035	0
2	737	303082.164721555291	1
2	742	303109.965699956247	0
2	764	305840.015996807189	1
2	766	305840.015996807189	0
2	773	307898.996495047106	1
2	775	307898.996495047106	0
2	806	313758.68466200745	1
2	808	313758.68466200745	0
2	814	315777.355001172566	1
2	816	315777.355001172566	0
2	819	316223.135124994852	1
2	824	316671.972191354782	0
2	852	323279.227607424128	1
2	857	323574.929013670724	0
2	872	327641.05723858768	1
2	874	327641.05723858768	0
2	889	334477.947871216356	1
2	891	334477.947871216356	0
2	907	346761.908725056372	1
2	909	346761.908725056372	0
2	926	361171.296850818922	1
2	928	361171.296850818922	0
2	934	361602.301046036447	1
2	936	361602.301046036447	0
2	939	362212.168895562407	1
2	947	362681.476605062699	0
2	966	365714.553565489274	1
2	968	365714.553565489274	0
2	984	372547.143035080264	1
2	986	372547.143035080264	0
2	1011	391414.314869146688	1
2	1013	391414.314869146688	0
2	1029	407869.520406339208	1
2	1031	407869.520406339208	0
2	1047	415596.012145581232	1
2	1049	415596.012145581232	0
2	1055	416835.14901359159	1
2	1057	416835.14901359159	0
2	1063	417780.495720129616	1
2	1065	417780.495720129616	0
2	1068	418256.471684878591	1
2	1073	418585.751538485249	0
2	1096	420575.292572427462	1
2	1098	420575.292572427462	0
2	1122	434450.471474696976	1
2	1124	434450.471474696976	0
2	1138	437810.652958734599	1
2	1140	437810.652958734599	0
2	1165	450025.247831231129	1
2	1167	450025.247831231129	0
2	1170	451594.051426921211	1
2	1175	451741.804722028283	0
2	1178	452207.887084453301	1
2	1183	453160.138705535542	0
2	1215	466038.788723086913	1
2	1217	466038.788723086913	0
2	1223	467722.990537600606	1
2	1225	467722.990537600606	0
2	1249	475416.141329851404	1
2	1251	475416.141329851404	0
2	1257	475463.839115379207	1
2	1259	475463.839115379207	0
2	1282	482627.607315347285	1
2	1284	482627.607315347285	0
2	1299	488582.409752578367	1
2	1301	488582.409752578367	0
2	1318	506682.442193928263	1
2	1320	506682.442193928263	0
2	1335	510486.14048697488	1
2	1337	510486.14048697488	0
2	1343	513581.408396915325	1
2	1345	513581.408396915325	0
2	1360	517676.538479733951	1
2	1362	517676.538479733951	0
2	1368	518824.918711108802	1
2	1370	518824.918711108802	0
2	1393	524626.607777362994	1
2	1395	524626.607777362994	0
2	1401	526490.362629308342	1
2	1403	526490.362629308342	0
2	1435	539029.163807516626	1
2	1437	539029.163807516626	0
2	1452	542282.241342990383	1
2	1454	542282.241342990383	0
2	1460	543971.633004526274	1
2	1462	543971.633004526274	0
2	1486	556175.44327438599	1
2	1488	556175.44327438599	0
2	1503	562174.436235228094	1
2	1505	562174.436235228094	0
2	1511	563777.696993128735	1
2	1513	563777.696993128735	0
2	1528	568550.272568427669	1
2	1530	568550.272568427669	0
2	1554	579751.046866800449	1
2	1556	579751.046866800449	0
2	1572	589403.978244929057	1
2	1574	589403.978244929057	0
2	1589	599277.806387381599	1
2	1591	599277.806387381599	0
2	1607	611774.682289364343	1
2	1609	611774.682289364343	0
2	1624	613975.887053974497	1
2	1626	613975.887053974497	0
2	1629	615064.992502841917	1
2	1634	615299.297083621747	0
2	1656	617931.340276642674	1
2	1658	617931.340276642674	0
2	1673	620477.5217040279	1
2	1675	620477.5217040279	0
2	1681	620955.771751720638	1
2	1683	620955.771751720638	0
2	1707	632834.777698902904	1
2	1709	632834.777698902904	0
2	1724	641058.419361515786	1
2	1726	641058.419361515786	0
2	1744	664891.544764285098	1
2	1746	664891.544764285098	0
2	1753	666826.514381380398	1
2	1755	666826.514381380398	0
2	1778	673125.85488429786	1
2	1780	673125.85488429786	0
2	1786	674251.84129742083	1
2	1788	674251.84129742083	0
2	1791	675942.437673144699	1
2	1794	676111.53302418995	2
2	1799	677199.479622991579	1
2	1802	677313.914432412618	2
2	1806	678161.060299302587	3
2	1811	678173.618630690435	2
2	1822	680359.639359661911	1
2	1828	681851.6255996779	2
2	1836	681931.068679467776	1
2	1841	682022.624934179734	0
2	1873	684673.667042914618	1
2	1878	684674.696320465017	0
2	1892	685783.887443034344	1
2	1894	685783.887443034344	0
2	1897	686724.809259463614	1
2	1902	686823.400923801396	0
2	1933	693721.353130751392	1
2	1935	693721.353130751392	0
2	1954	695096.779602469433	1
2	1959	695976.489795672295	0
2	1963	696931.360394092043	1
2	1968	697066.148661589782	0
2	1982	701493.512972163909	1
2	1984	701493.512972163909	0
2	1999	705696.266611347321	1
2	2001	705696.266611347321	0
2	2016	710940.129373911347	1
2	2018	710940.129373911347	0
2	2040	713932.455899845979	1
2	2042	713932.455899845979	0
2	2058	724762.839756112675	1
2	2060	724762.839756112675	0
2	2075	729197.159269764289	1
2	2077	729197.159269764289	0
2	2083	731005.097034228951	1
2	2085	731005.097034228951	0
2	2092	734669.923926214373	1
2	2094	734669.923926214373	0
2	2114	740314.702084639653	1
2	2119	740490.838426025154	0
2	2142	746631.489930250097	1
2	2144	746631.489930250097	0
2	2159	754949.178587217495	1
2	2161	754949.178587217495	0
2	2176	757946.310391918873	1
2	2178	757946.310391918873	0
2	2181	758266.370240902366	1
2	2186	758393.290854213337	0
2	2192	761289.527688774262	1
2	2194	761289.527688774262	0
2	2197	761546.078739261598	1
2	2206	762367.285791133434	0
2	2233	764505.39224804683	1
2	2235	764505.39224804683	0
2	2258	772510.957924293294	1
2	2260	772510.957924293294	0
2	2264	774234.104362836238	1
2	2269	776185.164590640561	0
2	2292	784964.257056996766	1
2	2294	784964.257056996766	0
2	2301	787425.806853648836	1
2	2303	787425.806853648836	0
2	2327	801111.383898754782	1
2	2329	801111.383898754782	0
2	2343	803757.626576918076	1
2	2345	803757.626576918076	0
2	2360	808942.390590071298	1
2	2362	808942.390590071298	0
2	2379	825488.694966810982	1
2	2381	825488.694966810982	0
2	2397	834719.785842515684	1
2	2399	834719.785842515684	0
2	2415	848304.292422446288	1
2	2417	848304.292422446288	0
2	2432	853962.26336316106	1
2	2434	853962.26336316106	0
2	2440	856604.28086977854	1
2	2442	856604.28086977854	0
2	2462	862840.3264496054	1
2	2467	863326.807844838031	0
2	2470	863644.303740620438	1
2	2476	864464.165941837293	0
2	2498	868447.128832960356	1
2	2500	868447.128832960356	0
2	2503	868555.14820604423	1
2	2508	869038.309590758782	0
2	2531	871004.943548914507	1
2	2533	871004.943548914507	0
2	2540	876177.668587808315	1
2	2542	876177.668587808315	0
2	2548	877021.496400189658	1
2	2550	877021.496400189658	0
2	2582	889677.139419598218	1
2	2584	889677.139419598218	0
2	2590	891441.495534940257	1
2	2592	891441.495534940257	0
2	2598	892489.022259244687	1
2	2600	892489.022259244687	0
2	2631	898759.758546337465	1
2	2633	898759.758546337465	0
2	2636	899088.515425009165	1
2	2641	899483.220147755315	0
2	2648	901597.06493515157	1
2	2650	901597.06493515157	0
2	2685	933751.839039583702	1
2	2687	933751.839039583702	0
2	2693	934185.998745918088	1
2	2695	934185.998745918088	0
2	2718	938682.053050342767	1
2	2720	938682.053050342767	0
2	2726	939332.796247199829	1
2	2728	939332.796247199829	0
2	2735	942210.998948888057	1
2	2737	942210.998948888057	0
2	2748	943301.720104587298	1
2	2753	943643.411561367644	0
2	2784	948898.27036577824	1
2	2786	948898.27036577824	0
2	2801	956072.770303231264	1
2	2803	956072.770303231264	0
2	2819	970069.113008235444	1
2	2821	970069.113008235444	0
2	2839	990508.71495432898	1
2	2841	990508.71495432898	0
2	2847	995645.765260870232	1
2	2849	995645.765260870232	0
2	2864	996051.880625429285	1
2	2866	996051.880625429285	0
2	2891	1014334.668137266593	1
2	2893	1014334.668137266593	0
2	2909	1027243.001799510239	1
2	2911	1027243.001799510239	0
2	2918	1032364.236577527967	1
2	2920	1032364.236577527967	0
2	2945	1054760.071215359023	1
2	2947	1054760.071215359023	0
2	2963	1063923.900562997381	1
2	2965	1063923.900562997381	0
2	2980	1071081.228019471715	1
2	2982	1071081.228019471715	0
2	2998	1081227.581997655063	1
2	3000	1081227.581997655063	0
2	3006	1083025.459994253761	1
2	3008	1083025.459994253761	0
2	3031	1089914.958487217099	1
2	3033	1089914.958487217099	0
2	3048	1095793.630661753897	1
2	3050	1095793.630661753897	0
2	3066	1106776.285088401087	1
2	3068	1106776.285088401087	0
2	3075	1113723.858399763585	1
2	3077	1113723.858399763585	0
2	3083	1115658.075892096119	1
2	3085	1115658.075892096119	0
3	397	201009.005701072607	0
3	422	209774.981521967242	242.61229495331
3	430	209895.251903152136	32.245755280724
3	464	216917.861274852348	601.57463602379
3	472	218913.942934496511	0
3	488	220190.51921693305	907.43813588185
3	496	221826.465451672823	0
3	514	232012.91405925552	0
3	548	242645.107702231033	0
3	556	242991.178150527766	118.14201119483
3	564	244155.322073916719	0
3	582	253808.211419447636	0
3	624	265838.819686708502	0
3	640	266756.48271362931	0
3	648	267035.199714868529	235.41275503528
3	656	267648.360556678466	0
3	664	268612.181199930654	0
3	699	287482.788220487266	0
3	708	288975.794691918344	1231.3033799817
3	717	299222.126065185133	0
3	750	303539.244553573468	0
3	758	305293.718169459101	0
3	783	308683.481142338812	0
3	791	309849.859761409898	0
3	799	310388.530370196393	0
3	833	318863.789379054766	0
3	841	319020.722246293441	0
3	849	322844.500079611711	0
3	866	325282.989735048871	0
3	882	329216.411585979399	0
3	900	337977.400394794798	0
3	918	350038.171520976424	0
3	952	362901.255756398922	677.56543406868
3	960	363785.242910291032	0
3	977	367804.700148726066	0
3	994	375652.776508911809	2757.3252475572
3	1005	390405.166443752143	0
3	1022	396288.960642000271	0
3	1040	412912.226550392295	0
3	1081	418917.960006458866	19.962894504705
3	1089	419121.437809535515	0
3	1106	422658.00317026398	0
3	1114	424706.456999422183	0
3	1132	435189.997227293959	146.59177696932
3	1149	441365.118604681497	0
3	1157	443393.330037039378	0
3	1191	453473.351391889785	77.722352282864
3	1200	456059.085755565908	0
3	1208	456744.05770740333	0
3	1234	468973.267150987806	0
3	1242	473535.786370598197	0
3	1267	476017.090124775436	0
3	1276	481140.884023417728	0
3	1292	484849.058321314625	0
3	1311	499381.594361993322	0
3	1328	509105.193219233822	0
3	1354	516832.152184033287	0
3	1378	519004.172217803299	51.977970506571
3	1387	523500.479181967629	0
3	1412	528138.015254098588	666.72361891905
3	1420	532162.318960694505	0
3	1429	534187.694135242684	0
3	1446	541556.150093099113	0
3	1471	548052.38780661256	0
3	1480	554535.829987986342	0
3	1497	561982.624610105292	0
3	1522	564832.086574171766	0
3	1538	569518.459438971723	823.43935512329
3	1548	576423.022204398549	0
3	1564	581885.081928437351	0
3	1583	595048.073578250253	0
3	1600	600913.824703392078	0
3	1618	612227.516939576544	0
3	1642	616603.083313469998	0
3	1650	616780.477069509526	0
3	1667	620158.528153068814	0
3	1691	621464.80340462251	0
3	1699	622207.53990577308	455.4737667269
3	1718	639169.942476837574	0
3	1734	641755.325454252752	0
3	1763	669193.400687878529	0
3	1771	670165.063029720742	0
3	1846	682560.462134880375	4381.2769268141
3	1851	682819.078552695699	3186.100329924
3	1856	683249.732895794821	2648.1383162433
3	1861	683804.752943167955	1898.9177247003
3	1870	684538.184562109829	0
3	1886	685378.40716374777	0
3	1910	688869.458170949266	0
3	1918	689274.174083142918	0
3	1926	689703.684300743783	345.42757978074
3	1943	694315.857663048409	553.03530936467
3	1951	694819.260673334376	221.65464637326
3	1976	697496.756106842853	0
3	1993	702236.440680487509	0
3	2009	707643.446369193324	0
3	2026	711140.262816221199	0
3	2034	712349.275128300708	0
3	2052	724099.152993310277	0
3	2069	728438.30224549618	0
3	2102	735780.092936224898	0
3	2111	739888.179101028912	0
3	2127	742236.010142443004	358.05922065888
3	2136	744321.979831170258	0
3	2152	748506.824636494373	0
3	2170	757748.485169346894	0
3	2214	762899.549018568587	1126.1194269158
3	2219	763382.544154485513	554.0659142596
3	2227	763904.978065173479	233.52092901269
3	2243	765364.659002802767	0
3	2251	766611.267157424615	0
3	2277	777636.310127919406	0
3	2285	779584.226883620785	0
3	2311	788042.51589384083	26.802216480673
3	2319	789821.98299543708	1632.1207839166
3	2337	803042.433128065484	0
3	2354	807941.929054584579	0
3	2372	820003.793682392537	0
3	2390	833436.859891007851	0
3	2408	841004.154894550483	0
3	2425	850912.582258467381	0
3	2450	857867.267102239917	0
3	2459	862617.065423381705	0
3	2484	865453.332761743	0
3	2492	866996.676754532871	0
3	2517	870406.720179701012	0
3	2525	870789.487928221632	0
3	2558	877725.61827217514	612.7088314868
3	2566	880008.303885631602	0
3	2574	881137.674173900914	0
3	2609	894087.293340615544	0
3	2617	896124.153274203569	0
3	2625	897168.197332182742	0
3	2658	905731.263545823453	0
3	2667	909283.519607594723	0
3	2677	920198.612643498452	0
3	2703	935704.916869627454	192.44589714252
3	2712	936266.270924090929	0
3	2745	943107.514917990365	0
3	2761	944414.25513219291	0
3	2769	945045.046390263453	0
3	2777	946049.647815757909	0
3	2794	952665.418561213715	0
3	2812	963264.788749544226	0
3	2830	972124.722040866618	0
3	2857	995820.409465240763	0
3	2874	996536.800205975011	0
3	2882	1000821.79428928938	0
3	2902	1025349.980449099249	0
3	2928	1035160.778170846199	0
3	2936	1037303.441361073902	0
3	2955	1055389.063902505691	0
3	2973	1066029.74432131092	0
3	2990	1073440.980604969227	0
3	3016	1085221.211806014724	0
3	3025	1086276.606269858802	0
3	3042	1093873.94543321767	0
3	3059	1099125.552340067745	0
3	3094	1116290.58952055655	0
3	3102	1117308.021963268674	0
3	3110	1118218.942404693884	0
4	395	201009.005701072607	1
4	397	201009.005701072607	0
4	417	209532.369227013933	1
4	422	209774.981521967242	0
4	425	209863.006147871412	1
4	430	209895.251903152136	0
4	459	216316.286638828557	1
4	464	216917.861274852348	0
4	470	218913.942934496511	1
4	472	218913.942934496511	0
4	483	219283.081081051197	1
4	488	220190.51921693305	0
4	494	221826.465451672823	1
4	496	221826.465451672823	0
4	512	232012.91405925552	1
4	514	232012.91405925552	0
4	546	242645.107702231033	1
4	548	242645.107702231033	0
4	551	242873.036139332938	1
4	556	242991.178150527766	0
4	562	244155.322073916719	1
4	564	244155.322073916719	0
4	580	253808.211419447636	1
4	582	253808.211419447636	0
4	622	265838.819686708502	1
4	624	265838.819686708502	0
4	638	266756.48271362931	1
4	640	266756.48271362931	0
4	643	266799.786959833246	1
4	648	267035.199714868529	0
4	654	267648.360556678466	1
4	656	267648.360556678466	0
4	662	268612.181199930654	1
4	664	268612.181199930654	0
4	697	287482.788220487266	1
4	699	287482.788220487266	0
4	702	287744.491311936681	1
4	708	288975.794691918344	0
4	715	299222.126065185133	1
4	717	299222.126065185133	0
4	748	303539.244553573468	1
4	750	303539.244553573468	0
4	756	305293.718169459101	1
4	758	305293.718169459101	0
4	781	308683.481142338812	1
4	783	308683.481142338812	0
4	789	309849.859761409898	1
4	791	309849.859761409898	0
4	797	310388.530370196393	1
4	799	310388.530370196393	0
4	831	318863.789379054766	1
4	833	318863.789379054766	0
4	839	319020.722246293441	1
4	841	319020.722246293441	0
4	847	322844.500079611711	1
4	849	322844.500079611711	0
4	864	325282.989735048871	1
4	866	325282.989735048871	0
4	880	329216.411585979399	1
4	882	329216.411585979399	0
4	898	337977.400394794798	1
4	900	337977.400394794798	0
4	916	350038.171520976424	1
4	918	350038.171520976424	0
4	942	362223.690322330243	1
4	952	362901.255756398922	0
4	958	363785.242910291032	1
4	960	363785.242910291032	0
4	975	367804.700148726066	1
4	977	367804.700148726066	0
4	989	372895.45126135459	1
4	994	375652.776508911809	0
4	1003	390405.166443752143	1
4	1005	390405.166443752143	0
4	1020	396288.960642000271	1
4	1022	396288.960642000271	0
4	1038	412912.226550392295	1
4	1040	412912.226550392295	0
4	1076	418897.997111954161	1
4	1081	418917.960006458866	0
4	1087	419121.437809535515	1
4	1089	419121.437809535515	0
4	1104	422658.00317026398	1
4	1106	422658.00317026398	0
4	1112	424706.456999422183	1
4	1114	424706.456999422183	0
4	1127	435043.405450324642	1
4	1132	435189.997227293959	0
4	1147	441365.118604681497	1
4	1149	441365.118604681497	0
4	1155	443393.330037039378	1
4	1157	443393.330037039378	0
4	1186	453395.629039606921	1
4	1191	453473.351391889785	0
4	1198	456059.085755565908	1
4	1200	456059.085755565908	0
4	1206	456744.05770740333	1
4	1208	456744.05770740333	0
4	1232	468973.267150987806	1
4	1234	468973.267150987806	0
4	1240	473535.786370598197	1
4	1242	473535.786370598197	0
4	1265	476017.090124775436	1
4	1267	476017.090124775436	0
4	1274	481140.884023417728	1
4	1276	481140.884023417728	0
4	1290	484849.058321314625	1
4	1292	484849.058321314625	0
4	1309	499381.594361993322	1
4	1311	499381.594361993322	0
4	1326	509105.193219233822	1
4	1328	509105.193219233822	0
4	1352	516832.152184033287	1
4	1354	516832.152184033287	0
4	1373	518952.194247296728	1
4	1378	519004.172217803299	0
4	1385	523500.479181967629	1
4	1387	523500.479181967629	0
4	1406	527471.291635179541	1
4	1412	528138.015254098588	0
4	1418	532162.318960694505	1
4	1420	532162.318960694505	0
4	1427	534187.694135242684	1
4	1429	534187.694135242684	0
4	1444	541556.150093099113	1
4	1446	541556.150093099113	0
4	1469	548052.38780661256	1
4	1471	548052.38780661256	0
4	1478	554535.829987986342	1
4	1480	554535.829987986342	0
4	1495	561982.624610105292	1
4	1497	561982.624610105292	0
4	1520	564832.086574171766	1
4	1522	564832.086574171766	0
4	1533	568695.02008384843	1
4	1538	569518.459438971723	0
4	1546	576423.022204398549	1
4	1548	576423.022204398549	0
4	1562	581885.081928437351	1
4	1564	581885.081928437351	0
4	1581	595048.073578250253	1
4	1583	595048.073578250253	0
4	1598	600913.824703392078	1
4	1600	600913.824703392078	0
4	1616	612227.516939576544	1
4	1618	612227.516939576544	0
4	1640	616603.083313469998	1
4	1642	616603.083313469998	0
4	1648	616780.477069509526	1
4	1650	616780.477069509526	0
4	1665	620158.528153068814	1
4	1667	620158.528153068814	0
4	1689	621464.80340462251	1
4	1691	621464.80340462251	0
4	1694	621752.066139046179	1
4	1699	622207.53990577308	0
4	1716	639169.942476837574	1
4	1718	639169.942476837574	0
4	1732	641755.325454252752	1
4	1734	641755.325454252752	0
4	1761	669193.400687878529	1
4	1763	669193.400687878529	0
4	1769	670165.063029720742	1
4	1771	670165.063029720742	0
4	1814	678179.185208066253	1
4	1817	679632.978222771653	2
4	1825	680601.594579551528	3
4	1831	681905.835218467699	4
4	1846	682560.462134880375	3
4	1851	682819.078552695699	2
4	1856	683249.732895794821	1
4	1861	683804.752943167955	0
4	1868	684538.184562109829	1
4	1870	684538.184562109829	0
4	1884	685378.40716374777	1
4	1886	685378.40716374777	0
4	1908	688869.458170949266	1
4	1910	688869.458170949266	0
4	1916	689274.174083142918	1
4	1918	689274.174083142918	0
4	1921	689358.256720963041	1
4	1926	689703.684300743783	0
4	1938	693762.822353683737	1
4	1943	694315.857663048409	0
4	1946	694597.606026961118	1
4	1951	694819.260673334376	0
4	1974	697496.756106842853	1
4	1976	697496.756106842853	0
4	1991	702236.440680487509	1
4	1993	702236.440680487509	0
4	2007	707643.446369193324	1
4	2009	707643.446369193324	0
4	2024	711140.262816221199	1
4	2026	711140.262816221199	0
4	2032	712349.275128300708	1
4	2034	712349.275128300708	0
4	2050	724099.152993310277	1
4	2052	724099.152993310277	0
4	2067	728438.30224549618	1
4	2069	728438.30224549618	0
4	2100	735780.092936224898	1
4	2102	735780.092936224898	0
4	2109	739888.179101028912	1
4	2111	739888.179101028912	0
4	2122	741877.950921784123	1
4	2127	742236.010142443004	0
4	2134	744321.979831170258	1
4	2136	744321.979831170258	0
4	2150	748506.824636494373	1
4	2152	748506.824636494373	0
4	2168	757748.485169346894	1
4	2170	757748.485169346894	0
4	2200	761773.429591652774	1
4	2209	762828.478240225913	2
4	2214	762899.549018568587	1
4	2219	763382.544154485513	0
4	2222	763671.45713616079	1
4	2227	763904.978065173479	0
4	2241	765364.659002802767	1
4	2243	765364.659002802767	0
4	2249	766611.267157424615	1
4	2251	766611.267157424615	0
4	2275	777636.310127919406	1
4	2277	777636.310127919406	0
4	2283	779584.226883620785	1
4	2285	779584.226883620785	0
4	2306	788015.713677360157	1
4	2311	788042.51589384083	0
4	2314	788189.862211520472	1
4	2319	789821.98299543708	0
4	2335	803042.433128065484	1
4	2337	803042.433128065484	0
4	2352	807941.929054584579	1
4	2354	807941.929054584579	0
4	2370	820003.793682392537	1
4	2372	820003.793682392537	0
4	2388	833436.859891007851	1
4	2390	833436.859891007851	0
4	2406	841004.154894550483	1
4	2408	841004.154894550483	0
4	2423	850912.582258467381	1
4	2425	850912.582258467381	0
4	2448	857867.267102239917	1
4	2450	857867.267102239917	0
4	2457	862617.065423381705	1
4	2459	862617.065423381705	0
4	2482	865453.332761743	1
4	2484	865453.332761743	0
4	2490	866996.676754532871	1
4	2492	866996.676754532871	0
4	2515	870406.720179701012	1
4	2517	870406.720179701012	0
4	2523	870789.487928221632	1
4	2525	870789.487928221632	0
4	2553	877112.909440688338	1
4	2558	877725.61827217514	0
4	2564	880008.303885631602	1
4	2566	880008.303885631602	0
4	2572	881137.674173900914	1
4	2574	881137.674173900914	0
4	2607	894087.293340615544	1
4	2609	894087.293340615544	0
4	2615	896124.153274203569	1
4	2617	896124.153274203569	0
4	2623	897168.197332182742	1
4	2625	897168.197332182742	0
4	2656	905731.263545823453	1
4	2658	905731.263545823453	0
4	2665	909283.519607594723	1
4	2667	909283.519607594723	0
4	2675	920198.612643498452	1
4	2677	920198.612643498452	0
4	2698	935512.47097248493	1
4	2703	935704.916869627454	0
4	2710	936266.270924090929	1
4	2712	936266.270924090929	0
4	2743	943107.514917990365	1
4	2745	943107.514917990365	0
4	2759	944414.25513219291	1
4	2761	944414.25513219291	0
4	2767	945045.046390263453	1
4	2769	945045.046390263453	0
4	2775	946049.647815757909	1
4	2777	946049.647815757909	0
4	2792	952665.418561213715	1
4	2794	952665.418561213715	0
4	2810	963264.788749544226	1
4	2812	963264.788749544226	0
4	2828	972124.722040866618	1
4	2830	972124.722040866618	0
4	2855	995820.409465240763	1
4	2857	995820.409465240763	0
4	2872	996536.800205975011	1
4	2874	996536.800205975011	0
4	2880	1000821.79428928938	1
4	2882	1000821.79428928938	0
4	2900	1025349.980449099249	1
4	2902	1025349.980449099249	0
4	2926	1035160.778170846199	1
4	2928	1035160.778170846199	0
4	2934	1037303.441361073902	1
4	2936	1037303.441361073902	0
4	2953	1055389.063902505691	1
4	2955	1055389.063902505691	0
4	2971	1066029.74432131092	1
4	2973	1066029.74432131092	0
4	2988	1073440.980604969227	1
4	2990	1073440.980604969227	0
4	3014	1085221.211806014724	1
4	3016	1085221.211806014724	0
4	3023	1086276.606269858802	1
4	3025	1086276.606269858802	0
4	3040	1093873.94543321767	1
4	3042	1093873.94543321767	0
4	3057	1099125.552340067745	1
4	3059	1099125.552340067745	0
4	3092	1116290.58952055655	1
4	3094	1116290.58952055655	0
4	3100	1117308.021963268674	1
4	3102	1117308.021963268674	0
4	3108	1118218.942404693884	1
4	3110	1118218.942404693884	0
5	402	204000	1
5	432	210000	2
5	457	216000	2
5	501	222000	2
5	502	228000	0
5	519	234000	1
5	533	240000	1
5	569	246000	2
5	570	252000	0
5	587	258000	1
5	612	264000	3
5	669	270000	2
5	670	276000	0
5	671	282000	0
5	704	288000	3
5	713	294000	0
5	719	300000	0
5	768	306000	3
5	804	312000	2
5	829	318000	3
5	862	324000	1
5	887	330000	1
5	896	336000	1
5	905	342000	0
5	914	348000	1
5	923	354000	0
5	924	360000	0
5	970	366000	3
5	982	372000	1
5	999	378000	1
5	1000	384000	0
5	1001	390000	0
5	1018	396000	1
5	1027	402000	0
5	1036	408000	1
5	1045	414000	0
5	1094	420000	4
5	1119	426000	1
5	1120	432000	0
5	1145	438000	2
5	1162	444000	0
5	1163	450000	0
5	1196	456000	3
5	1213	462000	0
5	1230	468000	2
5	1247	474000	0
5	1272	480000	2
5	1297	486000	1
5	1306	492000	1
5	1307	498000	0
5	1316	504000	0
5	1333	510000	1
5	1350	516000	2
5	1383	522000	2
5	1408	528000	1
5	1425	534000	1
5	1439	540000	0
5	1467	546000	3
5	1476	552000	0
5	1493	558000	1
5	1515	564000	1
5	1543	570000	2
5	1544	576000	0
5	1566	582000	1
5	1570	588000	0
5	1579	594000	1
5	1596	600000	1
5	1605	606000	0
5	1614	612000	1
5	1660	618000	2
5	1704	624000	3
5	1705	630000	0
5	1711	636000	0
5	1736	642000	2
5	1740	648000	0
5	1741	654000	0
5	1742	660000	0
5	1751	666000	1
5	1776	672000	1
5	1804	678000	2
5	1863	684000	5
5	1928	690000	3
5	1961	696000	1
5	1986	702000	2
5	2014	708000	2
5	2044	714000	1
5	2048	720000	1
5	2065	726000	1
5	2087	732000	1
5	2107	738000	2
5	2132	744000	1
5	2157	750000	1
5	2163	756000	0
5	2202	762000	3
5	2256	768000	3
5	2262	774000	0
5	2290	780000	2
5	2299	786000	1
5	2324	792000	1
5	2325	798000	0
5	2350	804000	2
5	2364	810000	0
5	2368	816000	1
5	2377	822000	0
5	2386	828000	1
5	2395	834000	0
5	2404	840000	1
5	2413	846000	0
5	2430	852000	1
5	2455	858000	2
5	2472	864000	0
5	2510	870000	3
5	2538	876000	2
5	2579	882000	2
5	2580	888000	0
5	2605	894000	3
5	2643	900000	1
5	2660	906000	2
5	2672	912000	0
5	2673	918000	0
5	2682	924000	0
5	2683	930000	0
5	2705	936000	2
5	2733	942000	2
5	2779	948000	2
5	2799	954000	1
5	2808	960000	1
5	2817	966000	0
5	2826	972000	1
5	2835	978000	0
5	2836	984000	0
5	2837	990000	0
5	2862	996000	2
5	2887	1002000	1
5	2888	1008000	0
5	2889	1014000	0
5	2898	1020000	1
5	2907	1026000	0
5	2916	1032000	1
5	2941	1038000	1
5	2942	1044000	0
5	2943	1050000	0
5	2960	1056000	1
5	2961	1062000	0
5	2978	1068000	1
5	2995	1074000	1
5	2996	1080000	0
5	3021	1086000	2
5	3038	1092000	1
5	3055	1098000	1
5	3064	1104000	0
5	3073	1110000	1
5	3087	1116000	1
5	3115	1122000	1
6	402	204000	2
6	432	210000	1
6	457	216000	1
6	501	222000	4
6	502	228000	0
6	519	234000	1
6	533	240000	0
6	569	246000	3
6	570	252000	0
6	587	258000	1
6	612	264000	0
6	669	270000	5
6	670	276000	0
6	671	282000	0
6	704	288000	0
6	713	294000	2
6	719	300000	0
6	768	306000	3
6	804	312000	3
6	829	318000	0
6	862	324000	3
6	887	330000	2
6	896	336000	0
6	905	342000	1
6	914	348000	0
6	923	354000	1
6	924	360000	0
6	970	366000	2
6	982	372000	1
6	999	378000	1
6	1000	384000	0
6	1001	390000	0
6	1018	396000	1
6	1027	402000	1
6	1036	408000	0
6	1045	414000	1
6	1094	420000	2
6	1119	426000	2
6	1120	432000	0
6	1145	438000	1
6	1162	444000	2
6	1163	450000	0
6	1196	456000	1
6	1213	462000	2
6	1230	468000	0
6	1247	474000	2
6	1272	480000	1
6	1297	486000	2
6	1306	492000	0
6	1307	498000	0
6	1316	504000	1
6	1333	510000	1
6	1350	516000	0
6	1383	522000	2
6	1408	528000	1
6	1425	534000	2
6	1439	540000	1
6	1467	546000	1
6	1476	552000	1
6	1493	558000	1
6	1515	564000	1
6	1543	570000	2
6	1544	576000	0
6	1566	582000	1
6	1570	588000	1
6	1579	594000	0
6	1596	600000	1
6	1605	606000	1
6	1614	612000	0
6	1660	618000	3
6	1704	624000	3
6	1705	630000	0
6	1711	636000	0
6	1736	642000	1
6	1740	648000	1
6	1741	654000	0
6	1742	660000	0
6	1751	666000	0
6	1776	672000	2
6	1804	678000	0
6	1863	684000	3
6	1928	690000	5
6	1961	696000	3
6	1986	702000	1
6	2014	708000	2
6	2044	714000	2
6	2048	720000	0
6	2065	726000	1
6	2087	732000	1
6	2107	738000	1
6	2132	744000	2
6	2157	750000	2
6	2163	756000	0
6	2202	762000	1
6	2256	768000	5
6	2262	774000	0
6	2290	780000	2
6	2299	786000	0
6	2324	792000	2
6	2325	798000	0
6	2350	804000	1
6	2364	810000	1
6	2368	816000	0
6	2377	822000	1
6	2386	828000	0
6	2395	834000	1
6	2404	840000	0
6	2413	846000	1
6	2430	852000	1
6	2455	858000	1
6	2472	864000	1
6	2510	870000	2
6	2538	876000	2
6	2579	882000	3
6	2580	888000	0
6	2605	894000	0
6	2643	900000	3
6	2660	906000	0
6	2672	912000	2
6	2673	918000	0
6	2682	924000	1
6	2683	930000	0
6	2705	936000	0
6	2733	942000	2
6	2779	948000	3
6	2799	954000	2
6	2808	960000	0
6	2817	966000	1
6	2826	972000	0
6	2835	978000	1
6	2836	984000	0
6	2837	990000	0
6	2862	996000	1
6	2887	1002000	2
6	2888	1008000	0
6	2889	1014000	0
6	2898	1020000	0
6	2907	1026000	1
6	2916	1032000	0
6	2941	1038000	2
6	2942	1044000	0
6	2943	1050000	0
6	2960	1056000	1
6	2961	1062000	0
6	2978	1068000	1
6	2995	1074000	1
6	2996	1080000	0
6	3021	1086000	1
6	3038	1092000	1
6	3055	1098000	1
6	3064	1104000	1
6	3073	1110000	0
6	3087	1116000	0
6	3115	1122000	3
7	394	201009.005701072607	0
7	412	208891.038771734609	1
7	416	209532.369227013933	0
7	420	209774.981521967242	1
7	424	209863.006147871412	0
7	442	212560.811122147454	1
7	450	213220.689743267813	2
7	458	216316.286638828557	1
7	462	216917.861274852348	2
7	469	218913.942934496511	1
7	482	219283.081081051197	0
7	486	220190.51921693305	1
7	493	221826.465451672823	0
7	509	230671.810219634695	1
7	511	232012.91405925552	0
7	526	237144.791567297995	1
7	535	240637.814263311255	2
7	543	242236.599462256695	3
7	545	242645.107702231033	2
7	550	242873.036139332938	1
7	561	244155.322073916719	0
7	577	253775.680589566216	1
7	579	253808.211419447636	0
7	594	259725.059719651676	1
7	602	263292.068247752423	2
7	610	263929.11260235879	3
7	619	265726.114923449922	4
7	621	265838.819686708502	3
7	635	266579.73352677946	4
7	637	266756.48271362931	3
7	642	266799.786959833246	2
7	653	267648.360556678466	1
7	661	268612.181199930654	0
7	681	283754.653771125791	1
7	689	284594.507318263225	2
7	694	285381.224477898401	3
7	696	287482.788220487266	2
7	701	287744.491311936681	1
7	714	299222.126065185133	0
7	732	302904.200964313035	1
7	740	303109.965699956247	2
7	745	303439.663537010151	3
7	747	303539.244553573468	2
7	755	305293.718169459101	1
7	770	306193.211465096446	2
7	778	307945.780259058524	3
7	780	308683.481142338812	2
7	788	309849.859761409898	1
7	796	310388.530370196393	0
7	811	314441.349073863781	1
7	822	316671.972191354782	2
7	827	316784.048460816191	3
7	830	318863.789379054766	2
7	838	319020.722246293441	1
7	846	322844.500079611711	0
7	860	323909.816042435865	1
7	863	325282.989735048871	0
7	877	329121.756256945699	1
7	879	329216.411585979399	0
7	894	335123.539306823609	1
7	897	337977.400394794798	0
7	912	346891.756156950701	1
7	915	350038.171520976424	0
7	931	361600.097817262022	1
7	941	362223.690322330243	0
7	945	362681.476605062699	1
7	950	362901.255756398922	2
7	957	363785.242910291032	1
7	972	366674.551886438326	2
7	974	367804.700148726066	1
7	988	372895.45126135459	0
7	992	375652.776508911809	1
7	1002	390405.166443752143	0
7	1016	392283.925001346987	1
7	1019	396288.960642000271	0
7	1034	407965.987943522307	1
7	1037	412912.226550392295	0
7	1052	415641.285242108784	1
7	1060	417063.375299032466	2
7	1071	418585.751538485249	3
7	1075	418897.997111954161	2
7	1079	418917.960006458866	3
7	1086	419121.437809535515	2
7	1101	420878.976735394694	3
7	1103	422658.00317026398	2
7	1111	424706.456999422183	1
7	1126	435043.405450324642	0
7	1130	435189.997227293959	1
7	1143	437936.773791880524	2
7	1146	441365.118604681497	1
7	1154	443393.330037039378	0
7	1173	451741.804722028283	1
7	1181	453160.138705535542	2
7	1185	453395.629039606921	1
7	1189	453473.351391889785	2
7	1197	456059.085755565908	1
7	1205	456744.05770740333	0
7	1220	466273.000580893171	1
7	1228	467811.635849837377	2
7	1231	468973.267150987806	1
7	1239	473535.786370598197	0
7	1254	475444.544909540318	1
7	1262	475813.43192623822	2
7	1264	476017.090124775436	1
7	1273	481140.884023417728	0
7	1287	482880.227938319729	1
7	1289	484849.058321314625	0
7	1304	491296.26029455372	1
7	1308	499381.594361993322	0
7	1323	508041.861338048928	1
7	1325	509105.193219233822	0
7	1340	510749.5193674704	1
7	1348	513961.757309503524	2
7	1351	516832.152184033287	1
7	1365	517922.149251198157	2
7	1372	518952.194247296728	1
7	1376	519004.172217803299	2
7	1384	523500.479181967629	1
7	1398	524678.450158382705	2
7	1405	527471.291635179541	1
7	1410	528138.015254098588	2
7	1417	532162.318960694505	1
7	1426	534187.694135242684	0
7	1441	540843.344715921632	1
7	1443	541556.150093099113	0
7	1457	542609.067750268964	1
7	1465	544009.423539056098	2
7	1468	548052.38780661256	1
7	1477	554535.829987986342	0
7	1491	557580.075522949233	1
7	1494	561982.624610105292	0
7	1508	562895.25690837215	1
7	1517	564202.840341387147	2
7	1519	564832.086574171766	1
7	1532	568695.02008384843	0
7	1536	569518.459438971723	1
7	1545	576423.022204398549	0
7	1559	580060.028859139883	1
7	1561	581885.081928437351	0
7	1577	591145.111305068171	1
7	1580	595048.073578250253	0
7	1594	599611.226751290866	1
7	1597	600913.824703392078	0
7	1612	611830.727235599469	1
7	1615	612227.516939576544	0
7	1632	615299.297083621747	1
7	1637	616517.505670333693	2
7	1639	616603.083313469998	1
7	1647	616780.477069509526	0
7	1662	618872.321914073254	1
7	1664	620158.528153068814	0
7	1678	620510.773572598711	1
7	1686	621288.829329810047	2
7	1688	621464.80340462251	1
7	1693	621752.066139046179	0
7	1713	638195.600643511414	1
7	1715	639169.942476837574	0
7	1729	641724.16611006035	1
7	1731	641755.325454252752	0
7	1749	665024.205922733425	1
7	1758	667345.785725582083	2
7	1760	669193.400687878529	1
7	1768	670165.063029720742	0
7	1783	673648.558483104825	1
7	1797	677199.479622991579	2
7	1809	678173.618630690435	3
7	1813	678179.185208066253	2
7	1816	679632.978222771653	1
7	1820	680359.639359661911	2
7	1824	680601.594579551528	1
7	1830	681905.835218467699	0
7	1834	681931.068679467776	1
7	1839	682022.624934179734	2
7	1844	682560.462134880375	3
7	1867	684538.184562109829	2
7	1881	684982.286834791704	3
7	1883	685378.40716374777	2
7	1900	686823.400923801396	3
7	1905	686902.059200973451	4
7	1907	688869.458170949266	3
7	1915	689274.174083142918	2
7	1920	689358.256720963041	1
7	1937	693762.822353683737	0
7	1941	694315.857663048409	1
7	1945	694597.606026961118	0
7	1966	697066.148661589782	1
7	1971	697360.4395507099	2
7	1973	697496.756106842853	1
7	1988	702042.009161599372	2
7	1990	702236.440680487509	1
7	2004	705714.610048988461	2
7	2006	707643.446369193324	1
7	2021	711077.537714700461	2
7	2023	711140.262816221199	1
7	2031	712349.275128300708	0
7	2046	716422.518162144499	1
7	2049	724099.152993310277	0
7	2063	724880.330289155036	1
7	2066	728438.30224549618	0
7	2080	730139.428505706507	1
7	2089	732257.057748155035	2
7	2097	735325.964146389542	3
7	2099	735780.092936224898	2
7	2108	739888.179101028912	1
7	2121	741877.950921784123	0
7	2125	742236.010142443004	1
7	2133	744321.979831170258	0
7	2147	746750.570455692283	1
7	2149	748506.824636494373	0
7	2165	757322.144698042935	1
7	2167	757748.485169346894	0
7	2184	758393.290854213337	1
7	2189	759074.381576581426	2
7	2199	761773.429591652774	1
7	2204	762367.285791133434	2
7	2208	762828.478240225913	1
7	2212	762899.549018568587	2
7	2221	763671.45713616079	1
7	2238	764708.709544052018	2
7	2240	765364.659002802767	1
7	2248	766611.267157424615	0
7	2267	776185.164590640561	1
7	2272	776769.009750698891	2
7	2274	777636.310127919406	1
7	2282	779584.226883620785	0
7	2297	785977.595877555402	1
7	2305	788015.713677360157	0
7	2309	788042.51589384083	1
7	2313	788189.862211520472	0
7	2332	802141.329653440374	1
7	2334	803042.433128065484	0
7	2348	803796.89487611101	1
7	2351	807941.929054584579	0
7	2366	812880.709771313185	1
7	2369	820003.793682392537	0
7	2384	827029.733490824087	1
7	2387	833436.859891007851	0
7	2402	835943.786583173303	1
7	2405	841004.154894550483	0
7	2420	848672.26884627433	1
7	2422	850912.582258467381	0
7	2437	855598.704411354911	1
7	2445	857213.662580612185	2
7	2447	857867.267102239917	1
7	2456	862617.065423381705	0
7	2474	864464.165941837293	1
7	2479	865048.520059923226	2
7	2481	865453.332761743	1
7	2489	866996.676754532871	0
7	2506	869038.309590758782	1
7	2512	870073.684734863065	2
7	2514	870406.720179701012	1
7	2522	870789.487928221632	0
7	2536	871286.745098528536	1
7	2545	876298.486302639549	2
7	2552	877112.909440688338	1
7	2556	877725.61827217514	2
7	2563	880008.303885631602	1
7	2571	881137.674173900914	0
7	2587	890813.702628716857	1
7	2595	892122.627787202962	2
7	2603	893301.966521912204	3
7	2606	894087.293340615544	2
7	2614	896124.153274203569	1
7	2622	897168.197332182742	0
7	2639	899483.220147755315	1
7	2645	901485.200889104947	2
7	2653	902181.781430681148	3
7	2655	905731.263545823453	2
7	2664	909283.519607594723	1
7	2674	920198.612643498452	0
7	2690	933801.616298846956	1
7	2697	935512.47097248493	0
7	2701	935704.916869627454	1
7	2709	936266.270924090929	0
7	2723	938712.350701288931	1
7	2731	940052.727323262962	2
7	2740	942773.504952469473	3
7	2742	943107.514917990365	2
7	2756	943960.274086883981	3
7	2758	944414.25513219291	2
7	2766	945045.046390263453	1
7	2774	946049.647815757909	0
7	2789	949833.140921076421	1
7	2791	952665.418561213715	0
7	2806	956525.156762469846	1
7	2809	963264.788749544226	0
7	2824	971535.106813285715	1
7	2827	972124.722040866618	0
7	2844	990547.316753239738	1
7	2852	995791.994034251971	2
7	2854	995820.409465240763	1
7	2869	996211.764069616857	2
7	2871	996536.800205975011	1
7	2879	1000821.79428928938	0
7	2896	1014382.368688719839	1
7	2899	1025349.980449099249	0
7	2914	1027883.162856289319	1
7	2923	1032816.279543081122	2
7	2925	1035160.778170846199	1
7	2933	1037303.441361073902	0
7	2950	1054769.403007573156	1
7	2952	1055389.063902505691	0
7	2968	1064037.096075087846	1
7	2970	1066029.74432131092	0
7	2985	1071845.708131595915	1
7	2987	1073440.980604969227	0
7	3003	1082361.569881009331	1
7	3011	1083213.870288758556	2
7	3013	1085221.211806014724	1
7	3022	1086276.606269858802	0
7	3036	1091265.13947669772	1
7	3039	1093873.94543321767	0
7	3053	1097201.66915225518	1
7	3056	1099125.552340067745	0
7	3071	1107759.080721478856	1
7	3080	1114337.483025561056	2
7	3089	1116038.335637881562	3
7	3091	1116290.58952055655	2
7	3099	1117308.021963268674	1
7	3107	1118218.942404693884	0
