version 2
run ParkingMeasurement-144-20170108-17:31:45-5920
attr configname ParkingMeasurement
attr datetime 20170108-17:31:45
attr experiment ParkingMeasurement
attr inifile parkingStudy.ini
attr iterationvars ""
attr iterationvars2 $repetition=144
attr measurement ""
attr network controltower.SimNetwork
attr processid 5920
attr repetition 144
attr replication #144
attr resultdir results
attr runnumber 144
attr seedset 144
param SimNetwork.a.parkingLot.parkingDelay exponential(60min)
param SimNetwork.a.runway.landingTime exponential(15min)
param SimNetwork.a.runway.takeoffTime exponential(5min)
param SimNetwork.a.runway.throughputCheckInterval 100min
param SimNetwork.wg.interArrivalTime exponential(100min)

vector 7  SimNetwork.a.parkingLot  parkingOccupancy:vector  ETV
attr source  parkingOccupancy
vector 4  SimNetwork.a.takeoffQueue  queueLength:vector  ETV
attr source  queueLengthSignal
vector 3  SimNetwork.a.takeoffQueue  queueTime:vector  ETV
attr source  queueTimeSignal
vector 0  SimNetwork.wg  responseTime:vector  ETV
attr source  responseTimeSignal
vector 5  SimNetwork.a.runway  landedThroughput:vector  ETV
attr source  landedThroughputSignal
vector 6  SimNetwork.a.runway  tookoffThroughput:vector  ETV
attr source  tookoffThroughputSignal
vector 2  SimNetwork.a.landingQueue  queueLength:vector  ETV
attr source  queueLengthSignal
vector 1  SimNetwork.a.landingQueue  queueTime:vector  ETV
attr source  queueTimeSignal
0	448	202089.117969945175	44590.820228963
0	475	218255.248762353367	21825.234637714
0	483	220428.791847410601	8276.0987265672
0	511	223552.648207915919	7481.7700579196
0	516	223579.568673997354	2507.3794463568
0	533	233496.579503916517	12014.265174585
0	567	245404.321840191526	2527.4179796826
0	609	250989.881458629231	6581.9611257197
0	614	251124.320068463738	6718.5384239927
0	619	251360.782093799192	3149.421682868
0	624	251541.817764388311	2799.5645480379
0	641	253800.864265159835	22515.137815834
0	649	257630.646191350533	7769.058819413
0	667	265966.958062216437	14104.487737975
0	701	279206.367630938063	14819.208910074
0	743	282815.77927712984	4472.8644828304
0	748	283297.23066553559	9189.7500030107
0	753	283535.533909028193	5304.749311016
0	758	283573.205730887262	3057.8109176638
0	770	289442.466945002151	8588.669830898
0	783	293341.481145304643	12287.440238806
0	800	299745.825821707942	10654.995309428
0	842	311837.653742494903	3537.6327561853
0	850	311947.305690462272	1092.3521320735
0	875	315722.253418876503	4710.0885436186
0	883	317967.092174195303	10102.742553462
0	903	320389.304597704557	6551.3394768455
0	908	320399.464398253603	26590.168826508
0	925	325862.191716519421	12417.332508987
0	933	325998.705040109724	6730.6825281199
0	949	329524.793764668126	4452.1289778324
0	976	343027.502902118065	15792.981935797
0	984	344656.130590833269	10158.137983687
0	1001	352420.418424542473	14366.820115243
0	1018	357201.574532285352	10242.38746599
0	1038	379499.59703136069	24190.241409687
0	1055	385008.059117402252	7201.9435937209
0	1071	387520.323995462285	4278.676153653
0	1106	404389.192856678258	3676.0471539607
0	1114	407169.113990363049	20567.332529809
0	1132	418293.608959799026	17189.236640823
0	1140	418728.599386166269	16374.793867784
0	1157	420547.45266344406	7458.3331425254
0	1174	428284.790255044764	9228.4494554441
0	1199	433831.781835722862	5524.298857589
0	1207	436276.092888425533	12868.803337948
0	1233	445789.720925557781	2990.2217408832
0	1241	446627.962864815937	17397.369552294
0	1258	452356.670049903093	7655.9323664532
0	1310	459529.651061591865	6821.0467101686
0	1315	459811.160039812797	2913.9452324867
0	1323	461715.960275330618	11466.317440572
0	1332	462072.59796171441	9500.692838816
0	1340	464813.739812117721	8171.8761043469
0	1369	494662.483353050593	35852.610145874
0	1378	500368.81049960759	10398.246267056
0	1395	509855.864931063605	16201.262575345
0	1430	525819.005849243446	19905.716798841
0	1447	528306.875416752489	7227.5483634936
0	1463	531440.716022484844	3317.5164107857
0	1480	534440.492668052341	12131.094162843
0	1488	535045.238394863917	4868.5354002171
0	1507	538170.078980281926	4991.4392738294
0	1520	538804.160236951356	2993.4874963208
0	1537	545123.804846807755	26608.300174398
0	1545	545609.399620875532	7761.2347188178
0	1563	556527.99265701363	14752.835149146
0	1610	559754.231856449571	2245.0149383667
0	1620	560577.240187326209	2345.3860810116
0	1628	561270.648394901796	9221.4020294531
0	1636	562984.623699638186	4644.5890004711
0	1653	567775.949082420745	9803.2076710159
0	1661	568011.352871950872	8547.6698994949
0	1678	572123.210308451979	5871.7872040231
0	1696	585254.495433564197	14693.4171607
0	1724	609535.082466788127	29711.333696711
0	1733	612623.141143886026	11686.902454389
0	1752	616435.958319332742	10581.707131037
0	1782	618951.22443548885	2528.7922389918
0	1790	619386.933898761534	1447.7408144275
0	1825	621833.122867399882	3739.8327774574
0	1830	622134.839896661556	1974.4930248931
0	1841	623586.033006683522	8008.3808426685
0	1846	623885.922773290768	4065.6635138821
0	1871	627154.21243933843	6505.2568336114
0	1880	632934.590340357705	8173.0514119798
0	1899	651550.037033800072	26089.669984286
0	1948	667730.732667843612	19709.632248479
0	1953	667837.184796297391	7392.1863483677
0	1958	667885.925027253166	11232.602411632
0	1966	669143.52791103092	4616.1293762291
0	1991	676460.077370884838	6438.1462745007
0	1999	677446.695705099855	11278.335045673
0	2017	686873.500142107805	16262.621227797
0	2038	696036.236921366756	11517.229052438
0	2051	697651.791923989956	3436.2416589591
0	2068	704761.941816067844	8758.6672598621
0	2085	709177.534151334125	4638.4767248484
0	2103	723091.930887351062	16697.04089107
0	2120	731746.654951440144	12395.977980289
0	2144	756524.673642906384	26347.350561779
0	2158	764040.160510695976	8347.7123072085
0	2222	775744.193423741426	19552.577658339
0	2227	775815.311374290827	2843.1397547906
0	2232	775822.792006813672	3321.4597109765
0	2240	777139.098551563233	3797.5218951417
0	2267	778861.000691286927	1623.0939436361
0	2275	779043.060599383869	5698.6303831756
0	2280	779265.57319907723	7668.258033763
0	2289	780360.567931546855	12309.689948921
0	2305	784101.029543209552	5814.3239056502
0	2331	792844.729285377275	11330.612071177
0	2356	801295.594897512676	10105.417566773
0	2364	802674.271196823253	3802.1635923486
0	2381	806674.822307578565	20836.649401555
0	2389	808277.998990913405	8331.0261025715
0	2408	824760.478704611798	20691.940325819
0	2449	830953.105055578744	10359.037487811
0	2457	833049.840049041573	6144.4062626887
0	2474	834765.840808544407	6085.4112668348
0	2485	835091.123480838422	5418.2872529149
0	2490	835165.328513931088	4701.3032648851
0	2523	840968.527883477572	5670.7542504506
0	2531	842184.463842395855	8394.0689903228
0	2539	844229.430825093128	6332.5518898595
0	2567	864714.820832374668	10665.577360737
0	2575	866724.416564914841	27516.005477603
0	2593	877222.008689551873	14041.962704232
0	2609	880700.728131140772	4547.8654300774
0	2626	887835.435832473534	7700.8445694115
0	2645	900007.455284910574	17482.500738289
0	2670	906023.003062801154	8754.8701703473
0	2678	907133.921019161893	3939.8811429849
0	2695	913777.108829939675	10014.779288186
0	2711	917978.459636137123	6568.0124786442
0	2738	930551.42812252133	15425.147920899
0	2746	932664.918412711618	13068.347490752
0	2764	944698.161000813467	15790.127661417
0	2789	949709.477006821498	2114.9391252776
0	2805	953858.808545922203	12415.543877159
0	2822	959781.836925810702	11171.100010053
0	2839	963848.066464738079	7468.0132639436
0	2848	967643.870335323812	15547.348512644
0	2874	979438.341793335146	18817.983156716
0	2890	983663.896915713898	6732.9479096067
0	2899	986489.03593569903	9517.946225274
0	2921	1023152.016169411632	41529.382554216
0	2947	1032017.771054172185	8208.7546484083
0	2972	1038346.433787034918	7109.7431274628
0	2983	1040203.333751742619	21794.979364257
0	2988	1040537.935543154782	6689.1330519915
0	3005	1045019.892739064994	7735.1133426323
0	3022	1055744.319635525873	13409.044804831
0	3040	1064227.929528159494	12271.93116515
0	3057	1073282.004100869125	12465.264771274
0	3076	1091181.401104639001	22557.341993286
0	3094	1099414.908449743874	17101.315506387
0	3127	1106546.951478212245	9195.0083392437
0	3135	1107137.676635084184	3488.4537768667
0	3144	1113607.091662039151	10847.241128331
0	3165	1122072.486506191774	16160.170661396
0	3178	1122836.851458494328	2485.2936054323
1	455	212152.693120843437	0
1	464	216070.878149996354	0
1	488	221072.189227640532	0
1	496	221487.48639853498	5.172069203226
1	522	231285.726449325474	0
1	540	242876.903860508924	0
1	548	244405.781644471083	0
1	556	244462.026027384226	54.10569447465
1	573	248211.360410931203	0
1	581	248742.253216350404	0
1	595	250403.769413152521	542.18204121503
1	629	251862.470324241288	0
1	656	264387.15872086373	0
1	673	274107.480662524862	0
1	682	278230.784598012222	0
1	690	278342.914794299447	0
1	706	280515.394813223484	0
1	714	280853.79711410417	0
1	726	282085.266026389582	1031.2251198909
1	772	289442.466945002151	351.63643272263
1	788	293809.29557174547	0
1	807	307864.34962073343	0
1	815	308300.02098630961	0
1	823	310854.95355838877	0
1	831	311012.164875257911	0
1	856	313444.859207532136	0
1	864	313837.965120859051	0
1	889	319268.022511989775	0
1	914	325072.664786835717	0
1	938	327234.520966321411	0
1	955	334497.992607146173	0
1	964	338053.598309299615	0
1	989	346959.187066295529	0
1	1007	355309.355621673435	0
1	1026	377806.115523681343	0
1	1043	383241.647841809265	0
1	1060	386601.781460554089	0
1	1078	400713.145702717527	0
1	1086	401299.107927541934	194.73560856578
1	1095	403019.155491854982	665.34997347259
1	1120	413089.119520918672	0
1	1145	419056.340799600664	0
1	1162	423407.289550477508	0
1	1179	428307.482978133816	0
1	1187	429914.378055654622	683.78474313298
1	1213	442799.499184674589	0
1	1222	444700.737683449913	0
1	1247	450249.642834758663	0
1	1263	452571.905122898433	0
1	1271	453897.765680959931	1189.1613295367
1	1280	456641.863707770807	0
1	1288	458179.086926168688	1281.8721188426
1	1296	458809.873207177007	0
1	1349	489970.564232551099	0
1	1358	493654.602355719022	0
1	1384	505913.289050402486	0
1	1402	518515.504672409742	0
1	1410	521079.327053258886	0
1	1419	522309.398505209168	0
1	1436	528123.199611699118	0
1	1452	530176.702994646787	0
1	1468	533178.639706452517	0
1	1493	535810.672740630537	0
1	1509	538170.078980281926	321.91407822424
1	1526	541775.157507867918	0
1	1552	552049.246365448652	0
1	1568	557509.216918082878	0
1	1576	557972.741411404839	0
1	1585	558231.854106314569	0
1	1596	559236.136708674216	896.10200950712
1	1612	559754.231856449571	290.54888399362
1	1642	566251.423104428869	0
1	1667	570561.078272864232	0
1	1684	579823.748770076678	0
1	1704	600936.238689496666	0
1	1712	605854.251188295332	0
1	1738	615577.65216401503	0
1	1754	616435.958319332742	13.526122835657
1	1762	617939.193084334024	0
1	1771	618608.845333548116	515.55524360562
1	1795	619820.259259408676	0
1	1803	620160.346871768465	0
1	1811	620648.955605727014	0
1	1852	624761.53892837786	0
1	1860	625460.367049514109	0
1	1888	648021.100419364161	0
1	1905	656653.322615621253	0
1	1914	660582.937739880603	137.93929195091
1	1929	666176.338783601177	1648.9402487993
1	1934	666265.000868117491	96.64020869077
1	1971	670021.931096384172	0
1	1979	670769.09779634267	158.21888203171
1	2006	684519.007868928668	0
1	2023	694215.550265030848	0
1	2040	696036.236921366756	32.962365161043
1	2057	704539.057426485715	0
1	2073	706394.889996280694	0
1	2091	719350.676971150678	0
1	2109	730177.323081127218	0
1	2129	755692.44820348747	0
1	2146	756524.673642906384	333.05787750429
1	2164	768050.87798262563	0
1	2172	771597.315165314251	0
1	2180	772955.769922143207	454.43762630601
1	2198	774237.103143321088	1264.9315238209
1	2203	774282.648344208259	941.07168778669
1	2208	774558.855633457285	1214.4254172491
1	2245	777237.906747650783	0
1	2253	778286.705637559331	0
1	2294	781514.117214200311	0
1	2310	785838.172906023755	0
1	2319	791190.177330739923	0
1	2337	798872.107604474657	0
1	2345	799946.972888341937	0
1	2370	804068.53837879326	0
1	2396	820594.067567768144	0
1	2413	826905.433786352838	0
1	2422	828911.265046846815	230.83550513726
1	2430	829672.836227923499	0
1	2441	830700.184586479507	236.15933743349
1	2462	833790.394852073031	0
1	2495	835297.773633026934	0
1	2503	837896.878935233594	0
1	2511	839208.411087311901	0
1	2546	854049.243471637983	0
1	2555	863180.045985319615	0
1	2582	876152.862701063387	0
1	2598	880134.591263062045	0
1	2615	882524.954546622044	0
1	2633	897268.13289245381	0
1	2650	903194.039876177042	0
1	2658	903762.329541754119	0
1	2683	911410.447157492967	0
1	2700	915126.280201622423	0
1	2717	919596.570921959301	0
1	2726	928908.033339396551	0
1	2752	941443.264668763209	0
1	2769	947594.537881543899	0
1	2778	948610.736915757503	0
1	2794	952096.521822680179	0
1	2811	956380.053200794508	0
1	2828	960620.358636619462	0
1	2854	976930.94900610719	0
1	2862	977788.158501714453	817.06879128943
1	2879	981622.63361519557	0
1	2909	1018408.354387485506	0
1	2926	1023809.016405763928	0
1	2935	1031236.690659572152	0
1	2952	1033848.802491163253	0
1	2960	1037284.779396432722	0
1	2993	1042335.274830694616	0
1	3011	1051955.998363009252	0
1	3028	1060816.739329594962	0
1	3046	1068624.059111352778	0
1	3064	1082313.592943356592	0
1	3082	1097351.943138968496	0
1	3099	1102759.850533708024	0
1	3107	1103649.222858217498	0
1	3116	1105912.315844795452	0
1	3150	1120351.55785306198	0
1	3167	1122072.486506191774	184.30716298386
2	453	212152.693120843437	1
2	455	212152.693120843437	0
2	462	216070.878149996354	1
2	464	216070.878149996354	0
2	486	221072.189227640532	1
2	488	221072.189227640532	0
2	491	221482.314329331754	1
2	496	221487.48639853498	0
2	520	231285.726449325474	1
2	522	231285.726449325474	0
2	538	242876.903860508924	1
2	540	242876.903860508924	0
2	546	244405.781644471083	1
2	548	244405.781644471083	0
2	551	244407.920332909576	1
2	556	244462.026027384226	0
2	571	248211.360410931203	1
2	573	248211.360410931203	0
2	579	248742.253216350404	1
2	581	248742.253216350404	0
2	590	249861.587371937494	1
2	595	250403.769413152521	0
2	627	251862.470324241288	1
2	629	251862.470324241288	0
2	654	264387.15872086373	1
2	656	264387.15872086373	0
2	671	274107.480662524862	1
2	673	274107.480662524862	0
2	680	278230.784598012222	1
2	682	278230.784598012222	0
2	688	278342.914794299447	1
2	690	278342.914794299447	0
2	704	280515.394813223484	1
2	706	280515.394813223484	0
2	712	280853.79711410417	1
2	714	280853.79711410417	0
2	717	281054.04090649867	1
2	726	282085.266026389582	0
2	767	289090.830512279516	1
2	772	289442.466945002151	0
2	786	293809.29557174547	1
2	788	293809.29557174547	0
2	805	307864.34962073343	1
2	807	307864.34962073343	0
2	813	308300.02098630961	1
2	815	308300.02098630961	0
2	821	310854.95355838877	1
2	823	310854.95355838877	0
2	829	311012.164875257911	1
2	831	311012.164875257911	0
2	854	313444.859207532136	1
2	856	313444.859207532136	0
2	862	313837.965120859051	1
2	864	313837.965120859051	0
2	887	319268.022511989775	1
2	889	319268.022511989775	0
2	912	325072.664786835717	1
2	914	325072.664786835717	0
2	936	327234.520966321411	1
2	938	327234.520966321411	0
2	953	334497.992607146173	1
2	955	334497.992607146173	0
2	962	338053.598309299615	1
2	964	338053.598309299615	0
2	987	346959.187066295529	1
2	989	346959.187066295529	0
2	1005	355309.355621673435	1
2	1007	355309.355621673435	0
2	1024	377806.115523681343	1
2	1026	377806.115523681343	0
2	1041	383241.647841809265	1
2	1043	383241.647841809265	0
2	1058	386601.781460554089	1
2	1060	386601.781460554089	0
2	1076	400713.145702717527	1
2	1078	400713.145702717527	0
2	1081	401104.372318976156	1
2	1086	401299.107927541934	0
2	1090	402353.805518382396	1
2	1095	403019.155491854982	0
2	1118	413089.119520918672	1
2	1120	413089.119520918672	0
2	1143	419056.340799600664	1
2	1145	419056.340799600664	0
2	1160	423407.289550477508	1
2	1162	423407.289550477508	0
2	1177	428307.482978133816	1
2	1179	428307.482978133816	0
2	1182	429230.593312521643	1
2	1187	429914.378055654622	0
2	1211	442799.499184674589	1
2	1213	442799.499184674589	0
2	1220	444700.737683449913	1
2	1222	444700.737683449913	0
2	1245	450249.642834758663	1
2	1247	450249.642834758663	0
2	1261	452571.905122898433	1
2	1263	452571.905122898433	0
2	1266	452708.604351423244	1
2	1271	453897.765680959931	0
2	1278	456641.863707770807	1
2	1280	456641.863707770807	0
2	1283	456897.214807326074	1
2	1288	458179.086926168688	0
2	1294	458809.873207177007	1
2	1296	458809.873207177007	0
2	1347	489970.564232551099	1
2	1349	489970.564232551099	0
2	1356	493654.602355719022	1
2	1358	493654.602355719022	0
2	1382	505913.289050402486	1
2	1384	505913.289050402486	0
2	1400	518515.504672409742	1
2	1402	518515.504672409742	0
2	1408	521079.327053258886	1
2	1410	521079.327053258886	0
2	1417	522309.398505209168	1
2	1419	522309.398505209168	0
2	1434	528123.199611699118	1
2	1436	528123.199611699118	0
2	1450	530176.702994646787	1
2	1452	530176.702994646787	0
2	1466	533178.639706452517	1
2	1468	533178.639706452517	0
2	1491	535810.672740630537	1
2	1493	535810.672740630537	0
2	1504	537848.164902057684	1
2	1509	538170.078980281926	0
2	1524	541775.157507867918	1
2	1526	541775.157507867918	0
2	1550	552049.246365448652	1
2	1552	552049.246365448652	0
2	1566	557509.216918082878	1
2	1568	557509.216918082878	0
2	1574	557972.741411404839	1
2	1576	557972.741411404839	0
2	1583	558231.854106314569	1
2	1585	558231.854106314569	0
2	1588	558340.034699167095	1
2	1596	559236.136708674216	0
2	1604	559463.682972455951	1
2	1612	559754.231856449571	0
2	1640	566251.423104428869	1
2	1642	566251.423104428869	0
2	1665	570561.078272864232	1
2	1667	570561.078272864232	0
2	1682	579823.748770076678	1
2	1684	579823.748770076678	0
2	1702	600936.238689496666	1
2	1704	600936.238689496666	0
2	1710	605854.251188295332	1
2	1712	605854.251188295332	0
2	1736	615577.65216401503	1
2	1738	615577.65216401503	0
2	1749	616422.432196497085	1
2	1754	616435.958319332742	0
2	1760	617939.193084334024	1
2	1762	617939.193084334024	0
2	1766	618093.290089942499	1
2	1771	618608.845333548116	0
2	1793	619820.259259408676	1
2	1795	619820.259259408676	0
2	1801	620160.346871768465	1
2	1803	620160.346871768465	0
2	1809	620648.955605727014	1
2	1811	620648.955605727014	0
2	1850	624761.53892837786	1
2	1852	624761.53892837786	0
2	1858	625460.367049514109	1
2	1860	625460.367049514109	0
2	1886	648021.100419364161	1
2	1888	648021.100419364161	0
2	1903	656653.322615621253	1
2	1905	656653.322615621253	0
2	1909	660444.998447929691	1
2	1914	660582.937739880603	0
2	1917	664527.398534801831	1
2	1924	666168.360659426721	2
2	1929	666176.338783601177	1
2	1934	666265.000868117491	0
2	1969	670021.931096384172	1
2	1971	670021.931096384172	0
2	1974	670610.87891431096	1
2	1979	670769.09779634267	0
2	2004	684519.007868928668	1
2	2006	684519.007868928668	0
2	2021	694215.550265030848	1
2	2023	694215.550265030848	0
2	2035	696003.274556205713	1
2	2040	696036.236921366756	0
2	2055	704539.057426485715	1
2	2057	704539.057426485715	0
2	2071	706394.889996280694	1
2	2073	706394.889996280694	0
2	2089	719350.676971150678	1
2	2091	719350.676971150678	0
2	2107	730177.323081127218	1
2	2109	730177.323081127218	0
2	2127	755692.44820348747	1
2	2129	755692.44820348747	0
2	2141	756191.615765402094	1
2	2146	756524.673642906384	0
2	2162	768050.87798262563	1
2	2164	768050.87798262563	0
2	2170	771597.315165314251	1
2	2172	771597.315165314251	0
2	2175	772501.332295837197	1
2	2180	772955.769922143207	0
2	2183	772972.171619500211	1
2	2186	773341.576656421565	2
2	2189	773344.43021620823	3
2	2198	774237.103143321088	2
2	2203	774282.648344208259	1
2	2208	774558.855633457285	0
2	2243	777237.906747650783	1
2	2245	777237.906747650783	0
2	2251	778286.705637559331	1
2	2253	778286.705637559331	0
2	2292	781514.117214200311	1
2	2294	781514.117214200311	0
2	2308	785838.172906023755	1
2	2310	785838.172906023755	0
2	2317	791190.177330739923	1
2	2319	791190.177330739923	0
2	2335	798872.107604474657	1
2	2337	798872.107604474657	0
2	2343	799946.972888341937	1
2	2345	799946.972888341937	0
2	2368	804068.53837879326	1
2	2370	804068.53837879326	0
2	2394	820594.067567768144	1
2	2396	820594.067567768144	0
2	2411	826905.433786352838	1
2	2413	826905.433786352838	0
2	2417	828680.429541709559	1
2	2422	828911.265046846815	0
2	2428	829672.836227923499	1
2	2430	829672.836227923499	0
2	2436	830464.025249046013	1
2	2441	830700.184586479507	0
2	2460	833790.394852073031	1
2	2462	833790.394852073031	0
2	2493	835297.773633026934	1
2	2495	835297.773633026934	0
2	2501	837896.878935233594	1
2	2503	837896.878935233594	0
2	2509	839208.411087311901	1
2	2511	839208.411087311901	0
2	2544	854049.243471637983	1
2	2546	854049.243471637983	0
2	2553	863180.045985319615	1
2	2555	863180.045985319615	0
2	2580	876152.862701063387	1
2	2582	876152.862701063387	0
2	2596	880134.591263062045	1
2	2598	880134.591263062045	0
2	2613	882524.954546622044	1
2	2615	882524.954546622044	0
2	2631	897268.13289245381	1
2	2633	897268.13289245381	0
2	2648	903194.039876177042	1
2	2650	903194.039876177042	0
2	2656	903762.329541754119	1
2	2658	903762.329541754119	0
2	2681	911410.447157492967	1
2	2683	911410.447157492967	0
2	2698	915126.280201622423	1
2	2700	915126.280201622423	0
2	2715	919596.570921959301	1
2	2717	919596.570921959301	0
2	2724	928908.033339396551	1
2	2726	928908.033339396551	0
2	2750	941443.264668763209	1
2	2752	941443.264668763209	0
2	2767	947594.537881543899	1
2	2769	947594.537881543899	0
2	2776	948610.736915757503	1
2	2778	948610.736915757503	0
2	2792	952096.521822680179	1
2	2794	952096.521822680179	0
2	2809	956380.053200794508	1
2	2811	956380.053200794508	0
2	2826	960620.358636619462	1
2	2828	960620.358636619462	0
2	2852	976930.94900610719	1
2	2854	976930.94900610719	0
2	2857	976971.089710425028	1
2	2862	977788.158501714453	0
2	2877	981622.63361519557	1
2	2879	981622.63361519557	0
2	2907	1018408.354387485506	1
2	2909	1018408.354387485506	0
2	2924	1023809.016405763928	1
2	2926	1023809.016405763928	0
2	2933	1031236.690659572152	1
2	2935	1031236.690659572152	0
2	2950	1033848.802491163253	1
2	2952	1033848.802491163253	0
2	2958	1037284.779396432722	1
2	2960	1037284.779396432722	0
2	2991	1042335.274830694616	1
2	2993	1042335.274830694616	0
2	3009	1051955.998363009252	1
2	3011	1051955.998363009252	0
2	3026	1060816.739329594962	1
2	3028	1060816.739329594962	0
2	3044	1068624.059111352778	1
2	3046	1068624.059111352778	0
2	3062	1082313.592943356592	1
2	3064	1082313.592943356592	0
2	3080	1097351.943138968496	1
2	3082	1097351.943138968496	0
2	3097	1102759.850533708024	1
2	3099	1102759.850533708024	0
2	3105	1103649.222858217498	1
2	3107	1103649.222858217498	0
2	3114	1105912.315844795452	1
2	3116	1105912.315844795452	0
2	3148	1120351.55785306198	1
2	3150	1120351.55785306198	0
2	3161	1121888.179343207911	1
2	3167	1122072.486506191774	0
3	445	201992.927616290692	0
3	472	218175.528137276984	0
3	480	220277.788958662841	0
3	505	223386.376554294638	0
3	513	223552.648207915919	134.69129090186
3	530	232964.878736535711	0
3	564	245380.028199206351	0
3	600	250510.022038804842	1412.7233420825
3	611	250989.881458629231	1855.8525807679
3	616	251124.320068463738	586.68817080262
3	621	251360.782093799192	376.79268549687
3	638	253602.918882759549	0
3	646	256860.834033775559	0
3	664	265665.363129261648	0
3	698	279151.803848886387	0
3	731	282369.703054066206	1262.7471303258
3	745	282815.77927712984	289.75694392049
3	750	283297.23066553559	697.31011799337
3	755	283535.533909028193	888.62291277593
3	764	288666.958581877966	0
3	780	293185.662519931612	0
3	797	299330.313454740733	0
3	839	311787.323774518027	671.59626052648
3	847	311880.617752158905	0
3	872	315702.871249274308	0
3	880	317306.867664176061	0
3	897	320243.832152412525	0
3	905	320389.304597704557	85.052539643573
3	922	325836.902344874311	46.547829675143
3	930	325881.560287913994	0
3	946	329190.156171824662	0
3	973	342994.560662965081	0
3	981	343938.810168471138	0
3	998	352251.015703243441	0
3	1015	356550.517035146392	0
3	1035	379213.405666309276	0
3	1052	384900.008984413105	0
3	1068	387404.276740389796	0
3	1103	404315.697253168145	0
3	1111	407040.87292957067	0
3	1129	418074.302328160553	0
3	1137	418324.438123713076	0
3	1154	420399.208252549257	0
3	1171	428149.743857885303	0
3	1196	433793.319798231904	0
3	1204	436264.83558380325	0
3	1230	445279.430680222706	0
3	1238	446450.41561153857	0
3	1255	452245.515488109043	0
3	1304	459485.832808766981	0
3	1312	459529.651061591865	3.605470327197
3	1320	461653.810268107269	0
3	1328	461814.177319286581	0
3	1337	464069.90715500712	0
3	1366	494350.871653533601	618.82828046137
3	1375	500165.422470372913	0
3	1392	509674.327757733088	0
3	1427	524863.597967219221	0
3	1444	528297.401255944483	147.94146645174
3	1460	531212.997043112948	0
3	1477	534341.745146894163	0
3	1485	535031.375860274109	0
3	1501	536708.301668558341	0
3	1517	538790.609341990711	0
3	1534	544836.281865980193	0
3	1542	545239.818235511292	0
3	1560	556123.476922165282	0
3	1601	559326.229936703408	973.05769221472
3	1617	560464.8608847899	959.75151434173
3	1625	560873.117905894354	0
3	1633	562901.401714784528	0
3	1650	567617.650765819751	778.1187023095
3	1658	567843.305160715731	0
3	1675	572066.251299574297	0
3	1693	585127.019006254799	0
3	1721	609480.138714083544	0
3	1730	612528.362049039989	0
3	1746	616077.347253258775	0
3	1779	618909.169702338345	276.06315972698
3	1787	619334.318413478152	0
3	1819	621640.864269490007	0
3	1827	621833.122867399882	91.273302548235
3	1835	622713.026201656515	0
3	1843	623586.033006683522	136.90126082281
3	1868	627037.315403277717	0
3	1877	632729.293386757917	0
3	1896	651334.682143095029	0
3	1939	666348.761251897299	1590.8276895026
3	1950	667730.732667843612	1060.2823464736
3	1955	667837.184796297391	235.72631492266
3	1963	668936.691019107938	0
3	1988	676322.489483239299	0
3	1996	677435.160500122036	0
3	2014	686601.194096077125	0
3	2031	695737.33992224013	0
3	2048	697565.563542459741	0
3	2065	704724.999172413409	0
3	2082	709009.771636374149	0
3	2100	723065.050049705099	0
3	2117	731682.758914208983	0
3	2137	755886.381860142287	0
3	2155	763490.352982463362	0
3	2216	775013.864416014157	781.05449277189
3	2224	775744.193423741426	800.97637194082
3	2229	775815.311374290827	747.39943150681
3	2237	776906.29487897754	0
3	2261	778826.643079493421	0
3	2269	778861.000691286927	0.137989243518
3	2277	779043.060599383869	133.29833965197
3	2286	780052.536092649181	0
3	2302	783028.256195753743	0
3	2328	792829.914254598691	0
3	2353	800353.650263888461	265.61021757961
3	2361	802593.493131804574	0
3	2378	806601.253594705502	115.73848416649
3	2386	807172.496790382843	0
3	2405	824582.771027868261	0
3	2446	830760.855361206458	805.20375901233
3	2454	832687.884581105805	0
3	2471	834756.451402024562	0
3	2479	834852.440907850931	0
3	2487	835091.123480838422	136.50934617969
3	2520	840369.298656706431	0
3	2528	841507.479492011878	0
3	2536	844117.038417581943	0
3	2564	864009.644038555313	0
3	2572	866512.079922233489	0
3	2590	877179.133811077348	0
3	2606	880699.477703568374	0
3	2623	887725.905936601217	0
3	2641	899909.258001147603	0
3	2666	905309.450177620185	0
3	2675	907011.148146526823	0
3	2692	913633.676180486117	0
3	2708	917683.003656332177	0
3	2734	929505.554665599636	585.71577398992
3	2743	931823.072580173524	0
3	2761	944497.615436737742	0
3	2786	949707.803379992363	0
3	2802	953145.197011406235	184.6793788467
3	2819	959080.325886701671	0
3	2836	963787.17249187808	0
3	2845	966866.077562539828	0
3	2871	979019.508471693389	1215.0406590092
3	2887	983402.203310012173	0
3	2896	986216.911607051178	0
3	2918	1022936.845089115912	0
3	2943	1031959.166328626018	0
3	2968	1037752.766651876103	0
3	2977	1039594.812312563947	0
3	2985	1040203.333751742619	72.128869337392
3	3002	1044961.516309102979	0
3	3019	1055275.90845699569	0
3	3037	1064222.799523477701	0
3	3054	1073053.160964964873	0
3	3073	1090868.633510895331	0
3	3091	1099346.797422400448	0
3	3124	1106538.82175014296	0
3	3132	1106967.820400235327	0
3	3141	1113358.772768701708	0
3	3158	1121834.466778603163	0
3	3175	1122725.400164388818	0
4	443	201992.927616290692	1
4	445	201992.927616290692	0
4	470	218175.528137276984	1
4	472	218175.528137276984	0
4	478	220277.788958662841	1
4	480	220277.788958662841	0
4	503	223386.376554294638	1
4	505	223386.376554294638	0
4	508	223417.956917014059	1
4	513	223552.648207915919	0
4	528	232964.878736535711	1
4	530	232964.878736535711	0
4	562	245380.028199206351	1
4	564	245380.028199206351	0
4	584	249097.298696722318	1
4	587	249134.028877861324	2
4	600	250510.022038804842	1
4	603	250537.631897661122	2
4	606	250983.989408302323	3
4	611	250989.881458629231	2
4	616	251124.320068463738	1
4	621	251360.782093799192	0
4	636	253602.918882759549	1
4	638	253602.918882759549	0
4	644	256860.834033775559	1
4	646	256860.834033775559	0
4	662	265665.363129261648	1
4	664	265665.363129261648	0
4	696	279151.803848886387	1
4	698	279151.803848886387	0
4	720	281106.955923740393	1
4	731	282369.703054066206	0
4	734	282526.02233320935	1
4	737	282599.920547542222	2
4	740	282646.910996252258	3
4	745	282815.77927712984	2
4	750	283297.23066553559	1
4	755	283535.533909028193	0
4	762	288666.958581877966	1
4	764	288666.958581877966	0
4	778	293185.662519931612	1
4	780	293185.662519931612	0
4	795	299330.313454740733	1
4	797	299330.313454740733	0
4	834	311115.727513991551	1
4	839	311787.323774518027	0
4	845	311880.617752158905	1
4	847	311880.617752158905	0
4	870	315702.871249274308	1
4	872	315702.871249274308	0
4	878	317306.867664176061	1
4	880	317306.867664176061	0
4	895	320243.832152412525	1
4	897	320243.832152412525	0
4	900	320304.252058060984	1
4	905	320389.304597704557	0
4	917	325790.354515199168	1
4	922	325836.902344874311	0
4	928	325881.560287913994	1
4	930	325881.560287913994	0
4	944	329190.156171824662	1
4	946	329190.156171824662	0
4	971	342994.560662965081	1
4	973	342994.560662965081	0
4	979	343938.810168471138	1
4	981	343938.810168471138	0
4	996	352251.015703243441	1
4	998	352251.015703243441	0
4	1013	356550.517035146392	1
4	1015	356550.517035146392	0
4	1033	379213.405666309276	1
4	1035	379213.405666309276	0
4	1050	384900.008984413105	1
4	1052	384900.008984413105	0
4	1066	387404.276740389796	1
4	1068	387404.276740389796	0
4	1101	404315.697253168145	1
4	1103	404315.697253168145	0
4	1109	407040.87292957067	1
4	1111	407040.87292957067	0
4	1127	418074.302328160553	1
4	1129	418074.302328160553	0
4	1135	418324.438123713076	1
4	1137	418324.438123713076	0
4	1152	420399.208252549257	1
4	1154	420399.208252549257	0
4	1169	428149.743857885303	1
4	1171	428149.743857885303	0
4	1194	433793.319798231904	1
4	1196	433793.319798231904	0
4	1202	436264.83558380325	1
4	1204	436264.83558380325	0
4	1228	445279.430680222706	1
4	1230	445279.430680222706	0
4	1236	446450.41561153857	1
4	1238	446450.41561153857	0
4	1253	452245.515488109043	1
4	1255	452245.515488109043	0
4	1302	459485.832808766981	1
4	1304	459485.832808766981	0
4	1307	459526.045591264668	1
4	1312	459529.651061591865	0
4	1318	461653.810268107269	1
4	1320	461653.810268107269	0
4	1326	461814.177319286581	1
4	1328	461814.177319286581	0
4	1335	464069.90715500712	1
4	1337	464069.90715500712	0
4	1361	493732.043373072228	1
4	1366	494350.871653533601	0
4	1373	500165.422470372913	1
4	1375	500165.422470372913	0
4	1390	509674.327757733088	1
4	1392	509674.327757733088	0
4	1425	524863.597967219221	1
4	1427	524863.597967219221	0
4	1439	528149.459789492748	1
4	1444	528297.401255944483	0
4	1458	531212.997043112948	1
4	1460	531212.997043112948	0
4	1475	534341.745146894163	1
4	1477	534341.745146894163	0
4	1483	535031.375860274109	1
4	1485	535031.375860274109	0
4	1499	536708.301668558341	1
4	1501	536708.301668558341	0
4	1515	538790.609341990711	1
4	1517	538790.609341990711	0
4	1532	544836.281865980193	1
4	1534	544836.281865980193	0
4	1540	545239.818235511292	1
4	1542	545239.818235511292	0
4	1558	556123.476922165282	1
4	1560	556123.476922165282	0
4	1591	558353.172244488686	1
4	1601	559326.229936703408	0
4	1607	559505.109370448167	1
4	1617	560464.8608847899	0
4	1623	560873.117905894354	1
4	1625	560873.117905894354	0
4	1631	562901.401714784528	1
4	1633	562901.401714784528	0
4	1645	566839.532063510248	1
4	1650	567617.650765819751	0
4	1656	567843.305160715731	1
4	1658	567843.305160715731	0
4	1673	572066.251299574297	1
4	1675	572066.251299574297	0
4	1691	585127.019006254799	1
4	1693	585127.019006254799	0
4	1719	609480.138714083544	1
4	1721	609480.138714083544	0
4	1728	612528.362049039989	1
4	1730	612528.362049039989	0
4	1744	616077.347253258775	1
4	1746	616077.347253258775	0
4	1774	618633.106542611364	1
4	1779	618909.169702338345	0
4	1785	619334.318413478152	1
4	1787	619334.318413478152	0
4	1817	621640.864269490007	1
4	1819	621640.864269490007	0
4	1822	621741.849564851647	1
4	1827	621833.122867399882	0
4	1833	622713.026201656515	1
4	1835	622713.026201656515	0
4	1838	623449.131745860709	1
4	1843	623586.033006683522	0
4	1866	627037.315403277717	1
4	1868	627037.315403277717	0
4	1875	632729.293386757917	1
4	1877	632729.293386757917	0
4	1894	651334.682143095029	1
4	1896	651334.682143095029	0
4	1920	664757.933562394653	1
4	1939	666348.761251897299	0
4	1942	666670.450321370047	1
4	1945	667601.45848137473	2
4	1950	667730.732667843612	1
4	1955	667837.184796297391	0
4	1961	668936.691019107938	1
4	1963	668936.691019107938	0
4	1986	676322.489483239299	1
4	1988	676322.489483239299	0
4	1994	677435.160500122036	1
4	1996	677435.160500122036	0
4	2012	686601.194096077125	1
4	2014	686601.194096077125	0
4	2029	695737.33992224013	1
4	2031	695737.33992224013	0
4	2046	697565.563542459741	1
4	2048	697565.563542459741	0
4	2063	704724.999172413409	1
4	2065	704724.999172413409	0
4	2080	709009.771636374149	1
4	2082	709009.771636374149	0
4	2098	723065.050049705099	1
4	2100	723065.050049705099	0
4	2115	731682.758914208983	1
4	2117	731682.758914208983	0
4	2135	755886.381860142287	1
4	2137	755886.381860142287	0
4	2153	763490.352982463362	1
4	2155	763490.352982463362	0
4	2193	774232.809923242262	1
4	2211	774943.217051800605	2
4	2216	775013.864416014157	1
4	2219	775067.91194278402	2
4	2224	775744.193423741426	1
4	2229	775815.311374290827	0
4	2235	776906.29487897754	1
4	2237	776906.29487897754	0
4	2259	778826.643079493421	1
4	2261	778826.643079493421	0
4	2264	778860.862702043409	1
4	2269	778861.000691286927	0
4	2272	778909.762259731898	1
4	2277	779043.060599383869	0
4	2284	780052.536092649181	1
4	2286	780052.536092649181	0
4	2300	783028.256195753743	1
4	2302	783028.256195753743	0
4	2326	792829.914254598691	1
4	2328	792829.914254598691	0
4	2348	800088.040046308853	1
4	2353	800353.650263888461	0
4	2359	802593.493131804574	1
4	2361	802593.493131804574	0
4	2373	806485.515110539007	1
4	2378	806601.253594705502	0
4	2384	807172.496790382843	1
4	2386	807172.496790382843	0
4	2403	824582.771027868261	1
4	2405	824582.771027868261	0
4	2433	829955.651602194129	1
4	2446	830760.855361206458	0
4	2452	832687.884581105805	1
4	2454	832687.884581105805	0
4	2469	834756.451402024562	1
4	2471	834756.451402024562	0
4	2477	834852.440907850931	1
4	2479	834852.440907850931	0
4	2482	834954.614134658735	1
4	2487	835091.123480838422	0
4	2518	840369.298656706431	1
4	2520	840369.298656706431	0
4	2526	841507.479492011878	1
4	2528	841507.479492011878	0
4	2534	844117.038417581943	1
4	2536	844117.038417581943	0
4	2562	864009.644038555313	1
4	2564	864009.644038555313	0
4	2570	866512.079922233489	1
4	2572	866512.079922233489	0
4	2588	877179.133811077348	1
4	2590	877179.133811077348	0
4	2604	880699.477703568374	1
4	2606	880699.477703568374	0
4	2621	887725.905936601217	1
4	2623	887725.905936601217	0
4	2639	899909.258001147603	1
4	2641	899909.258001147603	0
4	2664	905309.450177620185	1
4	2666	905309.450177620185	0
4	2673	907011.148146526823	1
4	2675	907011.148146526823	0
4	2690	913633.676180486117	1
4	2692	913633.676180486117	0
4	2706	917683.003656332177	1
4	2708	917683.003656332177	0
4	2729	928919.838891609716	1
4	2734	929505.554665599636	0
4	2741	931823.072580173524	1
4	2743	931823.072580173524	0
4	2759	944497.615436737742	1
4	2761	944497.615436737742	0
4	2784	949707.803379992363	1
4	2786	949707.803379992363	0
4	2797	952960.517632559538	1
4	2802	953145.197011406235	0
4	2817	959080.325886701671	1
4	2819	959080.325886701671	0
4	2834	963787.17249187808	1
4	2836	963787.17249187808	0
4	2843	966866.077562539828	1
4	2845	966866.077562539828	0
4	2865	977804.467812684235	1
4	2871	979019.508471693389	0
4	2885	983402.203310012173	1
4	2887	983402.203310012173	0
4	2894	986216.911607051178	1
4	2896	986216.911607051178	0
4	2916	1022936.845089115912	1
4	2918	1022936.845089115912	0
4	2941	1031959.166328626018	1
4	2943	1031959.166328626018	0
4	2966	1037752.766651876103	1
4	2968	1037752.766651876103	0
4	2975	1039594.812312563947	1
4	2977	1039594.812312563947	0
4	2980	1040131.204882405227	1
4	2985	1040203.333751742619	0
4	3000	1044961.516309102979	1
4	3002	1044961.516309102979	0
4	3017	1055275.90845699569	1
4	3019	1055275.90845699569	0
4	3035	1064222.799523477701	1
4	3037	1064222.799523477701	0
4	3052	1073053.160964964873	1
4	3054	1073053.160964964873	0
4	3071	1090868.633510895331	1
4	3073	1090868.633510895331	0
4	3089	1099346.797422400448	1
4	3091	1099346.797422400448	0
4	3122	1106538.82175014296	1
4	3124	1106538.82175014296	0
4	3130	1106967.820400235327	1
4	3132	1106967.820400235327	0
4	3139	1113358.772768701708	1
4	3141	1113358.772768701708	0
4	3156	1121834.466778603163	1
4	3158	1121834.466778603163	0
4	3173	1122725.400164388818	1
4	3175	1122725.400164388818	0
5	450	204000	1
5	451	210000	0
5	460	216000	1
5	501	222000	3
5	518	228000	0
5	535	234000	1
5	536	240000	0
5	569	246000	3
5	631	252000	3
5	651	258000	1
5	652	264000	0
5	669	270000	1
5	678	276000	1
5	722	282000	3
5	760	288000	2
5	790	294000	1
5	802	300000	1
5	803	306000	0
5	852	312000	4
5	885	318000	2
5	910	324000	1
5	951	330000	2
5	960	336000	1
5	969	342000	1
5	991	348000	0
5	1003	354000	1
5	1020	360000	1
5	1021	366000	0
5	1022	372000	0
5	1028	378000	0
5	1045	384000	1
5	1073	390000	2
5	1074	396000	0
5	1088	402000	1
5	1116	408000	2
5	1122	414000	0
5	1147	420000	1
5	1167	426000	2
5	1192	432000	2
5	1209	438000	0
5	1218	444000	1
5	1243	450000	1
5	1276	456000	3
5	1330	462000	3
5	1342	468000	0
5	1343	474000	0
5	1344	480000	0
5	1345	486000	0
5	1354	492000	1
5	1371	498000	1
5	1380	504000	0
5	1397	510000	1
5	1398	516000	0
5	1412	522000	1
5	1432	528000	2
5	1473	534000	3
5	1522	540000	2
5	1547	546000	1
5	1548	552000	0
5	1578	558000	2
5	1638	564000	4
5	1663	570000	1
5	1680	576000	1
5	1689	582000	1
5	1698	588000	0
5	1699	594000	0
5	1700	600000	0
5	1714	606000	1
5	1726	612000	1
5	1764	618000	2
5	1848	624000	5
5	1873	630000	2
5	1882	636000	0
5	1883	642000	0
5	1884	648000	0
5	1901	654000	1
5	1907	660000	0
5	1922	666000	1
5	1984	672000	5
5	2001	678000	0
5	2002	684000	0
5	2019	690000	1
5	2033	696000	1
5	2053	702000	1
5	2078	708000	2
5	2087	714000	0
5	2093	720000	0
5	2105	726000	1
5	2122	732000	1
5	2123	738000	0
5	2124	744000	0
5	2125	750000	0
5	2139	756000	1
5	2151	762000	1
5	2160	768000	0
5	2191	774000	2
5	2282	780000	6
5	2312	786000	1
5	2324	792000	2
5	2333	798000	0
5	2366	804000	2
5	2391	810000	1
5	2392	816000	0
5	2401	822000	1
5	2415	828000	0
5	2464	834000	4
5	2516	840000	4
5	2541	846000	0
5	2542	852000	0
5	2551	858000	1
5	2560	864000	1
5	2577	870000	0
5	2578	876000	0
5	2611	882000	2
5	2628	888000	1
5	2629	894000	0
5	2643	900000	1
5	2668	906000	2
5	2688	912000	1
5	2713	918000	1
5	2722	924000	1
5	2736	930000	1
5	2748	936000	0
5	2754	942000	0
5	2771	948000	1
5	2807	954000	3
5	2824	960000	1
5	2841	966000	1
5	2850	972000	0
5	2867	978000	1
5	2892	984000	2
5	2901	990000	0
5	2902	996000	0
5	2903	1002000	0
5	2904	1008000	0
5	2905	1014000	0
5	2914	1020000	1
5	2931	1026000	1
5	2945	1032000	1
5	2970	1038000	2
5	2998	1044000	1
5	3007	1050000	0
5	3024	1056000	1
5	3033	1062000	1
5	3042	1068000	0
5	3059	1074000	1
5	3060	1080000	0
5	3069	1086000	1
5	3078	1092000	0
5	3084	1098000	0
5	3109	1104000	2
5	3137	1110000	2
5	3146	1116000	0
5	3163	1122000	1
6	450	204000	1
6	451	210000	0
6	460	216000	0
6	501	222000	2
6	518	228000	2
6	535	234000	1
6	536	240000	0
6	569	246000	1
6	631	252000	4
6	651	258000	2
6	652	264000	0
6	669	270000	1
6	678	276000	0
6	722	282000	1
6	760	288000	4
6	790	294000	2
6	802	300000	1
6	803	306000	0
6	852	312000	2
6	885	318000	2
6	910	324000	2
6	951	330000	3
6	960	336000	0
6	969	342000	0
6	991	348000	2
6	1003	354000	1
6	1020	360000	1
6	1021	366000	0
6	1022	372000	0
6	1028	378000	0
6	1045	384000	1
6	1073	390000	2
6	1074	396000	0
6	1088	402000	0
6	1116	408000	2
6	1122	414000	0
6	1147	420000	2
6	1167	426000	1
6	1192	432000	1
6	1209	438000	2
6	1218	444000	0
6	1243	450000	2
6	1276	456000	1
6	1330	462000	3
6	1342	468000	2
6	1343	474000	0
6	1344	480000	0
6	1345	486000	0
6	1354	492000	0
6	1371	498000	1
6	1380	504000	1
6	1397	510000	1
6	1398	516000	0
6	1412	522000	0
6	1432	528000	1
6	1473	534000	2
6	1522	540000	4
6	1547	546000	2
6	1548	552000	0
6	1578	558000	1
6	1638	564000	4
6	1663	570000	2
6	1680	576000	1
6	1689	582000	0
6	1698	588000	1
6	1699	594000	0
6	1700	600000	0
6	1714	606000	0
6	1726	612000	1
6	1764	618000	2
6	1848	624000	6
6	1873	630000	1
6	1882	636000	1
6	1883	642000	0
6	1884	648000	0
6	1901	654000	1
6	1907	660000	0
6	1922	666000	0
6	1984	672000	4
6	2001	678000	2
6	2002	684000	0
6	2019	690000	1
6	2033	696000	0
6	2053	702000	2
6	2078	708000	1
6	2087	714000	1
6	2093	720000	0
6	2105	726000	1
6	2122	732000	1
6	2123	738000	0
6	2124	744000	0
6	2125	750000	0
6	2139	756000	0
6	2151	762000	1
6	2160	768000	1
6	2191	774000	0
6	2282	780000	7
6	2312	786000	2
6	2324	792000	0
6	2333	798000	1
6	2366	804000	2
6	2391	810000	2
6	2392	816000	0
6	2401	822000	0
6	2415	828000	1
6	2464	834000	2
6	2516	840000	3
6	2541	846000	3
6	2542	852000	0
6	2551	858000	0
6	2560	864000	0
6	2577	870000	2
6	2578	876000	0
6	2611	882000	2
6	2628	888000	1
6	2629	894000	0
6	2643	900000	0
6	2668	906000	1
6	2688	912000	2
6	2713	918000	2
6	2722	924000	0
6	2736	930000	0
6	2748	936000	2
6	2754	942000	0
6	2771	948000	1
6	2807	954000	2
6	2824	960000	1
6	2841	966000	1
6	2850	972000	1
6	2867	978000	0
6	2892	984000	2
6	2901	990000	1
6	2902	996000	0
6	2903	1002000	0
6	2904	1008000	0
6	2905	1014000	0
6	2914	1020000	0
6	2931	1026000	1
6	2945	1032000	0
6	2970	1038000	1
6	2998	1044000	3
6	3007	1050000	1
6	3024	1056000	1
6	3033	1062000	0
6	3042	1068000	1
6	3059	1074000	1
6	3060	1080000	0
6	3069	1086000	0
6	3078	1092000	1
6	3084	1098000	0
6	3109	1104000	1
6	3137	1110000	2
6	3146	1116000	1
6	3163	1122000	0
7	442	201992.927616290692	0
7	458	212224.64868554996	1
7	467	216789.008605967857	2
7	469	218175.528137276984	1
7	477	220277.788958662841	0
7	494	221487.48639853498	1
7	499	221758.023813828766	2
7	502	223386.376554294638	1
7	507	223417.956917014059	0
7	525	231578.273297043018	1
7	527	232964.878736535711	0
7	543	243024.467940351029	1
7	554	244462.026027384226	2
7	559	245004.684459138362	3
7	561	245380.028199206351	2
7	576	248363.177248951429	3
7	583	249097.298696722318	2
7	586	249134.028877861324	1
7	593	250403.769413152521	2
7	598	250510.022038804842	3
7	602	250537.631897661122	2
7	605	250983.989408302323	1
7	633	253591.207898278366	2
7	635	253602.918882759549	1
7	643	256860.834033775559	0
7	659	264980.934777075264	1
7	661	265665.363129261648	0
7	676	274203.492400011523	1
7	685	278238.740213269151	2
7	693	278757.893745531578	3
7	695	279151.803848886387	2
7	709	280669.308712141618	3
7	719	281106.955923740393	2
7	724	282085.266026389582	3
7	729	282369.703054066206	4
7	733	282526.02233320935	3
7	736	282599.920547542222	2
7	739	282646.910996252258	1
7	761	288666.958581877966	0
7	775	289996.668919455869	1
7	777	293185.662519931612	0
7	792	295844.205486608301	1
7	794	299330.313454740733	0
7	810	307944.95040019154	1
7	818	309590.762352934661	2
7	826	310897.034417979895	3
7	833	311115.727513991551	2
7	837	311787.323774518027	3
7	844	311880.617752158905	2
7	859	313834.116078671254	3
7	867	315285.784312139772	4
7	869	315702.871249274308	3
7	877	317306.867664176061	2
7	892	319437.492543550106	3
7	894	320243.832152412525	2
7	899	320304.252058060984	1
7	916	325790.354515199168	0
7	920	325836.902344874311	1
7	927	325881.560287913994	0
7	941	327648.982537098275	1
7	943	329190.156171824662	0
7	958	334679.112208103593	1
7	967	339683.355031343211	2
7	970	342994.560662965081	1
7	978	343938.810168471138	0
7	993	348903.09175480495	1
7	995	352251.015703243441	0
7	1010	356012.711733181318	1
7	1012	356550.517035146392	0
7	1030	378863.210587976537	1
7	1032	379213.405666309276	0
7	1047	384887.902649221203	1
7	1049	384900.008984413105	0
7	1063	387245.706408134393	1
7	1065	387404.276740389796	0
7	1084	401299.107927541934	1
7	1093	403019.155491854982	2
7	1098	403593.399374754265	3
7	1100	404315.697253168145	2
7	1108	407040.87292957067	1
7	1124	414553.932338191895	2
7	1126	418074.302328160553	1
7	1134	418324.438123713076	0
7	1149	420068.827995131259	1
7	1151	420399.208252549257	0
7	1165	425356.716248896336	1
7	1168	428149.743857885303	0
7	1185	429914.378055654622	1
7	1190	430179.226522085094	2
7	1193	433793.319798231904	1
7	1201	436264.83558380325	0
7	1216	442828.153042801135	1
7	1225	445034.002599408952	2
7	1227	445279.430680222706	1
7	1235	446450.41561153857	0
7	1250	450366.441526504153	1
7	1252	452245.515488109043	0
7	1269	453897.765680959931	1
7	1274	454218.753342605577	2
7	1286	458179.086926168688	3
7	1291	458243.19649528096	4
7	1299	458907.433569529562	5
7	1301	459485.832808766981	4
7	1306	459526.045591264668	3
7	1317	461653.810268107269	2
7	1325	461814.177319286581	1
7	1334	464069.90715500712	0
7	1352	490450.505651884281	1
7	1360	493732.043373072228	0
7	1364	494350.871653533601	1
7	1372	500165.422470372913	0
7	1387	506834.989438179598	1
7	1389	509674.327757733088	0
7	1405	519112.069026985053	1
7	1414	522187.154736109193	2
7	1422	522996.083356905588	3
7	1424	524863.597967219221	2
7	1438	528149.459789492748	1
7	1442	528297.401255944483	2
7	1455	531144.912927940207	3
7	1457	531212.997043112948	2
7	1471	533880.227416694592	3
7	1474	534341.745146894163	2
7	1482	535031.375860274109	1
7	1496	536056.953683538934	2
7	1498	536708.301668558341	1
7	1512	538444.550544206749	2
7	1514	538790.609341990711	1
7	1529	542683.449592052193	2
7	1531	544836.281865980193	1
7	1539	545239.818235511292	0
7	1555	552491.66372198442	1
7	1557	556123.476922165282	0
7	1571	557922.390692306966	1
7	1580	558142.594612837075	2
7	1590	558353.172244488686	1
7	1594	559236.136708674216	2
7	1599	559326.229936703408	3
7	1606	559505.109370448167	2
7	1615	560464.8608847899	3
7	1622	560873.117905894354	2
7	1630	562901.401714784528	1
7	1644	566839.532063510248	0
7	1648	567617.650765819751	1
7	1655	567843.305160715731	0
7	1670	571886.671700801262	1
7	1672	572066.251299574297	0
7	1687	580029.464707106843	1
7	1690	585127.019006254799	0
7	1707	605489.906726609324	1
7	1716	606318.924593037711	2
7	1718	609480.138714083544	1
7	1727	612528.362049039989	0
7	1741	615956.74879764687	1
7	1743	616077.347253258775	0
7	1757	617237.632301665809	1
7	1769	618608.845333548116	2
7	1773	618633.106542611364	1
7	1777	618909.169702338345	2
7	1784	619334.318413478152	1
7	1798	619895.141029898727	2
7	1806	620421.035593406819	3
7	1814	620989.08958237085	4
7	1816	621640.864269490007	3
7	1821	621741.849564851647	2
7	1832	622713.026201656515	1
7	1837	623449.131745860709	0
7	1855	625450.991022877988	1
7	1863	625712.368141193215	2
7	1865	627037.315403277717	1
7	1874	632729.293386757917	0
7	1891	650340.115477056774	1
7	1893	651334.682143095029	0
7	1912	660582.937739880603	1
7	1919	664757.933562394653	0
7	1927	666176.338783601177	1
7	1932	666265.000868117491	2
7	1937	666348.761251897299	3
7	1941	666670.450321370047	2
7	1944	667601.45848137473	1
7	1960	668936.691019107938	0
7	1977	670769.09779634267	1
7	1982	670937.625197125481	2
7	1985	676322.489483239299	1
7	1993	677435.160500122036	0
7	2009	685003.494167023867	1
7	2011	686601.194096077125	0
7	2026	694435.16393234016	1
7	2028	695737.33992224013	0
7	2043	696107.414033643368	1
7	2045	697565.563542459741	0
7	2060	704579.868303512752	1
7	2062	704724.999172413409	0
7	2076	706619.445919353309	1
7	2079	709009.771636374149	0
7	2095	721002.464269951189	1
7	2097	723065.050049705099	0
7	2112	730432.215085182324	1
7	2114	731682.758914208983	0
7	2132	755841.821312273988	1
7	2134	755886.381860142287	0
7	2149	756708.812188661808	1
7	2152	763490.352982463362	0
7	2167	768762.269230637518	1
7	2178	772955.769922143207	2
7	2192	774232.809923242262	1
7	2196	774237.103143321088	2
7	2201	774282.648344208259	3
7	2206	774558.855633457285	4
7	2210	774943.217051800605	3
7	2214	775013.864416014157	4
7	2218	775067.91194278402	3
7	2234	776906.29487897754	2
7	2248	777265.67375390667	3
7	2256	778461.123525211958	4
7	2258	778826.643079493421	3
7	2263	778860.862702043409	2
7	2271	778909.762259731898	1
7	2283	780052.536092649181	0
7	2297	781554.903280918992	1
7	2299	783028.256195753743	0
7	2314	786302.228874573163	1
7	2322	791371.561367909125	2
7	2325	792829.914254598691	1
7	2340	799556.880755856373	2
7	2347	800088.040046308853	1
7	2351	800353.650263888461	2
7	2358	802593.493131804574	1
7	2372	806485.515110539007	0
7	2376	806601.253594705502	1
7	2383	807172.496790382843	0
7	2399	820719.687618430069	1
7	2402	824582.771027868261	0
7	2420	828911.265046846815	1
7	2425	829159.491424958202	2
7	2432	829955.651602194129	1
7	2439	830700.184586479507	2
7	2444	830760.855361206458	3
7	2451	832687.884581105805	2
7	2466	834513.740528734581	3
7	2468	834756.451402024562	2
7	2476	834852.440907850931	1
7	2481	834954.614134658735	0
7	2498	836257.421440225988	1
7	2506	838834.59697129906	2
7	2514	839681.030495614348	3
7	2517	840369.298656706431	2
7	2525	841507.479492011878	1
7	2533	844117.038417581943	0
7	2549	854472.588660163317	1
7	2558	863722.390481107877	2
7	2561	864009.644038555313	1
7	2569	866512.079922233489	0
7	2585	876317.496118807336	1
7	2587	877179.133811077348	0
7	2601	880401.229367935061	1
7	2603	880699.477703568374	0
7	2618	883401.622595437047	1
7	2620	887725.905936601217	0
7	2636	898913.620848865135	1
7	2638	899909.258001147603	0
7	2653	903321.724824277131	1
7	2661	904276.301676395742	2
7	2663	905309.450177620185	1
7	2672	907011.148146526823	0
7	2686	911844.756872167886	1
7	2689	913633.676180486117	0
7	2703	916133.930168221972	1
7	2705	917683.003656332177	0
7	2720	921254.699124067642	1
7	2728	928919.838891609716	0
7	2732	929505.554665599636	1
7	2740	931823.072580173524	0
7	2756	942512.17525951102	1
7	2758	944497.615436737742	0
7	2773	948048.505033809716	1
7	2781	948932.16533891735	2
7	2783	949707.803379992363	1
7	2796	952960.517632559538	0
7	2800	953145.197011406235	1
7	2814	957279.399128063928	2
7	2816	959080.325886701671	1
7	2831	961063.718541884095	2
7	2833	963787.17249187808	1
7	2842	966866.077562539828	0
7	2860	977788.158501714453	1
7	2864	977804.467812684235	0
7	2869	979019.508471693389	1
7	2882	981700.241873958142	2
7	2884	983402.203310012173	1
7	2893	986216.911607051178	0
7	2912	1018429.39257692081	1
7	2915	1022936.845089115912	0
7	2929	1024384.810749653213	1
7	2938	1031438.24862135887	2
7	2940	1031959.166328626018	1
7	2955	1033936.896717748083	2
7	2963	1037692.034078728149	3
7	2965	1037752.766651876103	2
7	2974	1039594.812312563947	1
7	2979	1040131.204882405227	0
7	2996	1043632.977193626424	1
7	2999	1044961.516309102979	0
7	3014	1054141.829904207495	1
7	3016	1055275.90845699569	0
7	3031	1061039.473526972903	1
7	3034	1064222.799523477701	0
7	3049	1069140.642393112661	1
7	3051	1073053.160964964873	0
7	3067	1082435.999025696381	1
7	3070	1090868.633510895331	0
7	3086	1098436.932871314246	1
7	3088	1099346.797422400448	0
7	3102	1103598.364974794872	1
7	3111	1105892.138438704084	2
7	3119	1105995.571378932064	3
7	3121	1106538.82175014296	2
7	3129	1106967.820400235327	1
7	3138	1113358.772768701708	0
7	3153	1120628.13179361435	1
7	3155	1121834.466778603163	0
7	3170	1122487.380130120271	1
7	3172	1122725.400164388818	0
