version 2
run ParkingMeasurement-85-20170108-17:31:30-5801
attr configname ParkingMeasurement
attr datetime 20170108-17:31:30
attr experiment ParkingMeasurement
attr inifile parkingStudy.ini
attr iterationvars ""
attr iterationvars2 $repetition=85
attr measurement ""
attr network controltower.SimNetwork
attr processid 5801
attr repetition 85
attr replication #85
attr resultdir results
attr runnumber 85
attr seedset 85
param SimNetwork.a.parkingLot.parkingDelay exponential(60min)
param SimNetwork.a.runway.landingTime exponential(15min)
param SimNetwork.a.runway.takeoffTime exponential(5min)
param SimNetwork.a.runway.throughputCheckInterval 100min
param SimNetwork.wg.interArrivalTime exponential(100min)

statistic SimNetwork.wg 	responseTime:stats
field count 142
field mean 11205.287766814
field stddev 7814.5476498895
field sum 1591150.8628877
field sqrsum 26439772150.179
field min 1170.5500636026
field max 52593.789977843
attr source  responseTimeSignal
scalar SimNetwork.a.landingQueue 	queueLength:timeavg 	0.013429278359003
attr source  queueLengthSignal
statistic SimNetwork.a.landingQueue 	queueLength:stats
field count 286
field mean 0.52097902097902
field stddev 0.52104525807443
field sum 149
field sqrsum 155
field min 0
field max 2
attr source  queueLengthSignal
statistic SimNetwork.a.landingQueue 	queueTime:stats
field count 143
field mean 86.030071691377
field stddev 321.10629162089
field sum 12302.300251867
field sqrsum 15699881.346266
field min 0
field max 2545.7635540136
attr source  queueTimeSignal
scalar SimNetwork.a.takeoffQueue 	queueLength:timeavg 	0.037941999225505
attr source  queueLengthSignal
statistic SimNetwork.a.takeoffQueue 	queueLength:stats
field count 284
field mean 0.57042253521127
field stddev 0.58723629310752
field sum 162
field sqrsum 190
field min 0
field max 3
attr source  queueLengthSignal
statistic SimNetwork.a.takeoffQueue 	queueTime:stats
field count 142
field mean 244.33794801084
field stddev 961.71647809324
field sum 34695.988617539
field sqrsum 138888247.0403
field min 0
field max 7745.6185025255
attr source  queueTimeSignal
scalar SimNetwork.a.parkingLot 	parkingOccupancy:timeavg 	0.53351482883243
attr source  parkingOccupancy
statistic SimNetwork.a.parkingLot 	parkingOccupancy:stats
field count 284
field mean 1
field stddev 0.88569311661534
field sum 284
field sqrsum 506
field min 0
field max 4
attr source  parkingOccupancy
