<<<<<<< HEAD
file 50768 1483715176                                           
version 2
run ParkingMeasurement-25-20170106-02:04:10-11475
attr configname ParkingMeasurement
attr datetime 20170106-02:04:10
attr experiment ParkingMeasurement
attr inifile parkingStudy.ini
attr iterationvars ""
attr iterationvars2 $repetition=25
attr measurement ""
attr network SimNetwork
attr processid 11475
attr repetition 25
attr replication #25
attr resultdir results
attr runnumber 25
attr seedset 25
param SimNetwork.a.parkingLot.parkingDelay exponential(60min)
param SimNetwork.a.runway.landingTime exponential(15min)
param SimNetwork.a.runway.takeoffTime exponential(5min)
param SimNetwork.a.runway.throughputCheckInterval 100min
param SimNetwork.wg.interArrivalTime exponential(100min)
vector 2  SimNetwork.a.landingQueue  queueLength:vector  ETV
attr source queueLengthSignal
2	13177 9230 707 3394 202255.688859709434 1122709.497552735397 319 0 3 170 184
vector 1  SimNetwork.a.landingQueue  queueTime:vector  ETV
attr source queueTimeSignal
1	8147 5030 709 3374 202255.688859709434 1120475.308588627439 159 0 3981.9329889389 32677.55481928 78500306.697055
vector 7  SimNetwork.a.parkingLot  parkingOccupancy:vector  ETV
attr source parkingOccupancy
7	41605 9163 712 3388 203228.934917728104 1122363.684528289597 317 0 4 365 687
vector 5  SimNetwork.a.runway  landedThroughput:vector  ETV
attr source landedThroughputSignal
5	36665 2470 714 3387 204000 1122000 154 0 4 159 313
vector 6  SimNetwork.a.runway  tookoffThroughput:vector  ETV
attr source tookoffThroughputSignal
6	39135 2470 714 3387 204000 1122000 154 0 5 157 329
vector 4  SimNetwork.a.takeoffQueue  queueLength:vector  ETV
attr source queueLengthSignal
4	27523 9142 716 3391 207000.306026455184 1122363.684528289597 316 0 2 172 186
vector 3  SimNetwork.a.takeoffQueue  queueTime:vector  ETV
attr source queueTimeSignal
3	22407 5116 718 3391 207000.306026455184 1122363.684528289597 158 0 3850.0852443749 35816.804482642 64781919.488398
vector 0  SimNetwork.wg  responseTime:vector  ETV
attr source responseTimeSignal
0	1431 6716 721 3385 207030.066413996621 1121864.896908455562 157 1431.7256357084 35108.743411997 1750044.0243936 26686246689.566
=======
file 50779 1483893075                                           
version 2
run ParkingMeasurement-25-20170108-17:31:15-5680
attr configname ParkingMeasurement
attr datetime 20170108-17:31:15
attr experiment ParkingMeasurement
attr inifile parkingStudy.ini
attr iterationvars ""
attr iterationvars2 $repetition=25
attr measurement ""
attr network controltower.SimNetwork
attr processid 5680
attr repetition 25
attr replication #25
attr resultdir results
attr runnumber 25
attr seedset 25
param SimNetwork.a.parkingLot.parkingDelay exponential(60min)
param SimNetwork.a.runway.landingTime exponential(15min)
param SimNetwork.a.runway.takeoffTime exponential(5min)
param SimNetwork.a.runway.throughputCheckInterval 100min
param SimNetwork.wg.interArrivalTime exponential(100min)

vector 2  SimNetwork.a.landingQueue  queueLength:vector  ETV
attr source  queueLengthSignal
vector 1  SimNetwork.a.landingQueue  queueTime:vector  ETV
attr source  queueTimeSignal
vector 7  SimNetwork.a.parkingLot  parkingOccupancy:vector  ETV
attr source  parkingOccupancy
vector 5  SimNetwork.a.runway  landedThroughput:vector  ETV
attr source  landedThroughputSignal
vector 6  SimNetwork.a.runway  tookoffThroughput:vector  ETV
attr source  tookoffThroughputSignal
vector 4  SimNetwork.a.takeoffQueue  queueLength:vector  ETV
attr source  queueLengthSignal
vector 3  SimNetwork.a.takeoffQueue  queueTime:vector  ETV
attr source  queueTimeSignal
vector 0  SimNetwork.wg  responseTime:vector  ETV
attr source  responseTimeSignal
0	1442 6716 721 3385 207030.066413996621 1121864.896908455562 157 1431.7256357084 35108.743411997 1750044.0243936 26686246689.566
1	8158 5030 709 3374 202255.688859709434 1120475.308588627439 159 0 3981.9329889389 32677.554819281 78500306.697055
2	13188 9230 707 3394 202255.688859709434 1122709.497552735397 319 0 3 170 184
3	22418 5116 718 3391 207000.306026455184 1122363.684528289597 158 0 3850.0852443749 35816.804482642 64781919.488398
4	27534 9142 716 3391 207000.306026455184 1122363.684528289597 316 0 2 172 186
5	36676 2470 714 3387 204000 1122000 154 0 4 159 313
6	39146 2470 714 3387 204000 1122000 154 0 5 157 329
7	41616 9163 712 3388 203228.934917728104 1122363.684528289597 317 0 4 365 687
>>>>>>> branch 'develop' of git@github.com:enricomeloni/PESC_Control_Tower.git
