version 2
run ParkingMeasurement-49-20170108-17:31:21-5728
attr configname ParkingMeasurement
attr datetime 20170108-17:31:21
attr experiment ParkingMeasurement
attr inifile parkingStudy.ini
attr iterationvars ""
attr iterationvars2 $repetition=49
attr measurement ""
attr network controltower.SimNetwork
attr processid 5728
attr repetition 49
attr replication #49
attr resultdir results
attr runnumber 49
attr seedset 49
param SimNetwork.a.parkingLot.parkingDelay exponential(60min)
param SimNetwork.a.runway.landingTime exponential(15min)
param SimNetwork.a.runway.takeoffTime exponential(5min)
param SimNetwork.a.runway.throughputCheckInterval 100min
param SimNetwork.wg.interArrivalTime exponential(100min)

statistic SimNetwork.wg 	responseTime:stats
field count 163
field mean 10730.764005825
field stddev 6449.6197454543
field sum 1749114.5329494
field sqrsum 25508145639.713
field min 1658.3876853344
field max 33097.899931266
attr source  responseTimeSignal
scalar SimNetwork.a.landingQueue 	queueLength:timeavg 	0.02232870264099
attr source  queueLengthSignal
statistic SimNetwork.a.landingQueue 	queueLength:stats
field count 326
field mean 0.52453987730061
field stddev 0.52419515150986
field sum 171
field sqrsum 179
field min 0
field max 2
attr source  queueLengthSignal
statistic SimNetwork.a.landingQueue 	queueTime:stats
field count 163
field mean 126.12828220144
field stddev 421.76656019787
field sum 20558.909998835
field sqrsum 31410759.072872
field min 0
field max 3327.0539972703
attr source  queueTimeSignal
scalar SimNetwork.a.takeoffQueue 	queueLength:timeavg 	0.0469458482333
attr source  queueLengthSignal
statistic SimNetwork.a.takeoffQueue 	queueLength:stats
field count 326
field mean 0.55521472392638
field stddev 0.57246064015005
field sum 181
field sqrsum 207
field min 0
field max 3
attr source  queueLengthSignal
statistic SimNetwork.a.takeoffQueue 	queueTime:stats
field count 163
field mean 264.16303062318
field stddev 922.68618861903
field sum 43058.573991579
field sqrsum 149293151.43219
field min 0
field max 7469.0270199612
attr source  queueTimeSignal
scalar SimNetwork.a.parkingLot 	parkingOccupancy:timeavg 	0.61469068454622
attr source  parkingOccupancy
statistic SimNetwork.a.parkingLot 	parkingOccupancy:stats
field count 326
field mean 1.1871165644172
field stddev 1.0341639351827
field sum 387
field sqrsum 807
field min 0
field max 5
attr source  parkingOccupancy
