version 2
run ParkingMeasurement-18-20170106-02:04:09-11437
attr configname ParkingMeasurement
attr datetime 20170106-02:04:09
attr experiment ParkingMeasurement
attr inifile parkingStudy.ini
attr iterationvars ""
attr iterationvars2 $repetition=18
attr measurement ""
attr network SimNetwork
attr processid 11437
attr repetition 18
attr replication #18
attr resultdir results
attr runnumber 18
attr seedset 18
param SimNetwork.a.parkingLot.parkingDelay exponential(60min)
param SimNetwork.a.runway.landingTime exponential(15min)
param SimNetwork.a.runway.takeoffTime exponential(5min)
param SimNetwork.a.runway.throughputCheckInterval 100min
param SimNetwork.wg.interArrivalTime exponential(100min)

vector 5  SimNetwork.a.runway  landedThroughput:vector  ETV
attr source  landedThroughputSignal
vector 6  SimNetwork.a.runway  tookoffThroughput:vector  ETV
attr source  tookoffThroughputSignal
vector 2  SimNetwork.a.landingQueue  queueLength:vector  ETV
attr source  queueLengthSignal
vector 1  SimNetwork.a.landingQueue  queueTime:vector  ETV
attr source  queueTimeSignal
vector 7  SimNetwork.a.parkingLot  parkingOccupancy:vector  ETV
attr source  parkingOccupancy
vector 4  SimNetwork.a.takeoffQueue  queueLength:vector  ETV
attr source  queueLengthSignal
vector 3  SimNetwork.a.takeoffQueue  queueTime:vector  ETV
attr source  queueTimeSignal
vector 0  SimNetwork.wg  responseTime:vector  ETV
attr source  responseTimeSignal
0	633	208424.182541631313	3017.9654618973
0	641	209947.465858169199	11008.02860621
0	658	212015.992980555839	5132.1833892158
0	693	232139.094008905233	11018.856252214
0	710	235653.591814194323	24892.847628538
0	718	237574.353649851937	10339.220406052
0	735	244869.317680095755	22078.663416129
0	743	245098.544625685909	10810.771436856
0	769	252695.176121742575	7365.1669079464
0	804	257661.699997529176	15189.521269843
0	816	258109.124851521195	7299.2226091726
0	837	261096.001115030823	7445.0720895794
0	842	261326.663186345645	5758.1698333366
0	851	264059.576437491335	10116.624286192
0	859	264318.269165084956	6565.5053503792
0	875	269692.396235512517	11877.595027359
0	903	291609.348110373	3975.8716201938
0	912	294562.153342397831	26983.749660136
0	929	305874.170060485705	17085.79439154
0	957	327787.716708939938	23911.139501404
0	965	329535.472298927844	5427.4609994957
0	982	331807.343156222756	5112.8790782719
0	999	341052.432636100983	9684.6263868061
0	1034	357222.180309834478	21222.521643295
0	1042	359420.433047105481	6274.3833077569
0	1051	363948.86563250695	16184.840887659
0	1068	368796.557244548625	15540.521212448
0	1086	380882.556702341185	14349.867577027
0	1111	387663.158928271188	4267.5254653782
0	1119	387892.931447535548	13106.670026174
0	1136	391667.77240643426	7362.7453694885
0	1161	397137.273128606748	4726.9043819166
0	1169	400290.188096134216	9072.8746826599
0	1202	406269.319642206688	10544.97854672
0	1214	409641.28331885658	7239.231262289
0	1219	410100.36641416056	7914.0861717228
0	1245	425049.337184146625	9715.3040748616
0	1254	428900.499932321326	24787.647350117
0	1271	434125.539027199164	13078.628759931
0	1314	452016.647907610927	4264.0227523349
0	1322	452105.121983841512	12480.099164697
0	1333	452962.410615444774	10303.78678214
0	1338	452998.6709379632	21683.247546316
0	1356	463143.53559939103	13567.94256059
0	1381	473687.604403691345	14045.153904279
0	1398	477298.697915327031	8538.5150133058
0	1407	482600.091337436539	9617.6136310647
0	1434	500534.43167287375	25458.875313357
0	1443	507904.006634662297	18813.817678887
0	1485	517657.848821738267	8195.76387097
0	1493	520484.996381564265	3933.051970509
0	1501	521390.734661360031	24409.847766426
0	1510	525436.934385435946	11328.168121142
0	1527	532757.865368249524	15691.507238332
0	1548	540549.138309213268	11210.668239051
0	1561	545376.233499886064	7739.9721381042
0	1598	554715.974204180204	14454.007273839
0	1603	555069.178844221511	6740.1027339442
0	1622	557695.652285793972	8341.2709384929
0	1627	557840.572738704467	8962.6574646179
0	1644	562851.634226499243	5922.7133361717
0	1661	565648.097130137965	5171.5466911796
0	1695	576230.194890335456	4601.5984692963
0	1703	577850.744708237835	14024.73092244
0	1720	583112.049732036967	15812.810340131
0	1747	586774.127709075623	7780.9420520082
0	1752	586989.864224095458	2926.8968918397
0	1770	594318.479460424811	19186.342578543
0	1795	602961.199845731443	18160.905683184
0	1839	606838.528015071401	14675.535678794
0	1847	607648.933933881815	5930.4931703931
0	1852	607701.454993179941	3446.1926194226
0	1860	608465.533663805787	8248.9313841226
0	1868	608995.7734343111	5918.9200764344
0	1892	610807.807850042567	5376.6825458522
0	1925	615025.905808223481	3168.6392377354
0	1933	615957.205278543059	3059.5909505142
0	1942	618801.769274827493	9415.3053468864
0	1950	619452.760092449057	14803.457831678
0	1958	622461.051104812356	13268.872353815
0	1975	628147.767833897245	13962.034823877
0	2012	639775.161921891933	12067.494676057
0	2020	639877.085324924983	6237.6067682829
0	2025	640771.097564701109	6376.6052868347
0	2043	649331.091573992311	14017.495916975
0	2060	657482.126244529295	9521.0267052118
0	2077	662576.439762371633	5933.9767109597
0	2111	672405.416046672418	11944.062201312
0	2119	673069.353364818814	6409.1772859652
0	2127	674231.025579122846	3465.7366977268
0	2154	693008.247045495187	3291.2461338142
0	2162	695020.769315632575	24133.3873634
0	2188	706930.382784724031	7253.6214802125
0	2197	708541.771060043782	16626.122471069
0	2221	712888.577802442934	11001.7107996
0	2230	718999.811390320126	8107.6198760079
0	2247	720732.858699072285	8433.3363822265
0	2268	750193.247873948621	30459.358055958
0	2284	753022.648261658211	9927.3099635103
0	2301	758772.917668304562	8141.0399617201
0	2322	788539.551624689608	34547.871606427
0	2338	791588.968478981829	4513.9733570672
0	2364	803432.940178979261	12581.246761368
0	2381	806811.946078986065	7186.3088550999
0	2398	810416.420144641233	13092.483393477
0	2425	814460.826909497883	10672.184363509
0	2433	815247.600056311393	3276.2076743138
0	2441	815312.528579463922	6108.3800998532
0	2463	820879.666741242205	8229.2989264608
0	2472	822147.868221479818	6836.4680869822
0	2497	830767.072634437596	10300.847027539
0	2506	834417.075064260245	6304.4656097061
0	2522	838423.481194534455	8384.0509142202
0	2540	847113.264758618505	11907.768985434
0	2576	855493.383827407248	8040.0779309257
0	2581	855562.499771473844	5464.7212821096
0	2590	859036.947161120925	15233.060257764
0	2606	861904.967408947176	9016.6612586241
0	2625	880463.434285514587	19840.025051442
0	2652	899150.192327497652	22964.340791914
0	2678	906635.208460015841	3116.9521680691
0	2686	907964.688255565808	13421.620680728
0	2703	914307.70981749969	21329.741898861
0	2719	917420.535137126981	13371.418557432
0	2736	923359.644089081505	8480.3208467786
0	2745	924752.891861534145	11232.928358567
0	2762	930084.536355041775	8966.3470646595
0	2790	936869.640812381261	11154.800614438
0	2811	938146.023622611243	5147.4358546347
0	2828	942612.294184965829	5817.9618434516
0	2839	943951.70795452314	5991.3769519131
0	2844	944382.766232941038	14015.684712794
0	2860	946672.891879691676	7281.5941422004
0	2897	955128.735510091741	5392.4439554778
0	2902	955792.000284197693	9502.0634896138
0	2919	962703.014424699827	10406.584355343
0	2955	966777.885299154703	14882.971509959
0	2960	966862.96399555914	7247.8720580294
0	2968	969532.078424279397	6066.1585992451
0	2985	973392.226545124478	10152.046064461
0	2994	983060.2197446194	19387.815480498
0	3012	994110.817767953769	22204.339972949
0	3051	1018532.500128244455	9986.4582522572
0	3056	1018590.114894258722	27680.040471864
0	3082	1029779.44382650445	17910.583280869
0	3091	1032972.09184777564	9681.0968383796
0	3099	1033164.175417425983	21542.542138436
0	3124	1042680.573965546353	5297.6361126138
0	3150	1050311.932394591462	10897.789886079
0	3158	1051173.859562369079	3784.2958169655
0	3166	1053668.752573393759	26565.471354846
0	3184	1063806.765988360736	14544.065322362
0	3203	1081542.330479378507	21161.141086551
0	3220	1091060.5784059543	10766.6008941
0	3256	1112277.129354986136	28304.412342521
0	3264	1114014.908335645641	7327.262870907
0	3281	1117877.119543027754	7777.767797692
1	614	205406.21707973404	0
1	622	206883.809591340017	0
1	647	210760.744185656296	0
1	664	221120.237756691494	0
1	673	222790.654263966322	0
1	681	227235.133243799816	0
1	699	234287.773188830168	0
1	724	242472.17872768647	0
1	748	245330.009213796201	0
1	757	250809.902242348585	0
1	774	253650.92902545144	0
1	788	256015.696088617705	2072.7439373182
1	793	256580.90791575598	1012.4145627469
1	818	258109.124851521195	356.36103681546
1	826	258877.979069417892	1063.177861264
1	864	267578.403682261871	0
1	883	287633.476490179243	0
1	892	288788.3756689459	0
1	918	303876.577207536054	0
1	938	324108.01129943215	0
1	946	326694.46407795087	0
1	971	331367.806249294908	0
1	987	335999.658666539578	0
1	1005	347764.024744848206	0
1	1014	353146.049739348556	0
1	1022	353563.807206980479	307.77117488023
1	1057	366532.689125314116	0
1	1074	374786.26142136199	0
1	1091	383395.63346289296	0
1	1100	384630.274661607497	325.24762466172
1	1125	391217.313413474295	0
1	1141	392410.368746690115	0
1	1149	395724.34109548643	0
1	1175	402186.28024243774	0
1	1183	403504.622546680498	1102.5704901129
1	1191	404868.953364691675	756.10078248747
1	1225	415334.033109285064	0
1	1234	421046.910267268056	0
1	1259	431315.42339164679	0
1	1277	439625.022819144916	0
1	1285	442757.086696691545	98.462863386702
1	1294	447752.625155275985	0
1	1302	449575.593038800631	0
1	1344	459642.450499412341	0
1	1362	468760.182902021201	0
1	1370	472982.477706371838	0
1	1387	475075.556359517014	0
1	1413	489090.188955774932	0
1	1422	496980.886894934422	0
1	1448	509462.084950768308	0
1	1457	514108.766264294016	0
1	1466	516551.944411055269	0
1	1474	517066.358129917582	0
1	1516	529338.470070161888	0
1	1533	537636.261361781852	0
1	1550	540549.138309213268	287.17137887242
1	1567	548329.076110277344	0
1	1575	549022.771656785088	144.85638269857
1	1583	549354.381347301085	0
1	1608	556928.920890327585	0
1	1633	560476.550438958395	0
1	1649	563826.013785797687	0
1	1666	567299.239391905841	0
1	1675	571628.596421039154	0
1	1683	575132.136881881916	0
1	1708	578993.185657067392	0
1	1725	584062.967332255738	0
1	1733	585284.062375785131	483.76821323756
1	1758	592162.992336277374	0
1	1776	600216.60227968315	0
1	1784	601718.440763488736	0
1	1800	603076.853357876749	0
1	1818	606099.589634760253	1844.3272610029
1	1826	606423.715993264755	1774.4137324937
1	1831	606533.052518573289	1101.9272143829
1	1873	609192.17875099763	0
1	1881	609386.463927941098	0
1	1897	611857.266570488074	0
1	1906	612897.614328028812	0
1	1914	614185.733010020379	0
1	1964	627707.667245834709	0
1	1981	633639.478556642113	0
1	1989	634394.492277866359	0
1	2001	638396.990356633313	3083.3946996156
1	2031	647961.099539317504	0
1	2049	656642.463051411914	0
1	2066	660461.353845360753	0
1	2083	666660.176078853609	0
1	2091	670765.288881396047	0
1	2099	671388.712625318516	501.33067308547
1	2134	689717.000911680994	0
1	2143	691915.648588974492	0
1	2168	699676.761304511524	0
1	2176	701907.059479390484	20.19247654802
1	2202	710892.191514312256	0
1	2210	712299.522316845812	0
1	2235	719733.889817990266	0
1	2255	743095.338298147902	0
1	2273	750631.877706584486	0
1	2289	753991.680018262685	0
1	2311	787074.995121914677	0
1	2327	790851.693417611241	0
1	2344	797323.936751164359	0
1	2353	799625.637223886133	0
1	2369	803788.642545988484	0
1	2386	809204.148479610708	0
1	2403	811971.392381997566	0
1	2411	812650.367814781369	0
1	2443	815312.528579463922	1.128444966352
1	2452	820466.225606898898	0
1	2478	828112.609454554112	0
1	2486	830039.430280314223	0
1	2511	835205.495773184673	0
1	2528	843803.886903357069	0
1	2545	847453.305896481514	0
1	2553	850097.77848936424	0
1	2562	852888.306150323026	0
1	2595	860623.409234072158	0
1	2614	876185.85153558337	0
1	2632	892977.967918638414	0
1	2641	894543.067574837979	0
1	2658	903518.256291946715	0
1	2666	904927.213412853828	878.09683315928
1	2692	913519.963502967347	0
1	2708	914879.323242302946	0
1	2725	921118.18929038228	0
1	2750	925714.840197943162	0
1	2767	930367.081520147404	0
1	2775	932998.587767976542	0
1	2792	936869.640812381261	75.308470867044
1	2800	937960.331002610035	0
1	2816	939391.297737491235	0
1	2849	946289.936794583897	0
1	2866	949736.291554613986	0
1	2874	951894.913789195787	0
1	2882	952777.658821065043	481.22875170807
1	2907	959615.091937529708	0
1	2924	963240.180480663666	0
1	2935	963864.109491106775	398.18966607246
1	2943	965312.786059977943	1640.3817958568
1	2973	971906.477795004906	0
1	3001	990910.074422394318	0
1	3020	1008546.041875987234	0
1	3028	1011621.633278989659	0
1	3036	1012170.684796624626	301.82425098868
1	3062	1023290.995009396081	0
1	3071	1027103.281218547269	0
1	3104	1037382.937852932555	0
1	3113	1041713.331462613399	2299.1889541013
1	3130	1047389.563745403577	0
1	3138	1049262.700665998395	0
1	3172	1060381.189392827343	0
1	3192	1080293.977511854111	0
1	3208	1083972.717012465441	0
1	3227	1103018.582454549401	0
1	3236	1106687.645464738651	0
1	3245	1110099.351745335759	0
1	3269	1115398.802078268889	0
1	3286	1121876.046760033905	0
2	612	205406.21707973404	1
2	614	205406.21707973404	0
2	620	206883.809591340017	1
2	622	206883.809591340017	0
2	645	210760.744185656296	1
2	647	210760.744185656296	0
2	662	221120.237756691494	1
2	664	221120.237756691494	0
2	671	222790.654263966322	1
2	673	222790.654263966322	0
2	679	227235.133243799816	1
2	681	227235.133243799816	0
2	697	234287.773188830168	1
2	699	234287.773188830168	0
2	722	242472.17872768647	1
2	724	242472.17872768647	0
2	746	245330.009213796201	1
2	748	245330.009213796201	0
2	755	250809.902242348585	1
2	757	250809.902242348585	0
2	772	253650.92902545144	1
2	774	253650.92902545144	0
2	777	253942.952151299543	1
2	783	255568.493353009085	2
2	788	256015.696088617705	1
2	793	256580.90791575598	0
2	809	257752.76381470574	1
2	812	257814.801208153933	2
2	818	258109.124851521195	1
2	826	258877.979069417892	0
2	862	267578.403682261871	1
2	864	267578.403682261871	0
2	881	287633.476490179243	1
2	883	287633.476490179243	0
2	890	288788.3756689459	1
2	892	288788.3756689459	0
2	916	303876.577207536054	1
2	918	303876.577207536054	0
2	936	324108.01129943215	1
2	938	324108.01129943215	0
2	944	326694.46407795087	1
2	946	326694.46407795087	0
2	969	331367.806249294908	1
2	971	331367.806249294908	0
2	985	335999.658666539578	1
2	987	335999.658666539578	0
2	1003	347764.024744848206	1
2	1005	347764.024744848206	0
2	1012	353146.049739348556	1
2	1014	353146.049739348556	0
2	1017	353256.036032100246	1
2	1022	353563.807206980479	0
2	1055	366532.689125314116	1
2	1057	366532.689125314116	0
2	1072	374786.26142136199	1
2	1074	374786.26142136199	0
2	1089	383395.63346289296	1
2	1091	383395.63346289296	0
2	1095	384305.027036945773	1
2	1100	384630.274661607497	0
2	1123	391217.313413474295	1
2	1125	391217.313413474295	0
2	1139	392410.368746690115	1
2	1141	392410.368746690115	0
2	1147	395724.34109548643	1
2	1149	395724.34109548643	0
2	1173	402186.28024243774	1
2	1175	402186.28024243774	0
2	1178	402402.052056567548	1
2	1183	403504.622546680498	0
2	1186	404112.852582204208	1
2	1191	404868.953364691675	0
2	1223	415334.033109285064	1
2	1225	415334.033109285064	0
2	1232	421046.910267268056	1
2	1234	421046.910267268056	0
2	1257	431315.42339164679	1
2	1259	431315.42339164679	0
2	1275	439625.022819144916	1
2	1277	439625.022819144916	0
2	1280	442658.623833304843	1
2	1285	442757.086696691545	0
2	1292	447752.625155275985	1
2	1294	447752.625155275985	0
2	1300	449575.593038800631	1
2	1302	449575.593038800631	0
2	1342	459642.450499412341	1
2	1344	459642.450499412341	0
2	1360	468760.182902021201	1
2	1362	468760.182902021201	0
2	1368	472982.477706371838	1
2	1370	472982.477706371838	0
2	1385	475075.556359517014	1
2	1387	475075.556359517014	0
2	1411	489090.188955774932	1
2	1413	489090.188955774932	0
2	1420	496980.886894934422	1
2	1422	496980.886894934422	0
2	1446	509462.084950768308	1
2	1448	509462.084950768308	0
2	1455	514108.766264294016	1
2	1457	514108.766264294016	0
2	1464	516551.944411055269	1
2	1466	516551.944411055269	0
2	1472	517066.358129917582	1
2	1474	517066.358129917582	0
2	1514	529338.470070161888	1
2	1516	529338.470070161888	0
2	1531	537636.261361781852	1
2	1533	537636.261361781852	0
2	1545	540261.966930340846	1
2	1550	540549.138309213268	0
2	1565	548329.076110277344	1
2	1567	548329.076110277344	0
2	1570	548877.915274086519	1
2	1575	549022.771656785088	0
2	1581	549354.381347301085	1
2	1583	549354.381347301085	0
2	1606	556928.920890327585	1
2	1608	556928.920890327585	0
2	1631	560476.550438958395	1
2	1633	560476.550438958395	0
2	1647	563826.013785797687	1
2	1649	563826.013785797687	0
2	1664	567299.239391905841	1
2	1666	567299.239391905841	0
2	1673	571628.596421039154	1
2	1675	571628.596421039154	0
2	1681	575132.136881881916	1
2	1683	575132.136881881916	0
2	1706	578993.185657067392	1
2	1708	578993.185657067392	0
2	1723	584062.967332255738	1
2	1725	584062.967332255738	0
2	1728	584800.294162547566	1
2	1733	585284.062375785131	0
2	1756	592162.992336277374	1
2	1758	592162.992336277374	0
2	1774	600216.60227968315	1
2	1776	600216.60227968315	0
2	1782	601718.440763488736	1
2	1784	601718.440763488736	0
2	1798	603076.853357876749	1
2	1800	603076.853357876749	0
2	1803	604255.262373757355	1
2	1806	604649.302260771035	2
2	1812	605431.125304190396	3
2	1818	606099.589634760253	2
2	1826	606423.715993264755	1
2	1831	606533.052518573289	0
2	1871	609192.17875099763	1
2	1873	609192.17875099763	0
2	1879	609386.463927941098	1
2	1881	609386.463927941098	0
2	1895	611857.266570488074	1
2	1897	611857.266570488074	0
2	1904	612897.614328028812	1
2	1906	612897.614328028812	0
2	1912	614185.733010020379	1
2	1914	614185.733010020379	0
2	1962	627707.667245834709	1
2	1964	627707.667245834709	0
2	1979	633639.478556642113	1
2	1981	633639.478556642113	0
2	1987	634394.492277866359	1
2	1989	634394.492277866359	0
2	1992	635313.595657017692	1
2	2001	638396.990356633313	0
2	2029	647961.099539317504	1
2	2031	647961.099539317504	0
2	2047	656642.463051411914	1
2	2049	656642.463051411914	0
2	2064	660461.353845360753	1
2	2066	660461.353845360753	0
2	2081	666660.176078853609	1
2	2083	666660.176078853609	0
2	2089	670765.288881396047	1
2	2091	670765.288881396047	0
2	2094	670887.381952233046	1
2	2099	671388.712625318516	0
2	2132	689717.000911680994	1
2	2134	689717.000911680994	0
2	2141	691915.648588974492	1
2	2143	691915.648588974492	0
2	2166	699676.761304511524	1
2	2168	699676.761304511524	0
2	2171	701886.867002842464	1
2	2176	701907.059479390484	0
2	2200	710892.191514312256	1
2	2202	710892.191514312256	0
2	2208	712299.522316845812	1
2	2210	712299.522316845812	0
2	2233	719733.889817990266	1
2	2235	719733.889817990266	0
2	2253	743095.338298147902	1
2	2255	743095.338298147902	0
2	2271	750631.877706584486	1
2	2273	750631.877706584486	0
2	2287	753991.680018262685	1
2	2289	753991.680018262685	0
2	2309	787074.995121914677	1
2	2311	787074.995121914677	0
2	2325	790851.693417611241	1
2	2327	790851.693417611241	0
2	2342	797323.936751164359	1
2	2344	797323.936751164359	0
2	2351	799625.637223886133	1
2	2353	799625.637223886133	0
2	2367	803788.642545988484	1
2	2369	803788.642545988484	0
2	2384	809204.148479610708	1
2	2386	809204.148479610708	0
2	2401	811971.392381997566	1
2	2403	811971.392381997566	0
2	2409	812650.367814781369	1
2	2411	812650.367814781369	0
2	2438	815311.40013449757	1
2	2443	815312.528579463922	0
2	2450	820466.225606898898	1
2	2452	820466.225606898898	0
2	2476	828112.609454554112	1
2	2478	828112.609454554112	0
2	2484	830039.430280314223	1
2	2486	830039.430280314223	0
2	2509	835205.495773184673	1
2	2511	835205.495773184673	0
2	2526	843803.886903357069	1
2	2528	843803.886903357069	0
2	2543	847453.305896481514	1
2	2545	847453.305896481514	0
2	2551	850097.77848936424	1
2	2553	850097.77848936424	0
2	2560	852888.306150323026	1
2	2562	852888.306150323026	0
2	2593	860623.409234072158	1
2	2595	860623.409234072158	0
2	2612	876185.85153558337	1
2	2614	876185.85153558337	0
2	2630	892977.967918638414	1
2	2632	892977.967918638414	0
2	2639	894543.067574837979	1
2	2641	894543.067574837979	0
2	2656	903518.256291946715	1
2	2658	903518.256291946715	0
2	2661	904049.116579694551	1
2	2666	904927.213412853828	0
2	2690	913519.963502967347	1
2	2692	913519.963502967347	0
2	2706	914879.323242302946	1
2	2708	914879.323242302946	0
2	2723	921118.18929038228	1
2	2725	921118.18929038228	0
2	2748	925714.840197943162	1
2	2750	925714.840197943162	0
2	2765	930367.081520147404	1
2	2767	930367.081520147404	0
2	2773	932998.587767976542	1
2	2775	932998.587767976542	0
2	2787	936794.332341514217	1
2	2792	936869.640812381261	0
2	2798	937960.331002610035	1
2	2800	937960.331002610035	0
2	2814	939391.297737491235	1
2	2816	939391.297737491235	0
2	2847	946289.936794583897	1
2	2849	946289.936794583897	0
2	2864	949736.291554613986	1
2	2866	949736.291554613986	0
2	2872	951894.913789195787	1
2	2874	951894.913789195787	0
2	2877	952296.430069356972	1
2	2882	952777.658821065043	0
2	2905	959615.091937529708	1
2	2907	959615.091937529708	0
2	2922	963240.180480663666	1
2	2924	963240.180480663666	0
2	2927	963465.919825034312	1
2	2930	963672.404264121136	2
2	2935	963864.109491106775	1
2	2943	965312.786059977943	0
2	2971	971906.477795004906	1
2	2973	971906.477795004906	0
2	2999	990910.074422394318	1
2	3001	990910.074422394318	0
2	3018	1008546.041875987234	1
2	3020	1008546.041875987234	0
2	3026	1011621.633278989659	1
2	3028	1011621.633278989659	0
2	3031	1011868.860545635945	1
2	3036	1012170.684796624626	0
2	3060	1023290.995009396081	1
2	3062	1023290.995009396081	0
2	3069	1027103.281218547269	1
2	3071	1027103.281218547269	0
2	3102	1037382.937852932555	1
2	3104	1037382.937852932555	0
2	3108	1039414.142508512109	1
2	3113	1041713.331462613399	0
2	3128	1047389.563745403577	1
2	3130	1047389.563745403577	0
2	3136	1049262.700665998395	1
2	3138	1049262.700665998395	0
2	3170	1060381.189392827343	1
2	3172	1060381.189392827343	0
2	3190	1080293.977511854111	1
2	3192	1080293.977511854111	0
2	3206	1083972.717012465441	1
2	3208	1083972.717012465441	0
2	3225	1103018.582454549401	1
2	3227	1103018.582454549401	0
2	3234	1106687.645464738651	1
2	3236	1106687.645464738651	0
2	3243	1110099.351745335759	1
2	3245	1110099.351745335759	0
2	3267	1115398.802078268889	1
2	3269	1115398.802078268889	0
2	3284	1121876.046760033905	1
2	3286	1121876.046760033905	0
3	630	208214.990876056419	0
3	638	209812.526540125768	0
3	655	211967.936072910145	0
3	690	231841.342355125405	0
3	707	235189.272333693955	0
3	715	237375.536418488264	0
3	732	244666.396129655627	0
3	740	245073.823258614865	0
3	766	252536.219883455484	0
3	801	257204.598474606757	2836.8687911576
3	806	257661.699997529176	858.64942821128
3	834	260254.107754927538	1914.6194093979
3	839	261096.001115030823	1452.8301341712
3	847	263664.827310215227	0
3	856	264124.374929548171	0
3	872	269491.409835205801	0
3	900	291128.802860621939	0
3	909	294258.360370466566	0
3	926	305785.313311078784	0
3	954	327689.750886657483	341.27527165933
3	962	328930.04007959664	0
3	979	331703.246164255563	0
3	996	340853.20810665624	0
3	1031	356918.886339331188	0
3	1039	359331.782101596737	0
3	1048	363296.991691628669	0
3	1065	368645.934495760707	0
3	1083	380690.690372603578	0
3	1108	387458.840691956002	0
3	1116	387731.977170945111	0
3	1133	391655.380151915323	0
3	1158	397056.763203970136	0
3	1166	399962.52344027122	0
3	1199	406221.007852526801	0
3	1208	408386.227662177781	0
3	1216	409641.28331885658	375.26236669377
3	1242	424137.966952723426	0
3	1251	428730.591260867896	0
3	1268	433898.581801231979	0
3	1311	451973.2573472145	0
3	1319	452102.798913851176	0
3	1327	452265.93986270094	0
3	1335	452962.410615444774	620.23813835779
3	1353	462738.128621454868	0
3	1378	473565.559935349654	0
3	1395	477273.285176268095	0
3	1404	480986.699204306245	0
3	1431	500365.686459323866	0
3	1440	507536.777586886261	0
3	1482	517556.569033744424	0
3	1490	518423.303125293276	0
3	1498	521207.510183359692	0
3	1507	525099.480985629249	0
3	1524	532396.338797850954	0
3	1542	540259.582431320315	0
3	1558	544896.971664608721	0
3	1595	554569.854742034585	4179.1200384036
3	1600	554715.974204180204	2121.7349307545
3	1616	557420.443430882923	0
3	1624	557695.652285793972	212.1211949084
3	1641	562735.371222390589	0
3	1658	565585.374119585961	0
3	1692	576154.833422609964	0
3	1700	577625.242014641885	0
3	1717	582902.029557980168	0
3	1741	586560.235571553734	818.39250017094
3	1749	586774.127709075623	130.47332174229
3	1766	593485.388149115239	0
3	1792	602802.04350159795	835.00239347379
3	1836	606793.873098802861	1622.893737203
3	1841	606838.528015071401	563.61019081643
3	1849	607648.933933881815	187.93886339308
3	1857	608458.866883793126	0
3	1865	608797.703572091707	0
3	1889	610787.293745577856	0
3	1922	614849.364646409592	50.901331521298
3	1930	615744.624935386538	0
3	1939	618797.662980229078	0
3	1947	619277.448462785751	0
3	1955	622186.113681412445	0
3	1972	628142.00977646061	0
3	2009	639556.974877632287	2844.3510070807
3	2014	639775.161921891933	880.44560134569
3	2022	639877.085324924983	8.384474930337
3	2040	649070.850811833847	0
3	2057	657020.533929315961	0
3	2074	662342.182433801974	0
3	2108	672377.347450506852	397.53926769075
3	2116	673028.756379355911	0
3	2124	673894.845217367601	0
3	2151	692849.598921697758	0
3	2159	694678.997167790225	0
3	2185	706479.793231759999	0
3	2194	708428.022275506418	0
3	2218	712641.38050007907	272.24442137967
3	2227	718950.649350460632	0
3	2244	720404.128170121558	0
3	2265	750090.073575675071	0
3	2281	752798.288945874746	0
3	2298	758218.297100363429	0
3	2319	788480.28118118899	0
3	2335	791452.364840487963	0
3	2361	803304.433622001403	0
3	2378	806414.441581516689	0
3	2395	810263.892343564247	0
3	2419	813715.994098976581	0
3	2427	814460.826909497883	587.65886523303
3	2435	815247.600056311393	442.09990879258
3	2460	820854.211137610862	0
3	2469	822082.959324385486	0
3	2494	830754.657912966387	191.31821861474
3	2503	834116.575253998746	0
3	2519	838362.134772523931	0
3	2537	847100.954143402177	0
3	2570	854977.340042566721	0
3	2578	855493.383827407248	202.92907779794
3	2587	858400.04607212721	0
3	2603	861785.716943008583	0
3	2622	880280.872189148338	0
3	2649	898978.305118817856	0
3	2675	906598.686751916413	0
3	2683	907841.203965945487	0
3	2700	914273.461833381116	533.81048527531
3	2716	917348.593369803982	48.255555581706
3	2733	923107.291130270297	0
3	2742	924335.269036760296	0
3	2758	929870.124385564483	0
3	2784	936545.307350446243	0
3	2808	938136.143552897976	77.342859716701
3	2825	942522.639554482273	0
3	2833	942771.143402769004	0
3	2841	943951.70795452314	820.96651773043
3	2857	946404.705470210079	0
3	2890	953818.817418979098	0
3	2899	955128.735510091741	67.607593844326
3	2916	962430.33958844816	0
3	2952	966303.832141742491	2277.2996610096
3	2957	966777.885299154703	666.12721828353
3	2965	969484.969421071426	0
3	2982	973140.786337169229	1037.4032898595
3	2991	982881.897732073905	0
3	3009	994006.349448516765	0
3	3048	1018262.751193533646	6024.752692697
3	3053	1018532.500128244455	5906.0058936013
3	3079	1029648.153598767985	0
3	3088	1032514.333436929711	0
3	3096	1033148.935327488462	0
3	3121	1042549.862735053085	0
3	3147	1050283.511672114122	0
3	3155	1050824.115850452541	0
3	3163	1053278.552585234251	0
3	3181	1063619.726916622735	0
3	3200	1081232.424485847351	0
3	3217	1091013.668949759619	0
3	3253	1111904.963161874547	1581.4806058115
3	3261	1113915.076969208521	0
3	3278	1117370.71083834243	0
4	628	208214.990876056419	1
4	630	208214.990876056419	0
4	636	209812.526540125768	1
4	638	209812.526540125768	0
4	653	211967.936072910145	1
4	655	211967.936072910145	0
4	688	231841.342355125405	1
4	690	231841.342355125405	0
4	705	235189.272333693955	1
4	707	235189.272333693955	0
4	713	237375.536418488264	1
4	715	237375.536418488264	0
4	730	244666.396129655627	1
4	732	244666.396129655627	0
4	738	245073.823258614865	1
4	740	245073.823258614865	0
4	764	252536.219883455484	1
4	766	252536.219883455484	0
4	780	254367.729683449204	1
4	796	256803.050569317893	2
4	801	257204.598474606757	1
4	806	257661.699997529176	0
4	821	258339.488345529605	1
4	829	259643.170980859622	2
4	834	260254.107754927538	1
4	839	261096.001115030823	0
4	845	263664.827310215227	1
4	847	263664.827310215227	0
4	854	264124.374929548171	1
4	856	264124.374929548171	0
4	870	269491.409835205801	1
4	872	269491.409835205801	0
4	898	291128.802860621939	1
4	900	291128.802860621939	0
4	907	294258.360370466566	1
4	909	294258.360370466566	0
4	924	305785.313311078784	1
4	926	305785.313311078784	0
4	949	327348.475614998152	1
4	954	327689.750886657483	0
4	960	328930.04007959664	1
4	962	328930.04007959664	0
4	977	331703.246164255563	1
4	979	331703.246164255563	0
4	994	340853.20810665624	1
4	996	340853.20810665624	0
4	1029	356918.886339331188	1
4	1031	356918.886339331188	0
4	1037	359331.782101596737	1
4	1039	359331.782101596737	0
4	1046	363296.991691628669	1
4	1048	363296.991691628669	0
4	1063	368645.934495760707	1
4	1065	368645.934495760707	0
4	1081	380690.690372603578	1
4	1083	380690.690372603578	0
4	1106	387458.840691956002	1
4	1108	387458.840691956002	0
4	1114	387731.977170945111	1
4	1116	387731.977170945111	0
4	1131	391655.380151915323	1
4	1133	391655.380151915323	0
4	1156	397056.763203970136	1
4	1158	397056.763203970136	0
4	1164	399962.52344027122	1
4	1166	399962.52344027122	0
4	1197	406221.007852526801	1
4	1199	406221.007852526801	0
4	1206	408386.227662177781	1
4	1208	408386.227662177781	0
4	1211	409266.020952162813	1
4	1216	409641.28331885658	0
4	1240	424137.966952723426	1
4	1242	424137.966952723426	0
4	1249	428730.591260867896	1
4	1251	428730.591260867896	0
4	1266	433898.581801231979	1
4	1268	433898.581801231979	0
4	1309	451973.2573472145	1
4	1311	451973.2573472145	0
4	1317	452102.798913851176	1
4	1319	452102.798913851176	0
4	1325	452265.93986270094	1
4	1327	452265.93986270094	0
4	1330	452342.172477086981	1
4	1335	452962.410615444774	0
4	1351	462738.128621454868	1
4	1353	462738.128621454868	0
4	1376	473565.559935349654	1
4	1378	473565.559935349654	0
4	1393	477273.285176268095	1
4	1395	477273.285176268095	0
4	1402	480986.699204306245	1
4	1404	480986.699204306245	0
4	1429	500365.686459323866	1
4	1431	500365.686459323866	0
4	1438	507536.777586886261	1
4	1440	507536.777586886261	0
4	1480	517556.569033744424	1
4	1482	517556.569033744424	0
4	1488	518423.303125293276	1
4	1490	518423.303125293276	0
4	1496	521207.510183359692	1
4	1498	521207.510183359692	0
4	1505	525099.480985629249	1
4	1507	525099.480985629249	0
4	1522	532396.338797850954	1
4	1524	532396.338797850954	0
4	1540	540259.582431320315	1
4	1542	540259.582431320315	0
4	1556	544896.971664608721	1
4	1558	544896.971664608721	0
4	1586	550390.734703631033	1
4	1590	552594.23927342572	2
4	1595	554569.854742034585	1
4	1600	554715.974204180204	0
4	1614	557420.443430882923	1
4	1616	557420.443430882923	0
4	1619	557483.531090885568	1
4	1624	557695.652285793972	0
4	1639	562735.371222390589	1
4	1641	562735.371222390589	0
4	1656	565585.374119585961	1
4	1658	565585.374119585961	0
4	1690	576154.833422609964	1
4	1692	576154.833422609964	0
4	1698	577625.242014641885	1
4	1700	577625.242014641885	0
4	1715	582902.029557980168	1
4	1717	582902.029557980168	0
4	1736	585741.843071382796	1
4	1741	586560.235571553734	0
4	1744	586643.65438733333	1
4	1749	586774.127709075623	0
4	1764	593485.388149115239	1
4	1766	593485.388149115239	0
4	1787	601967.041108124155	1
4	1792	602802.04350159795	0
4	1809	605170.979361599888	1
4	1821	606274.917824254969	2
4	1836	606793.873098802861	1
4	1841	606838.528015071401	0
4	1844	607460.995070488739	1
4	1849	607648.933933881815	0
4	1855	608458.866883793126	1
4	1857	608458.866883793126	0
4	1863	608797.703572091707	1
4	1865	608797.703572091707	0
4	1887	610787.293745577856	1
4	1889	610787.293745577856	0
4	1917	614798.463314888294	1
4	1922	614849.364646409592	0
4	1928	615744.624935386538	1
4	1930	615744.624935386538	0
4	1937	618797.662980229078	1
4	1939	618797.662980229078	0
4	1945	619277.448462785751	1
4	1947	619277.448462785751	0
4	1953	622186.113681412445	1
4	1955	622186.113681412445	0
4	1970	628142.00977646061	1
4	1972	628142.00977646061	0
4	1996	636712.623870551597	1
4	2004	638894.716320546244	2
4	2009	639556.974877632287	1
4	2014	639775.161921891933	0
4	2017	639868.700849994646	1
4	2022	639877.085324924983	0
4	2038	649070.850811833847	1
4	2040	649070.850811833847	0
4	2055	657020.533929315961	1
4	2057	657020.533929315961	0
4	2072	662342.182433801974	1
4	2074	662342.182433801974	0
4	2102	671979.808182816104	1
4	2108	672377.347450506852	0
4	2114	673028.756379355911	1
4	2116	673028.756379355911	0
4	2122	673894.845217367601	1
4	2124	673894.845217367601	0
4	2149	692849.598921697758	1
4	2151	692849.598921697758	0
4	2157	694678.997167790225	1
4	2159	694678.997167790225	0
4	2183	706479.793231759999	1
4	2185	706479.793231759999	0
4	2192	708428.022275506418	1
4	2194	708428.022275506418	0
4	2213	712369.136078699395	1
4	2218	712641.38050007907	0
4	2225	718950.649350460632	1
4	2227	718950.649350460632	0
4	2242	720404.128170121558	1
4	2244	720404.128170121558	0
4	2263	750090.073575675071	1
4	2265	750090.073575675071	0
4	2279	752798.288945874746	1
4	2281	752798.288945874746	0
4	2296	758218.297100363429	1
4	2298	758218.297100363429	0
4	2317	788480.28118118899	1
4	2319	788480.28118118899	0
4	2333	791452.364840487963	1
4	2335	791452.364840487963	0
4	2359	803304.433622001403	1
4	2361	803304.433622001403	0
4	2376	806414.441581516689	1
4	2378	806414.441581516689	0
4	2393	810263.892343564247	1
4	2395	810263.892343564247	0
4	2417	813715.994098976581	1
4	2419	813715.994098976581	0
4	2422	813873.16804426485	1
4	2427	814460.826909497883	0
4	2430	814805.500147518814	1
4	2435	815247.600056311393	0
4	2458	820854.211137610862	1
4	2460	820854.211137610862	0
4	2467	822082.959324385486	1
4	2469	822082.959324385486	0
4	2489	830563.339694351646	1
4	2494	830754.657912966387	0
4	2501	834116.575253998746	1
4	2503	834116.575253998746	0
4	2517	838362.134772523931	1
4	2519	838362.134772523931	0
4	2535	847100.954143402177	1
4	2537	847100.954143402177	0
4	2568	854977.340042566721	1
4	2570	854977.340042566721	0
4	2573	855290.454749609309	1
4	2578	855493.383827407248	0
4	2585	858400.04607212721	1
4	2587	858400.04607212721	0
4	2601	861785.716943008583	1
4	2603	861785.716943008583	0
4	2620	880280.872189148338	1
4	2622	880280.872189148338	0
4	2647	898978.305118817856	1
4	2649	898978.305118817856	0
4	2673	906598.686751916413	1
4	2675	906598.686751916413	0
4	2681	907841.203965945487	1
4	2683	907841.203965945487	0
4	2695	913739.651348105806	1
4	2700	914273.461833381116	0
4	2711	917300.337814222276	1
4	2716	917348.593369803982	0
4	2731	923107.291130270297	1
4	2733	923107.291130270297	0
4	2740	924335.269036760296	1
4	2742	924335.269036760296	0
4	2756	929870.124385564483	1
4	2758	929870.124385564483	0
4	2782	936545.307350446243	1
4	2784	936545.307350446243	0
4	2803	938058.800693181275	1
4	2808	938136.143552897976	0
4	2823	942522.639554482273	1
4	2825	942522.639554482273	0
4	2831	942771.143402769004	1
4	2833	942771.143402769004	0
4	2836	943130.741436792708	1
4	2841	943951.70795452314	0
4	2855	946404.705470210079	1
4	2857	946404.705470210079	0
4	2888	953818.817418979098	1
4	2890	953818.817418979098	0
4	2894	955061.127916247415	1
4	2899	955128.735510091741	0
4	2914	962430.33958844816	1
4	2916	962430.33958844816	0
4	2938	964026.532480732932	1
4	2947	966111.758080871169	2
4	2952	966303.832141742491	1
4	2957	966777.885299154703	0
4	2963	969484.969421071426	1
4	2965	969484.969421071426	0
4	2977	972103.383047309687	1
4	2982	973140.786337169229	0
4	2989	982881.897732073905	1
4	2991	982881.897732073905	0
4	3007	994006.349448516765	1
4	3009	994006.349448516765	0
4	3039	1012237.99850083668	1
4	3042	1012626.494234643116	2
4	3048	1018262.751193533646	1
4	3053	1018532.500128244455	0
4	3077	1029648.153598767985	1
4	3079	1029648.153598767985	0
4	3086	1032514.333436929711	1
4	3088	1032514.333436929711	0
4	3094	1033148.935327488462	1
4	3096	1033148.935327488462	0
4	3119	1042549.862735053085	1
4	3121	1042549.862735053085	0
4	3145	1050283.511672114122	1
4	3147	1050283.511672114122	0
4	3153	1050824.115850452541	1
4	3155	1050824.115850452541	0
4	3161	1053278.552585234251	1
4	3163	1053278.552585234251	0
4	3179	1063619.726916622735	1
4	3181	1063619.726916622735	0
4	3198	1081232.424485847351	1
4	3200	1081232.424485847351	0
4	3215	1091013.668949759619	1
4	3217	1091013.668949759619	0
4	3248	1110323.482556063039	1
4	3253	1111904.963161874547	0
4	3259	1113915.076969208521	1
4	3261	1113915.076969208521	0
4	3276	1117370.71083834243	1
4	3278	1117370.71083834243	0
5	610	204000	1
5	643	210000	2
5	660	216000	1
5	666	222000	0
5	683	228000	2
5	695	234000	1
5	720	240000	1
5	753	246000	2
5	762	252000	1
5	814	258000	3
5	849	264000	2
5	877	270000	1
5	878	276000	0
5	879	282000	0
5	885	288000	0
5	905	294000	2
5	914	300000	0
5	931	306000	1
5	932	312000	0
5	933	318000	0
5	934	324000	0
5	967	330000	2
5	989	336000	1
5	1001	342000	1
5	1007	348000	0
5	1027	354000	3
5	1044	360000	0
5	1053	366000	0
5	1070	372000	1
5	1079	378000	1
5	1093	384000	0
5	1121	390000	2
5	1151	396000	2
5	1171	402000	1
5	1204	408000	3
5	1221	414000	0
5	1230	420000	1
5	1247	426000	1
5	1264	432000	1
5	1273	438000	0
5	1287	444000	1
5	1304	450000	2
5	1340	456000	1
5	1349	462000	1
5	1358	468000	0
5	1383	474000	2
5	1400	480000	1
5	1409	486000	0
5	1415	492000	0
5	1427	498000	2
5	1436	504000	0
5	1450	510000	0
5	1462	516000	2
5	1503	522000	2
5	1512	528000	0
5	1529	534000	1
5	1538	540000	1
5	1563	546000	1
5	1588	552000	2
5	1629	558000	2
5	1651	564000	1
5	1671	570000	2
5	1688	576000	2
5	1713	582000	1
5	1754	588000	2
5	1768	594000	1
5	1772	600000	0
5	1814	606000	2
5	1899	612000	6
5	1935	618000	3
5	1960	624000	0
5	1977	630000	1
5	1994	636000	1
5	2027	642000	2
5	2033	648000	0
5	2045	654000	1
5	2062	660000	1
5	2079	666000	1
5	2104	672000	2
5	2129	678000	1
5	2130	684000	0
5	2136	690000	0
5	2164	696000	2
5	2178	702000	1
5	2190	708000	1
5	2223	714000	2
5	2237	720000	0
5	2249	726000	1
5	2250	732000	0
5	2251	738000	0
5	2260	744000	1
5	2261	750000	0
5	2294	756000	2
5	2303	762000	0
5	2304	768000	0
5	2305	774000	0
5	2306	780000	0
5	2307	786000	0
5	2340	792000	2
5	2346	798000	0
5	2371	804000	2
5	2391	810000	2
5	2445	816000	2
5	2465	822000	2
5	2474	828000	0
5	2499	834000	2
5	2524	840000	1
5	2533	846000	1
5	2558	852000	2
5	2583	858000	1
5	2608	864000	1
5	2609	870000	0
5	2610	876000	0
5	2627	882000	1
5	2628	888000	0
5	2637	894000	1
5	2654	900000	1
5	2668	906000	1
5	2688	912000	1
5	2721	918000	2
5	2738	924000	1
5	2760	930000	1
5	2780	936000	2
5	2821	942000	3
5	2862	948000	1
5	2892	954000	3
5	2909	960000	0
5	2945	966000	3
5	2975	972000	1
5	2987	978000	1
5	2996	984000	0
5	2997	990000	0
5	3014	996000	1
5	3015	1002000	0
5	3016	1008000	0
5	3044	1014000	2
5	3058	1020000	1
5	3067	1026000	1
5	3084	1032000	1
5	3106	1038000	0
5	3126	1044000	2
5	3143	1050000	2
5	3168	1056000	0
5	3177	1062000	1
5	3186	1068000	0
5	3187	1074000	0
5	3188	1080000	0
5	3210	1086000	1
5	3222	1092000	1
5	3223	1098000	0
5	3232	1104000	1
5	3241	1110000	1
5	3271	1116000	1
5	3288	1122000	1
6	610	204000	2
6	643	210000	2
6	660	216000	1
6	666	222000	0
6	683	228000	0
6	695	234000	1
6	720	240000	2
6	753	246000	2
6	762	252000	0
6	814	258000	2
6	849	264000	3
6	877	270000	3
6	878	276000	0
6	879	282000	0
6	885	288000	0
6	905	294000	1
6	914	300000	1
6	931	306000	1
6	932	312000	0
6	933	318000	0
6	934	324000	0
6	967	330000	2
6	989	336000	1
6	1001	342000	1
6	1007	348000	0
6	1027	354000	0
6	1044	360000	2
6	1053	366000	1
6	1070	372000	1
6	1079	378000	0
6	1093	384000	1
6	1121	390000	2
6	1151	396000	1
6	1171	402000	2
6	1204	408000	1
6	1221	414000	2
6	1230	420000	0
6	1247	426000	1
6	1264	432000	1
6	1273	438000	1
6	1287	444000	0
6	1304	450000	0
6	1340	456000	4
6	1349	462000	0
6	1358	468000	1
6	1383	474000	1
6	1400	480000	1
6	1409	486000	1
6	1415	492000	0
6	1427	498000	0
6	1436	504000	1
6	1450	510000	1
6	1462	516000	0
6	1503	522000	3
6	1512	528000	1
6	1529	534000	1
6	1538	540000	0
6	1563	546000	2
6	1588	552000	0
6	1629	558000	4
6	1651	564000	1
6	1671	570000	1
6	1688	576000	0
6	1713	582000	2
6	1754	588000	3
6	1768	594000	0
6	1772	600000	1
6	1814	606000	1
6	1899	612000	6
6	1935	618000	2
6	1960	624000	3
6	1977	630000	1
6	1994	636000	0
6	2027	642000	3
6	2033	648000	0
6	2045	654000	1
6	2062	660000	1
6	2079	666000	1
6	2104	672000	0
6	2129	678000	3
6	2130	684000	0
6	2136	690000	0
6	2164	696000	2
6	2178	702000	0
6	2190	708000	1
6	2223	714000	2
6	2237	720000	1
6	2249	726000	1
6	2250	732000	0
6	2251	738000	0
6	2260	744000	0
6	2261	750000	0
6	2294	756000	2
6	2303	762000	1
6	2304	768000	0
6	2305	774000	0
6	2306	780000	0
6	2307	786000	0
6	2340	792000	2
6	2346	798000	0
6	2371	804000	1
6	2391	810000	1
6	2445	816000	4
6	2465	822000	1
6	2474	828000	1
6	2499	834000	1
6	2524	840000	2
6	2533	846000	0
6	2558	852000	1
6	2583	858000	2
6	2608	864000	2
6	2609	870000	0
6	2610	876000	0
6	2627	882000	1
6	2628	888000	0
6	2637	894000	0
6	2654	900000	1
6	2668	906000	0
6	2688	912000	2
6	2721	918000	2
6	2738	924000	1
6	2760	930000	1
6	2780	936000	1
6	2821	942000	2
6	2862	948000	4
6	2892	954000	0
6	2909	960000	2
6	2945	966000	1
6	2975	972000	3
6	2987	978000	1
6	2996	984000	1
6	2997	990000	0
6	3014	996000	1
6	3015	1002000	0
6	3016	1008000	0
6	3044	1014000	0
6	3058	1020000	2
6	3067	1026000	0
6	3084	1032000	1
6	3106	1038000	2
6	3126	1044000	1
6	3143	1050000	0
6	3168	1056000	3
6	3177	1062000	0
6	3186	1068000	1
6	3187	1074000	0
6	3188	1080000	0
6	3210	1086000	1
6	3222	1092000	1
6	3223	1098000	0
6	3232	1104000	0
6	3241	1110000	0
6	3271	1116000	2
6	3288	1122000	1
7	617	205894.526724354667	1
7	625	207690.259705594595	2
7	627	208214.990876056419	1
7	635	209812.526540125768	0
7	650	211116.035431383242	1
7	652	211967.936072910145	0
7	668	222550.405385868611	1
7	676	223755.879122801795	2
7	685	228658.842534773367	3
7	687	231841.342355125405	2
7	702	234350.310764594244	3
7	704	235189.272333693955	2
7	712	237375.536418488264	1
7	727	242784.031486138911	2
7	729	244666.396129655627	1
7	737	245073.823258614865	0
7	751	245479.900960731064	1
7	760	250978.452636103635	2
7	763	252536.219883455484	1
7	779	254367.729683449204	0
7	786	256015.696088617705	1
7	791	256580.90791575598	2
7	795	256803.050569317893	1
7	799	257204.598474606757	2
7	820	258339.488345529605	1
7	824	258877.979069417892	2
7	828	259643.170980859622	1
7	832	260254.107754927538	2
7	844	263664.827310215227	1
7	853	264124.374929548171	0
7	867	268516.558356978539	1
7	869	269491.409835205801	0
7	887	288331.071985995938	1
7	895	288940.036245884114	2
7	897	291128.802860621939	1
7	906	294258.360370466566	0
7	921	304708.830031796466	1
7	923	305785.313311078784	0
7	941	325389.341269771941	1
7	948	327348.475614998152	0
7	952	327689.750886657483	1
7	959	328930.04007959664	0
7	974	331378.352015097028	1
7	976	331703.246164255563	0
7	991	340049.016686884501	1
7	993	340853.20810665624	0
7	1009	348553.431838357258	1
7	1020	353563.807206980479	2
7	1025	353680.207795457073	3
7	1028	356918.886339331188	2
7	1036	359331.782101596737	1
7	1045	363296.991691628669	0
7	1060	366679.725136341637	1
7	1062	368645.934495760707	0
7	1077	375502.76507766736	1
7	1080	380690.690372603578	0
7	1098	384630.274661607497	1
7	1103	384670.083993351842	2
7	1105	387458.840691956002	1
7	1113	387731.977170945111	0
7	1128	391492.565465901569	1
7	1130	391655.380151915323	0
7	1144	393933.846056460028	1
7	1153	396055.232195768287	2
7	1155	397056.763203970136	1
7	1163	399962.52344027122	0
7	1181	403504.622546680498	1
7	1189	404868.953364691675	2
7	1194	405224.574713611124	3
7	1196	406221.007852526801	2
7	1205	408386.227662177781	1
7	1210	409266.020952162813	0
7	1228	417255.358369921346	1
7	1237	421647.695197940222	2
7	1239	424137.966952723426	1
7	1248	428730.591260867896	0
7	1262	431672.943994473551	1
7	1265	433898.581801231979	0
7	1283	442757.086696691545	1
7	1289	444670.524384475442	2
7	1297	448126.060335375681	3
7	1306	450252.434906305674	4
7	1308	451973.2573472145	3
7	1316	452102.798913851176	2
7	1324	452265.93986270094	1
7	1329	452342.172477086981	0
7	1347	460701.813687965991	1
7	1350	462738.128621454868	0
7	1365	469208.783419706235	1
7	1373	473562.833302242006	2
7	1375	473565.559935349654	1
7	1390	475756.110588488655	2
7	1392	477273.285176268095	1
7	1401	480986.699204306245	0
7	1417	492728.092832146268	1
7	1425	497059.985353723653	2
7	1428	500365.686459323866	1
7	1437	507536.777586886261	0
7	1452	511190.340115029654	1
7	1460	514942.917232311573	2
7	1469	516984.167835137001	3
7	1477	517226.228650246586	4
7	1479	517556.569033744424	3
7	1487	518423.303125293276	2
7	1495	521207.510183359692	1
7	1504	525099.480985629249	0
7	1519	531840.577934340244	1
7	1521	532396.338797850954	0
7	1536	538381.393766332092	1
7	1539	540259.582431320315	0
7	1553	540586.76925113939	1
7	1555	544896.971664608721	0
7	1573	549022.771656785088	1
7	1578	549146.683282874546	2
7	1585	550390.734703631033	1
7	1589	552594.23927342572	0
7	1593	554569.854742034585	1
7	1611	556932.201019986485	2
7	1613	557420.443430882923	1
7	1618	557483.531090885568	0
7	1636	562689.238668858606	1
7	1638	562735.371222390589	0
7	1653	564425.83718801701	1
7	1655	565585.374119585961	0
7	1669	567603.862529696719	1
7	1678	572234.797707879076	2
7	1686	575220.644601634932	3
7	1689	576154.833422609964	2
7	1697	577625.242014641885	1
7	1711	580667.451780203359	2
7	1714	582902.029557980168	1
7	1731	585284.062375785131	2
7	1735	585741.843071382796	1
7	1739	586560.235571553734	2
7	1743	586643.65438733333	1
7	1761	592415.607959061475	2
7	1763	593485.388149115239	1
7	1779	601608.853246975092	2
7	1786	601967.041108124155	1
7	1790	602802.04350159795	2
7	1808	605170.979361599888	1
7	1816	606099.589634760253	2
7	1820	606274.917824254969	1
7	1824	606423.715993264755	2
7	1829	606533.052518573289	3
7	1834	606793.873098802861	4
7	1843	607460.995070488739	3
7	1854	608458.866883793126	2
7	1862	608797.703572091707	1
7	1876	609321.065516120296	2
7	1884	610568.674712220597	3
7	1886	610787.293745577856	2
7	1901	612200.699186385474	3
7	1909	613545.429019481912	4
7	1916	614798.463314888294	3
7	1920	614849.364646409592	4
7	1927	615744.624935386538	3
7	1936	618797.662980229078	2
7	1944	619277.448462785751	1
7	1952	622186.113681412445	0
7	1967	628116.17316741698	1
7	1969	628142.00977646061	0
7	1984	633648.13873699978	1
7	1995	636712.623870551597	0
7	1999	638396.990356633313	1
7	2003	638894.716320546244	0
7	2007	639556.974877632287	1
7	2016	639868.700849994646	0
7	2035	648189.35123365393	1
7	2037	649070.850811833847	0
7	2052	656713.934134160447	1
7	2054	657020.533929315961	0
7	2069	661073.685082876984	1
7	2071	662342.182433801974	0
7	2086	667838.477094360258	1
7	2097	671388.712625318516	2
7	2101	671979.808182816104	1
7	2106	672377.347450506852	2
7	2113	673028.756379355911	1
7	2121	673894.845217367601	0
7	2138	691011.425616676842	1
7	2146	692051.907618791371	2
7	2148	692849.598921697758	1
7	2156	694678.997167790225	0
7	2174	701907.059479390484	1
7	2180	703482.960618460397	2
7	2182	706479.793231759999	1
7	2191	708428.022275506418	0
7	2205	711245.70224901993	1
7	2212	712369.136078699395	0
7	2216	712641.38050007907	1
7	2224	718950.649350460632	0
7	2239	720032.104348685057	1
7	2241	720404.128170121558	0
7	2258	743498.523474643205	1
7	2262	750090.073575675071	0
7	2276	752505.688380197001	1
7	2278	752798.288945874746	0
7	2292	755043.737813353921	1
7	2295	758218.297100363429	0
7	2314	787329.485244112368	1
7	2316	788480.28118118899	0
7	2330	791107.82341916517	1
7	2332	791452.364840487963	0
7	2348	799386.504446738456	1
7	2356	799836.195724681585	2
7	2358	803304.433622001403	1
7	2373	805530.341850510362	2
7	2375	806414.441581516689	1
7	2389	809326.928966599742	2
7	2392	810263.892343564247	1
7	2406	811994.295875165934	2
7	2414	813581.69410564206	3
7	2416	813715.994098976581	2
7	2421	813873.16804426485	1
7	2429	814805.500147518814	0
7	2447	816305.940070699616	1
7	2455	820825.183411501222	2
7	2457	820854.211137610862	1
7	2466	822082.959324385486	0
7	2481	828762.664557136257	1
7	2488	830563.339694351646	0
7	2492	830754.657912966387	1
7	2500	834116.575253998746	0
7	2514	836876.672311558023	1
7	2516	838362.134772523931	0
7	2531	844541.888276084644	1
7	2534	847100.954143402177	0
7	2548	847991.126860528334	1
7	2556	850530.50435729627	2
7	2565	853590.63771453445	3
7	2567	854977.340042566721	2
7	2572	855290.454749609309	1
7	2584	858400.04607212721	0
7	2598	860743.396811194653	1
7	2600	861785.716943008583	0
7	2617	877267.84240566478	1
7	2619	880280.872189148338	0
7	2635	893306.666063332182	1
7	2644	895095.645053651838	2
7	2646	898978.305118817856	1
7	2664	904927.213412853828	2
7	2670	906134.802742632158	3
7	2672	906598.686751916413	2
7	2680	907841.203965945487	1
7	2694	913739.651348105806	0
7	2698	914273.461833381116	1
7	2710	917300.337814222276	0
7	2714	917348.593369803982	1
7	2728	923022.137332042847	2
7	2730	923107.291130270297	1
7	2739	924335.269036760296	0
7	2753	926043.140876434642	1
7	2755	929870.124385564483	0
7	2770	931838.308973385273	1
7	2778	933747.735690414684	2
7	2781	936545.307350446243	1
7	2795	937245.485998367834	2
7	2802	938058.800693181275	1
7	2806	938136.143552897976	2
7	2819	939785.038151110033	3
7	2822	942522.639554482273	2
7	2830	942771.143402769004	1
7	2835	943130.741436792708	0
7	2852	946297.68071460027	1
7	2854	946404.705470210079	0
7	2869	950565.22467400295	1
7	2880	952777.658821065043	2
7	2885	953531.793899821446	3
7	2887	953818.817418979098	2
7	2893	955061.127916247415	1
7	2911	960256.700282581892	2
7	2913	962430.33958844816	1
7	2933	963864.109491106775	2
7	2937	964026.532480732932	1
7	2941	965312.786059977943	2
7	2946	966111.758080871169	1
7	2950	966303.832141742491	2
7	2962	969484.969421071426	1
7	2976	972103.383047309687	0
7	2980	973140.786337169229	1
7	2988	982881.897732073905	0
7	3004	991446.234366477827	1
7	3006	994006.349448516765	0
7	3023	1008553.876887198127	1
7	3034	1012170.684796624626	2
7	3038	1012237.99850083668	1
7	3041	1012626.494234643116	0
7	3046	1018262.751193533646	1
7	3065	1024038.330982244799	2
7	3074	1027700.624000559105	3
7	3076	1029648.153598767985	2
7	3085	1032514.333436929711	1
7	3093	1033148.935327488462	0
7	3111	1041713.331462613399	1
7	3116	1041934.76662203975	2
7	3118	1042549.862735053085	1
7	3133	1048752.725745636121	2
7	3141	1049999.845785625483	3
7	3144	1050283.511672114122	2
7	3152	1050824.115850452541	1
7	3160	1053278.552585234251	0
7	3175	1060391.821955953167	1
7	3178	1063619.726916622735	0
7	3195	1080621.16901650506	1
7	3197	1081232.424485847351	0
7	3212	1088068.25601894788	1
7	3214	1091013.668949759619	0
7	3230	1103898.671919520633	1
7	3239	1108374.685233920707	2
7	3247	1110323.482556063039	1
7	3251	1111904.963161874547	2
7	3258	1113915.076969208521	1
7	3273	1116282.235219046824	2
7	3275	1117370.71083834243	1
