version 2
run ParkingMeasurement-49-20170108-17:31:21-5728
attr configname ParkingMeasurement
attr datetime 20170108-17:31:21
attr experiment ParkingMeasurement
attr inifile parkingStudy.ini
attr iterationvars ""
attr iterationvars2 $repetition=49
attr measurement ""
attr network controltower.SimNetwork
attr processid 5728
attr repetition 49
attr replication #49
attr resultdir results
attr runnumber 49
attr seedset 49
param SimNetwork.a.parkingLot.parkingDelay exponential(60min)
param SimNetwork.a.runway.landingTime exponential(15min)
param SimNetwork.a.runway.takeoffTime exponential(5min)
param SimNetwork.a.runway.throughputCheckInterval 100min
param SimNetwork.wg.interArrivalTime exponential(100min)

vector 2  SimNetwork.a.landingQueue  queueLength:vector  ETV
attr source  queueLengthSignal
vector 1  SimNetwork.a.landingQueue  queueTime:vector  ETV
attr source  queueTimeSignal
vector 7  SimNetwork.a.parkingLot  parkingOccupancy:vector  ETV
attr source  parkingOccupancy
vector 5  SimNetwork.a.runway  landedThroughput:vector  ETV
attr source  landedThroughputSignal
vector 6  SimNetwork.a.runway  tookoffThroughput:vector  ETV
attr source  tookoffThroughputSignal
vector 4  SimNetwork.a.takeoffQueue  queueLength:vector  ETV
attr source  queueLengthSignal
vector 3  SimNetwork.a.takeoffQueue  queueTime:vector  ETV
attr source  queueTimeSignal
vector 0  SimNetwork.wg  responseTime:vector  ETV
attr source  responseTimeSignal
0	465	206031.917758498324	8357.9337117535
0	483	220339.994247685576	17879.113281603
0	509	232355.046862515139	17143.429481723
0	518	236337.786779558514	6717.7631641684
0	551	245041.512550236657	15150.68198068
0	560	250421.343409169483	9179.0612198713
0	585	257793.454633331221	13465.630705316
0	594	258748.106064865525	6557.7399291993
0	602	261015.348519892531	22120.648378264
0	622	266995.257398494084	10366.514900548
0	636	271143.009352136776	6440.2330847905
0	654	283686.120808808042	16759.244663846
0	672	296364.716808634084	15168.936845414
0	688	297937.884803448267	3922.7969296124
0	705	305527.487187630249	8320.5883496397
0	722	307220.917732095375	5329.572574896
0	738	311433.69426680119	4733.6685641331
0	756	322651.517571811868	12613.664783847
0	774	332022.107859229616	13051.112853749
0	791	341826.175865947478	12040.783664198
0	817	350404.137379189719	15170.782962722
0	825	353080.039453479759	8157.5901568444
0	842	355609.102786546171	6947.8644658377
0	858	359484.325407600689	4276.7736445705
0	885	373081.190059002518	16183.05000088
0	893	375124.848000784299	8276.440945592
0	918	379754.728787637797	7109.0254899237
0	926	381693.197008708362	6149.5046360601
0	944	392049.253431439142	13754.041558011
0	963	410771.402437352225	23556.106573527
0	992	420751.405939210187	15549.72535679
0	997	421000.520086601603	6336.1861773047
0	1022	429738.655165248667	11465.201476063
0	1030	431233.300048562591	3387.764751996
0	1064	442373.126123858435	4824.3089209419
0	1072	442529.130383925677	14532.087503356
0	1089	448199.07690850664	14781.969295573
0	1098	454498.252988056284	15699.221542291
0	1115	458911.693334776987	11294.681286171
0	1142	474321.4522449633	4010.2065819056
0	1158	476875.549226511478	18774.232139016
0	1166	478925.297514154826	5574.0961456393
0	1185	495509.608058158832	19749.204250676
0	1207	510343.217410478891	22055.723619979
0	1229	521105.686569685334	10891.247145022
0	1254	527385.123315138729	8311.1522534398
0	1271	530797.262830183229	21427.9466462
0	1279	531029.351733405737	9347.4577231645
0	1288	535326.488162268814	9398.5773646534
0	1322	549878.788660130161	3510.2550081779
0	1331	554638.442571377197	24804.502436031
0	1364	559098.625876196271	2752.0175378425
0	1375	560161.106512629952	2928.5190904695
0	1380	560361.944249437714	15586.147275564
0	1405	564469.227780814905	6840.5809248441
0	1421	566970.008124063306	5810.2169620825
0	1437	567445.41343211742	19361.317848725
0	1445	567722.834067136615	1658.3876853344
0	1454	571460.777420056251	7297.5298325537
0	1488	584065.392290360285	17047.329643693
0	1502	585914.98111154082	6260.6343472771
0	1524	590374.871512921054	9932.5148480431
0	1529	591170.49137932771	9855.3168964091
0	1545	593610.687217022143	8324.8558276632
0	1562	599198.003969574088	7695.8774770712
0	1571	600571.37180331925	15113.84498053
0	1588	611255.838359410984	16420.875553753
0	1605	615899.514735176083	7651.8755377439
0	1623	626052.559945529628	12207.895070132
0	1639	629319.811289338542	5288.1718171177
0	1664	634344.377558138209	7355.7758631528
0	1684	637334.783941577762	5870.0275931157
0	1708	639960.465897411584	4203.1494028855
0	1713	640778.152716864282	3551.8955847715
0	1722	642410.658995807778	9529.8995880661
0	1752	661535.006376865325	23279.40827049
0	1757	661830.235604299009	5812.7028926019
0	1773	664181.077949596175	4745.3161432665
0	1791	673942.35590420161	11656.807981296
0	1831	686329.860402022087	3165.821706016
0	1844	687273.534336933124	18268.098288857
0	1849	687440.253811004902	4768.9887946949
0	1857	688563.230061064188	5216.3022687076
0	1877	709413.83881272808	23272.119895637
0	1914	723503.23361350421	3015.3182975337
0	1919	723874.937195865831	18476.608919141
0	1955	730677.718504426431	5450.517166104
0	1960	730961.136962271506	10094.368283157
0	1969	732923.070289464969	8033.2777376419
0	1985	737821.317590910429	9210.7990661727
0	1994	739483.339099323552	17577.845685988
0	2011	746617.798926083182	12294.461741558
0	2072	770745.999141837526	29069.03321608
0	2077	770972.172918545828	9597.4810720738
0	2082	771209.40138139874	9649.158775183
0	2087	771237.249343147169	8882.2665808258
0	2095	773226.775115563355	8681.4124380246
0	2120	776920.164133534902	3675.6898384312
0	2137	781268.162500302696	12634.047163463
0	2145	783835.210814969464	9158.0522350539
0	2162	789019.985580429391	9644.8961342709
0	2195	794692.978448138239	2416.6303257945
0	2207	802427.763374675497	17844.906690593
0	2212	803672.872867845861	14637.497949755
0	2254	813530.125499647336	2071.6126886109
0	2270	815500.910614182997	22309.92464633
0	2282	816997.592462213436	6086.5109390255
0	2287	817887.541514381171	7249.6503773997
0	2295	821587.880287909394	9989.8336981841
0	2312	823735.551889883379	9502.4183932943
0	2328	826686.138141267432	4904.47694473
0	2345	828346.563799968067	2980.8133251405
0	2372	851348.937375324572	23807.804665938
0	2381	852121.912999365073	2894.5415622029
0	2406	861250.906122103287	6720.5228129522
0	2414	863037.400282926782	12570.571725628
0	2431	869005.98004879589	9737.8229194147
0	2461	884931.22378993848	17988.064273274
0	2474	886859.475880521698	15563.357145821
0	2482	887903.703530139419	8830.4565079257
0	2502	908222.284194407372	23510.154844574
0	2527	914111.841964454935	3452.5485408115
0	2536	918599.257467259268	17454.943773215
0	2562	932453.364991030979	5712.736176748
0	2570	934753.146811059065	22242.524394409
0	2587	937585.922761753876	7658.826859223
0	2604	943480.036406744434	8522.4570234901
0	2621	948734.767172817102	6784.3301855146
0	2637	952683.093669301254	5223.196620589
0	2657	976457.903168899889	26589.623721839
0	2682	983314.117318699181	6737.3399843642
0	2691	985012.87837748213	10108.390064635
0	2708	992946.907055166212	14772.689794938
0	2745	1003669.824557062196	14436.119194222
0	2775	1008456.144855587881	5597.6008093607
0	2802	1011008.576591035832	4379.5403723369
0	2810	1011377.789999614736	9338.7549764662
0	2815	1011481.414054759126	6946.8442725752
0	2823	1013228.766828690107	9571.6827805955
0	2835	1015029.011105195708	5624.2193532842
0	2848	1016838.191271437785	7293.6979195847
0	2875	1032422.465027503953	4977.7300611687
0	2899	1034072.915964263287	2983.1327537146
0	2913	1035377.738065002924	20399.817243285
0	2918	1035400.439347474051	33097.899931266
0	2923	1035426.773236178698	2782.838985875
0	2941	1049490.004403481546	16737.868301096
0	2958	1055428.746374648745	7755.7798215979
0	2992	1065048.1622175063	8392.4040420176
0	3000	1066351.798570057964	6956.1913822806
0	3009	1071913.459196899776	19917.889291139
0	3034	1077845.809895664379	4076.1669002831
0	3063	1087270.420638523414	26684.959555703
0	3068	1087427.142002101776	11240.137307131
0	3101	1092911.071440959963	9589.1338199306
0	3117	1093826.0824442709	2325.9856070973
0	3125	1094524.844290464892	11003.075803371
0	3133	1095703.903476825918	2960.5894363919
0	3142	1098852.68821016427	8517.5874234726
0	3168	1113514.820508618548	20570.527220668
0	3193	1117377.379332675475	6288.4110205466
0	3201	1119021.500407377712	5190.2779486378
0	3209	1120123.848426003955	12098.984931253
1	453	202460.880966082976	0
1	471	215211.617380792342	0
1	490	229620.023615390092	0
1	498	231221.302785354101	1330.4722157979
1	523	238894.700141628392	0
1	532	241270.828637199115	28.546447900967
1	540	244327.823928015378	0
1	566	252190.366135666196	0
1	574	256628.742497945646	0
1	608	264702.776267346256	0
1	624	266995.257398494084	68.381253531804
1	642	281195.779963220404	0
1	661	294015.087873835872	0
1	677	297206.898837990509	0
1	694	301891.345157199421	0
1	711	306700.025702668117	0
1	727	310037.852787964842	0
1	745	318970.995005480316	0
1	762	329785.39220174917	0
1	779	335233.354416468084	0
1	797	344922.449296635368	0
1	806	348661.238320708425	0
1	831	355207.551763030201	0
1	847	356898.140058122893	0
1	865	366848.407055192321	0
1	874	372645.703297714139	0
1	898	375543.69237264831	0
1	907	378295.211873428267	0
1	932	387215.295863824977	0
1	951	405201.680582420297	0
1	969	414664.333909296925	0
1	977	418273.453689185881	0
1	1003	427845.535296566543	0
1	1011	428222.066369959196	225.02348938962
1	1036	433417.107612933678	0
1	1044	437548.817202916505	0
1	1053	438799.031445765126	0
1	1078	447617.01204860596	0
1	1104	458101.3170874952	0
1	1122	470311.245663057682	0
1	1130	473351.201368515544	0
1	1147	475760.40380748269	0
1	1173	488287.493790499842	0
1	1192	509369.31618398307	0
1	1209	510343.217410478891	128.77798581532
1	1218	519073.971061698925	0
1	1234	521681.894010241258	0
1	1243	525927.910797615418	0
1	1260	529833.94013534635	0
1	1294	544775.796973873418	0
1	1303	546368.53365195224	0
1	1311	548084.095583392532	0
1	1336	556346.608338353756	0
1	1347	557638.112148976035	405.52472681562
1	1352	557743.266705915851	114.61984994502
1	1385	561159.791161980807	0
1	1394	564163.247587502585	0
1	1410	566064.446381802185	0
1	1426	567018.062646667081	0
1	1460	579654.346764263671	0
1	1468	580657.243987858764	214.88732298084
1	1476	581315.174482918626	0
1	1504	585914.98111154082	629.14972218187
1	1509	586919.201050769479	1461.6742279805
1	1534	591502.126492502927	0
1	1551	594834.962805657639	0
1	1577	608247.639197432155	0
1	1594	613844.664875397439	0
1	1612	624031.639472220887	0
1	1628	626988.60169498537	0
1	1645	631464.75634846205	0
1	1653	632880.759407741721	0
1	1669	635757.316494526122	0
1	1686	637334.783941577762	108.52680948498
1	1694	638255.598106375657	0
1	1729	656017.532711697125	0
1	1737	659435.761806329688	0
1	1762	662285.547922905873	0
1	1779	669005.436048075775	0
1	1797	682671.265016310023	0
1	1805	683164.038696006057	0
1	1814	684107.574584654526	760.64679229795
1	1833	686329.860402022087	188.14148493128
1	1865	705398.328276724898	0
1	1884	720487.915315970464	0
1	1892	720866.768679114506	0
1	1900	721905.493413335581	0
1	1924	724889.792551823075	0
1	1932	725765.213673253329	538.01233493094
1	1941	728610.518524737714	0
1	1974	734323.33718452568	0
1	1999	741676.965925757076	0
1	2018	761374.691846472072	0
1	2026	761569.183596765059	8.940990549365
1	2038	762599.766048692561	244.78328637121
1	2049	766122.957981403172	1577.5953038644
1	2061	768786.31310049071	152.19776365083
1	2100	773244.474295103653	0
1	2109	774677.158579915555	0
1	2125	779375.089446158463	0
1	2150	784582.856684082303	0
1	2167	789035.374918091232	0
1	2176	792276.348122343723	0
1	2184	793190.985967852949	0
1	2219	810637.891136981455	0
1	2227	811259.121341394192	348.03981820627
1	2238	812076.16997925835	617.65716822193
1	2243	812795.098764206378	1197.0521744811
1	2259	814233.133496589105	0
1	2300	821781.661196537383	0
1	2317	825365.750474827552	0
1	2333	827541.132709386514	0
1	2353	849227.371437162126	0
1	2361	850466.828557299043	0
1	2386	854530.383309151109	0
1	2395	859268.157129381197	0
1	2420	866943.159516664523	0
1	2437	871296.118734700363	0
1	2446	879073.247022213691	0
1	2463	884931.22378993848	219.09444010545
1	2490	901144.313694044461	0
1	2507	910659.293423643443	0
1	2516	912510.622416650252	0
1	2542	926740.628814282984	0
1	2550	929927.095902530876	0
1	2575	934957.579383254356	0
1	2592	941950.436987302464	0
1	2609	947459.89704871223	0
1	2626	949868.279447061332	0
1	2646	974904.48831284674	0
1	2662	976576.777334334933	0
1	2671	978174.217260228149	0
1	2696	989233.705362840659	0
1	2715	1002039.035023148511	0
1	2723	1002302.539416208389	0
1	2734	1003037.949187029385	179.40514080222
1	2747	1003669.824557062196	12.740508967604
1	2755	1004695.142975849362	160.57319366547
1	2763	1006629.03621869894	0
1	2780	1009404.791751911535	0
1	2788	1010333.907353559451	789.41400170638
1	2837	1015029.011105195708	51.090283477753
1	2855	1027444.734966335243	0
1	2863	1031089.783210548651	0
1	2880	1032643.934250303746	0
1	2888	1033116.728399732072	364.59229734686
1	2930	1047672.966553050817	0
1	2947	1051995.569905760648	0
1	2964	1056655.758175488696	0
1	2976	1062722.661185047668	3327.0539972703
1	2981	1062744.26810476638	2158.8070219461
1	3014	1073769.642995381308	0
1	3023	1076187.004694970553	0
1	3040	1083321.937621029383	0
1	3051	1085470.185764739214	1948.4172776456
1	3073	1090335.100786691658	0
1	3081	1091500.096837173622	0
1	3090	1092743.314040433992	0
1	3106	1092944.293287950687	0
1	3148	1108024.863494751051	0
1	3157	1112088.038978700787	999.07066657191
1	3173	1113831.222458739944	0
1	3182	1116433.447173163196	0
2	451	202460.880966082976	1
2	453	202460.880966082976	0
2	469	215211.617380792342	1
2	471	215211.617380792342	0
2	488	229620.023615390092	1
2	490	229620.023615390092	0
2	493	229890.830569556248	1
2	498	231221.302785354101	0
2	521	238894.700141628392	1
2	523	238894.700141628392	0
2	527	241242.282189298148	1
2	532	241270.828637199115	0
2	538	244327.823928015378	1
2	540	244327.823928015378	0
2	564	252190.366135666196	1
2	566	252190.366135666196	0
2	572	256628.742497945646	1
2	574	256628.742497945646	0
2	606	264702.776267346256	1
2	608	264702.776267346256	0
2	619	266926.87614496228	1
2	624	266995.257398494084	0
2	640	281195.779963220404	1
2	642	281195.779963220404	0
2	659	294015.087873835872	1
2	661	294015.087873835872	0
2	675	297206.898837990509	1
2	677	297206.898837990509	0
2	692	301891.345157199421	1
2	694	301891.345157199421	0
2	709	306700.025702668117	1
2	711	306700.025702668117	0
2	725	310037.852787964842	1
2	727	310037.852787964842	0
2	743	318970.995005480316	1
2	745	318970.995005480316	0
2	760	329785.39220174917	1
2	762	329785.39220174917	0
2	777	335233.354416468084	1
2	779	335233.354416468084	0
2	795	344922.449296635368	1
2	797	344922.449296635368	0
2	804	348661.238320708425	1
2	806	348661.238320708425	0
2	829	355207.551763030201	1
2	831	355207.551763030201	0
2	845	356898.140058122893	1
2	847	356898.140058122893	0
2	863	366848.407055192321	1
2	865	366848.407055192321	0
2	872	372645.703297714139	1
2	874	372645.703297714139	0
2	896	375543.69237264831	1
2	898	375543.69237264831	0
2	905	378295.211873428267	1
2	907	378295.211873428267	0
2	930	387215.295863824977	1
2	932	387215.295863824977	0
2	949	405201.680582420297	1
2	951	405201.680582420297	0
2	967	414664.333909296925	1
2	969	414664.333909296925	0
2	975	418273.453689185881	1
2	977	418273.453689185881	0
2	1001	427845.535296566543	1
2	1003	427845.535296566543	0
2	1006	427997.042880569572	1
2	1011	428222.066369959196	0
2	1034	433417.107612933678	1
2	1036	433417.107612933678	0
2	1042	437548.817202916505	1
2	1044	437548.817202916505	0
2	1051	438799.031445765126	1
2	1053	438799.031445765126	0
2	1076	447617.01204860596	1
2	1078	447617.01204860596	0
2	1102	458101.3170874952	1
2	1104	458101.3170874952	0
2	1120	470311.245663057682	1
2	1122	470311.245663057682	0
2	1128	473351.201368515544	1
2	1130	473351.201368515544	0
2	1145	475760.40380748269	1
2	1147	475760.40380748269	0
2	1171	488287.493790499842	1
2	1173	488287.493790499842	0
2	1190	509369.31618398307	1
2	1192	509369.31618398307	0
2	1204	510214.439424663569	1
2	1209	510343.217410478891	0
2	1216	519073.971061698925	1
2	1218	519073.971061698925	0
2	1232	521681.894010241258	1
2	1234	521681.894010241258	0
2	1241	525927.910797615418	1
2	1243	525927.910797615418	0
2	1258	529833.94013534635	1
2	1260	529833.94013534635	0
2	1292	544775.796973873418	1
2	1294	544775.796973873418	0
2	1301	546368.53365195224	1
2	1303	546368.53365195224	0
2	1309	548084.095583392532	1
2	1311	548084.095583392532	0
2	1334	556346.608338353756	1
2	1336	556346.608338353756	0
2	1339	557232.587422160414	1
2	1342	557628.646855970828	2
2	1347	557638.112148976035	1
2	1352	557743.266705915851	0
2	1383	561159.791161980807	1
2	1385	561159.791161980807	0
2	1392	564163.247587502585	1
2	1394	564163.247587502585	0
2	1408	566064.446381802185	1
2	1410	566064.446381802185	0
2	1424	567018.062646667081	1
2	1426	567018.062646667081	0
2	1458	579654.346764263671	1
2	1460	579654.346764263671	0
2	1463	580442.356664877927	1
2	1468	580657.243987858764	0
2	1474	581315.174482918626	1
2	1476	581315.174482918626	0
2	1496	585285.831389358951	1
2	1499	585457.526822789019	2
2	1504	585914.98111154082	1
2	1509	586919.201050769479	0
2	1532	591502.126492502927	1
2	1534	591502.126492502927	0
2	1549	594834.962805657639	1
2	1551	594834.962805657639	0
2	1575	608247.639197432155	1
2	1577	608247.639197432155	0
2	1592	613844.664875397439	1
2	1594	613844.664875397439	0
2	1610	624031.639472220887	1
2	1612	624031.639472220887	0
2	1626	626988.60169498537	1
2	1628	626988.60169498537	0
2	1643	631464.75634846205	1
2	1645	631464.75634846205	0
2	1651	632880.759407741721	1
2	1653	632880.759407741721	0
2	1667	635757.316494526122	1
2	1669	635757.316494526122	0
2	1681	637226.257132092779	1
2	1686	637334.783941577762	0
2	1692	638255.598106375657	1
2	1694	638255.598106375657	0
2	1727	656017.532711697125	1
2	1729	656017.532711697125	0
2	1735	659435.761806329688	1
2	1737	659435.761806329688	0
2	1760	662285.547922905873	1
2	1762	662285.547922905873	0
2	1777	669005.436048075775	1
2	1779	669005.436048075775	0
2	1795	682671.265016310023	1
2	1797	682671.265016310023	0
2	1803	683164.038696006057	1
2	1805	683164.038696006057	0
2	1808	683346.927792356574	1
2	1814	684107.574584654526	0
2	1828	686141.718917090806	1
2	1833	686329.860402022087	0
2	1863	705398.328276724898	1
2	1865	705398.328276724898	0
2	1882	720487.915315970464	1
2	1884	720487.915315970464	0
2	1890	720866.768679114506	1
2	1892	720866.768679114506	0
2	1898	721905.493413335581	1
2	1900	721905.493413335581	0
2	1922	724889.792551823075	1
2	1924	724889.792551823075	0
2	1927	725227.20133832239	1
2	1932	725765.213673253329	0
2	1939	728610.518524737714	1
2	1941	728610.518524737714	0
2	1972	734323.33718452568	1
2	1974	734323.33718452568	0
2	1997	741676.965925757076	1
2	1999	741676.965925757076	0
2	2016	761374.691846472072	1
2	2018	761374.691846472072	0
2	2021	761560.242606215694	1
2	2026	761569.183596765059	0
2	2033	762354.982762321356	1
2	2038	762599.766048692561	0
2	2044	764545.362677538791	1
2	2049	766122.957981403172	0
2	2056	768634.115336839885	1
2	2061	768786.31310049071	0
2	2098	773244.474295103653	1
2	2100	773244.474295103653	0
2	2107	774677.158579915555	1
2	2109	774677.158579915555	0
2	2123	779375.089446158463	1
2	2125	779375.089446158463	0
2	2148	784582.856684082303	1
2	2150	784582.856684082303	0
2	2165	789035.374918091232	1
2	2167	789035.374918091232	0
2	2174	792276.348122343723	1
2	2176	792276.348122343723	0
2	2182	793190.985967852949	1
2	2184	793190.985967852949	0
2	2217	810637.891136981455	1
2	2219	810637.891136981455	0
2	2222	810911.081523187922	1
2	2227	811259.121341394192	0
2	2230	811458.51281103642	1
2	2233	811598.046589725258	2
2	2238	812076.16997925835	1
2	2243	812795.098764206378	0
2	2257	814233.133496589105	1
2	2259	814233.133496589105	0
2	2298	821781.661196537383	1
2	2300	821781.661196537383	0
2	2315	825365.750474827552	1
2	2317	825365.750474827552	0
2	2331	827541.132709386514	1
2	2333	827541.132709386514	0
2	2351	849227.371437162126	1
2	2353	849227.371437162126	0
2	2359	850466.828557299043	1
2	2361	850466.828557299043	0
2	2384	854530.383309151109	1
2	2386	854530.383309151109	0
2	2393	859268.157129381197	1
2	2395	859268.157129381197	0
2	2418	866943.159516664523	1
2	2420	866943.159516664523	0
2	2435	871296.118734700363	1
2	2437	871296.118734700363	0
2	2444	879073.247022213691	1
2	2446	879073.247022213691	0
2	2458	884712.129349833025	1
2	2463	884931.22378993848	0
2	2488	901144.313694044461	1
2	2490	901144.313694044461	0
2	2505	910659.293423643443	1
2	2507	910659.293423643443	0
2	2514	912510.622416650252	1
2	2516	912510.622416650252	0
2	2540	926740.628814282984	1
2	2542	926740.628814282984	0
2	2548	929927.095902530876	1
2	2550	929927.095902530876	0
2	2573	934957.579383254356	1
2	2575	934957.579383254356	0
2	2590	941950.436987302464	1
2	2592	941950.436987302464	0
2	2607	947459.89704871223	1
2	2609	947459.89704871223	0
2	2624	949868.279447061332	1
2	2626	949868.279447061332	0
2	2644	974904.48831284674	1
2	2646	974904.48831284674	0
2	2660	976576.777334334933	1
2	2662	976576.777334334933	0
2	2669	978174.217260228149	1
2	2671	978174.217260228149	0
2	2694	989233.705362840659	1
2	2696	989233.705362840659	0
2	2713	1002039.035023148511	1
2	2715	1002039.035023148511	0
2	2721	1002302.539416208389	1
2	2723	1002302.539416208389	0
2	2729	1002858.544046227166	1
2	2734	1003037.949187029385	0
2	2742	1003657.084048094592	1
2	2747	1003669.824557062196	0
2	2750	1004534.569782183888	1
2	2755	1004695.142975849362	0
2	2761	1006629.03621869894	1
2	2763	1006629.03621869894	0
2	2778	1009404.791751911535	1
2	2780	1009404.791751911535	0
2	2783	1009544.493351853071	1
2	2788	1010333.907353559451	0
2	2832	1014977.920821717955	1
2	2837	1015029.011105195708	0
2	2853	1027444.734966335243	1
2	2855	1027444.734966335243	0
2	2861	1031089.783210548651	1
2	2863	1031089.783210548651	0
2	2878	1032643.934250303746	1
2	2880	1032643.934250303746	0
2	2883	1032752.136102385213	1
2	2888	1033116.728399732072	0
2	2928	1047672.966553050817	1
2	2930	1047672.966553050817	0
2	2945	1051995.569905760648	1
2	2947	1051995.569905760648	0
2	2962	1056655.758175488696	1
2	2964	1056655.758175488696	0
2	2967	1059395.607187777391	1
2	2970	1060585.461082820268	2
2	2976	1062722.661185047668	1
2	2981	1062744.26810476638	0
2	3012	1073769.642995381308	1
2	3014	1073769.642995381308	0
2	3021	1076187.004694970553	1
2	3023	1076187.004694970553	0
2	3038	1083321.937621029383	1
2	3040	1083321.937621029383	0
2	3043	1083521.768487093582	1
2	3051	1085470.185764739214	0
2	3071	1090335.100786691658	1
2	3073	1090335.100786691658	0
2	3079	1091500.096837173622	1
2	3081	1091500.096837173622	0
2	3088	1092743.314040433992	1
2	3090	1092743.314040433992	0
2	3104	1092944.293287950687	1
2	3106	1092944.293287950687	0
2	3146	1108024.863494751051	1
2	3148	1108024.863494751051	0
2	3152	1111088.96831212888	1
2	3157	1112088.038978700787	0
2	3171	1113831.222458739944	1
2	3173	1113831.222458739944	0
2	3180	1116433.447173163196	1
2	3182	1116433.447173163196	0
3	462	206003.365750324632	0
3	480	220051.939699483981	0
3	506	232133.695657218121	875.60227560945
3	515	236293.559720025132	0
3	548	244770.86645335685	0
3	557	249772.190212132182	0
3	582	257518.04980574626	422.00981235559
3	591	258254.83611948032	0
3	599	259964.380936663219	0
3	616	266666.534664206233	0
3	633	271122.595023023359	0
3	651	283313.393457278726	0
3	669	296138.024156695863	0
3	685	297448.506900216701	0
3	702	304749.41923586433	0
3	719	307133.952463753865	0
3	735	311411.297357695026	0
3	753	322563.533684705343	0
3	771	331808.63524813553	0
3	788	341583.158571898561	0
3	814	350375.06253571285	1109.1095857055
3	822	352800.105544263261	0
3	839	355465.15551189278	0
3	855	359126.095154347112	0
3	882	373050.388686323405	0
3	890	374510.128029487392	0
3	915	379602.736850578516	0
3	923	381113.811567812121	0
3	941	391250.348628407056	0
3	960	410611.508645120769	0
3	986	420433.178346357056	1594.7535400206
3	994	420751.405939210187	103.77440352913
3	1019	429594.898066186969	0
3	1027	431074.845554296473	0
3	1061	442068.522903817955	0
3	1069	442495.775171058714	0
3	1086	448168.685947884492	27.795622201999
3	1095	454198.783087086036	0
3	1112	458891.865082285376	0
3	1139	474150.752558321211	0
3	1155	476759.228640981782	511.49938614797
3	1163	478880.259739582806	0
3	1182	495395.690073916798	0
3	1200	509455.382702089078	0
3	1226	521014.862477266088	0
3	1251	527107.589190076478	0
3	1268	530723.20275705264	267.85166649603
3	1276	531025.578059500808	0
3	1285	535150.137488381103	0
3	1319	549599.459329058893	0
3	1328	554141.600675311359	0
3	1361	558969.888754867998	98.511170860726
3	1369	559424.832457356398	0
3	1377	560161.106512629952	272.55223339139
3	1402	564437.360443502174	0
3	1418	566928.072001287067	345.77007685852
3	1434	567359.099327505558	321.92496009845
3	1442	567521.631650266583	0
3	1451	571460.592535217277	0
3	1485	582440.781681542937	0
3	1493	585189.28684679164	0
3	1518	589730.452940912892	0
3	1526	590374.871512921054	454.01225523599
3	1542	593609.479740896072	1643.12012023
3	1559	598446.615075553376	0
3	1567	599714.335618441478	0
3	1585	610233.241606958892	0
3	1602	615811.49795490015	0
3	1620	625624.976602909901	0
3	1636	629086.203658451061	0
3	1661	634097.194917018959	1023.3054725594
3	1678	637089.567394430894	367.04746586752
3	1702	639368.743374023882	966.23240488208
3	1710	639960.465897411584	74.238900896794
3	1719	642205.207974868112	0
3	1746	661153.899032279949	1048.4047721987
3	1754	661535.006376865325	320.7604095226
3	1770	662901.368999417948	0
3	1788	673914.188250855677	0
3	1822	685722.14866763838	0
3	1841	687269.068592610123	1133.9486050786
3	1846	687273.534336933124	13.323236670792
3	1854	688378.011965538806	0
3	1874	709308.04282162795	0
3	1908	723300.914993743481	759.69369241469
3	1916	723503.23361350421	89.521061331087
3	1949	730038.958547977163	0
3	1957	730677.718504426431	143.12705409918
3	1966	732274.705480314484	0
3	1982	737238.028334230969	0
3	1991	739082.213722728893	0
3	2008	746139.333002168421	0
3	2066	769382.176519708405	7469.0270199612
3	2074	770745.999141837526	7261.6870304241
3	2079	770972.172918545828	3928.7440041883
3	2084	771209.40138139874	1446.5795732375
3	2092	771906.170656410615	0
3	2117	776749.836847784255	0
3	2134	780899.118765820884	0
3	2142	783770.872366527944	0
3	2159	788989.885986084026	0
3	2192	794362.35717512198	0
3	2201	801443.185388723019	0
3	2209	802427.763374675497	204.22353859722
3	2251	813513.8416548867	0
3	2267	815353.991298513019	954.16975969587
3	2276	816098.255025810959	0
3	2284	816997.592462213436	109.8620735313
3	2292	821157.206519949307	0
3	2309	823389.2108293447	0
3	2325	826626.737858347977	0
3	2342	828331.045679883981	0
3	2369	851334.958069468649	0
3	2377	851922.223434602753	0
3	2403	861146.259653449264	0
3	2411	862634.456814316769	0
3	2428	868956.983306091242	0
3	2455	883783.496331648557	0
3	2471	886857.842677784985	1367.7872924359
3	2479	886954.878768518859	0
3	2499	907969.49975018542	0
3	2524	913895.068742343369	0
3	2533	918404.172558425733	0
3	2559	931711.697336050007	0
3	2567	934653.461935315933	0
3	2584	937527.250819459668	0
3	2601	943320.92217968254	0
3	2618	948364.247095085687	0
3	2634	952165.444703867308	0
3	2654	976187.634877608035	0
3	2679	982388.310295801859	0
3	2688	984683.057964366594	0
3	2705	992281.226748299828	0
3	2739	1003339.918948738591	511.36885768451
3	2772	1008350.592827991462	0
3	2799	1010660.494502909723	92.072504920933
3	2804	1011008.576591035832	367.96833110903
3	2812	1011377.789999614736	16.503579229344
3	2820	1012958.060854678795	0
3	2829	1014319.349407632578	0
3	2845	1016496.525106672394	0
3	2871	1031778.814449858078	0
3	2896	1033581.222352053322	339.89881556713
3	2904	1034264.912321338822	0
3	2915	1035377.738065002924	1034.6636826285
3	2920	1035400.439347474051	855.69221802843
3	2938	1049426.897919016098	0
3	2955	1055335.606238942825	0
3	2989	1064170.183912757515	0
3	2997	1066301.441714984721	0
3	3006	1071863.553119459582	0
3	3031	1077203.279004418133	0
3	3060	1086745.57794671959	1602.6774480961
3	3065	1087270.420638523414	1421.695360635
3	3098	1092889.095192530677	86.062717345817
3	3114	1093157.732968223938	0
3	3122	1094520.124589244273	0
3	3130	1095691.327933892888	0
3	3139	1098852.547293346536	0
3	3165	1113182.494034530986	0
3	3190	1117339.998910120944	0
3	3198	1118333.956280728412	0
3	3206	1120084.088388331149	0
4	460	206003.365750324632	1
4	462	206003.365750324632	0
4	478	220051.939699483981	1
4	480	220051.939699483981	0
4	501	231258.093381608668	1
4	506	232133.695657218121	0
4	513	236293.559720025132	1
4	515	236293.559720025132	0
4	546	244770.86645335685	1
4	548	244770.86645335685	0
4	555	249772.190212132182	1
4	557	249772.190212132182	0
4	577	257096.039993390668	1
4	582	257518.04980574626	0
4	589	258254.83611948032	1
4	591	258254.83611948032	0
4	597	259964.380936663219	1
4	599	259964.380936663219	0
4	614	266666.534664206233	1
4	616	266666.534664206233	0
4	631	271122.595023023359	1
4	633	271122.595023023359	0
4	649	283313.393457278726	1
4	651	283313.393457278726	0
4	667	296138.024156695863	1
4	669	296138.024156695863	0
4	683	297448.506900216701	1
4	685	297448.506900216701	0
4	700	304749.41923586433	1
4	702	304749.41923586433	0
4	717	307133.952463753865	1
4	719	307133.952463753865	0
4	733	311411.297357695026	1
4	735	311411.297357695026	0
4	751	322563.533684705343	1
4	753	322563.533684705343	0
4	769	331808.63524813553	1
4	771	331808.63524813553	0
4	786	341583.158571898561	1
4	788	341583.158571898561	0
4	809	349265.952950007357	1
4	814	350375.06253571285	0
4	820	352800.105544263261	1
4	822	352800.105544263261	0
4	837	355465.15551189278	1
4	839	355465.15551189278	0
4	853	359126.095154347112	1
4	855	359126.095154347112	0
4	880	373050.388686323405	1
4	882	373050.388686323405	0
4	888	374510.128029487392	1
4	890	374510.128029487392	0
4	913	379602.736850578516	1
4	915	379602.736850578516	0
4	921	381113.811567812121	1
4	923	381113.811567812121	0
4	939	391250.348628407056	1
4	941	391250.348628407056	0
4	958	410611.508645120769	1
4	960	410611.508645120769	0
4	980	418838.424806336461	1
4	986	420433.178346357056	0
4	989	420647.631535681058	1
4	994	420751.405939210187	0
4	1017	429594.898066186969	1
4	1019	429594.898066186969	0
4	1025	431074.845554296473	1
4	1027	431074.845554296473	0
4	1059	442068.522903817955	1
4	1061	442068.522903817955	0
4	1067	442495.775171058714	1
4	1069	442495.775171058714	0
4	1081	448140.890325682493	1
4	1086	448168.685947884492	0
4	1093	454198.783087086036	1
4	1095	454198.783087086036	0
4	1110	458891.865082285376	1
4	1112	458891.865082285376	0
4	1137	474150.752558321211	1
4	1139	474150.752558321211	0
4	1150	476247.729254833815	1
4	1155	476759.228640981782	0
4	1161	478880.259739582806	1
4	1163	478880.259739582806	0
4	1180	495395.690073916798	1
4	1182	495395.690073916798	0
4	1198	509455.382702089078	1
4	1200	509455.382702089078	0
4	1224	521014.862477266088	1
4	1226	521014.862477266088	0
4	1249	527107.589190076478	1
4	1251	527107.589190076478	0
4	1263	530455.351090556608	1
4	1268	530723.20275705264	0
4	1274	531025.578059500808	1
4	1276	531025.578059500808	0
4	1283	535150.137488381103	1
4	1285	535150.137488381103	0
4	1317	549599.459329058893	1
4	1319	549599.459329058893	0
4	1326	554141.600675311359	1
4	1328	554141.600675311359	0
4	1356	558871.377584007272	1
4	1361	558969.888754867998	0
4	1367	559424.832457356398	1
4	1369	559424.832457356398	0
4	1372	559888.554279238564	1
4	1377	560161.106512629952	0
4	1400	564437.360443502174	1
4	1402	564437.360443502174	0
4	1413	566582.301924428542	1
4	1418	566928.072001287067	0
4	1429	567037.174367407109	1
4	1434	567359.099327505558	0
4	1440	567521.631650266583	1
4	1442	567521.631650266583	0
4	1449	571460.592535217277	1
4	1451	571460.592535217277	0
4	1483	582440.781681542937	1
4	1485	582440.781681542937	0
4	1491	585189.28684679164	1
4	1493	585189.28684679164	0
4	1516	589730.452940912892	1
4	1518	589730.452940912892	0
4	1521	589920.859257685061	1
4	1526	590374.871512921054	0
4	1537	591966.359620666065	1
4	1542	593609.479740896072	0
4	1557	598446.615075553376	1
4	1559	598446.615075553376	0
4	1565	599714.335618441478	1
4	1567	599714.335618441478	0
4	1583	610233.241606958892	1
4	1585	610233.241606958892	0
4	1600	615811.49795490015	1
4	1602	615811.49795490015	0
4	1618	625624.976602909901	1
4	1620	625624.976602909901	0
4	1634	629086.203658451061	1
4	1636	629086.203658451061	0
4	1656	633073.889444459575	1
4	1661	634097.194917018959	0
4	1673	636722.519928563375	1
4	1678	637089.567394430894	0
4	1697	638402.510969141807	1
4	1702	639368.743374023882	0
4	1705	639886.22699651479	1
4	1710	639960.465897411584	0
4	1717	642205.207974868112	1
4	1719	642205.207974868112	0
4	1741	660105.494260081298	1
4	1746	661153.899032279949	0
4	1749	661214.245967342729	1
4	1754	661535.006376865325	0
4	1768	662901.368999417948	1
4	1770	662901.368999417948	0
4	1786	673914.188250855677	1
4	1788	673914.188250855677	0
4	1820	685722.14866763838	1
4	1822	685722.14866763838	0
4	1825	686135.119987531553	1
4	1836	687260.211100262332	2
4	1841	687269.068592610123	1
4	1846	687273.534336933124	0
4	1852	688378.011965538806	1
4	1854	688378.011965538806	0
4	1872	709308.04282162795	1
4	1874	709308.04282162795	0
4	1903	722541.221301328792	1
4	1908	723300.914993743481	0
4	1911	723413.712552173123	1
4	1916	723503.23361350421	0
4	1947	730038.958547977163	1
4	1949	730038.958547977163	0
4	1952	730534.591450327247	1
4	1957	730677.718504426431	0
4	1964	732274.705480314484	1
4	1966	732274.705480314484	0
4	1980	737238.028334230969	1
4	1982	737238.028334230969	0
4	1989	739082.213722728893	1
4	1991	739082.213722728893	0
4	2006	746139.333002168421	1
4	2008	746139.333002168421	0
4	2029	761913.149499747193	1
4	2041	763484.312111413398	2
4	2052	767043.428914357574	3
4	2066	769382.176519708405	2
4	2069	769762.821808161192	3
4	2074	770745.999141837526	2
4	2079	770972.172918545828	1
4	2084	771209.40138139874	0
4	2090	771906.170656410615	1
4	2092	771906.170656410615	0
4	2115	776749.836847784255	1
4	2117	776749.836847784255	0
4	2132	780899.118765820884	1
4	2134	780899.118765820884	0
4	2140	783770.872366527944	1
4	2142	783770.872366527944	0
4	2157	788989.885986084026	1
4	2159	788989.885986084026	0
4	2190	794362.35717512198	1
4	2192	794362.35717512198	0
4	2199	801443.185388723019	1
4	2201	801443.185388723019	0
4	2204	802223.539836078277	1
4	2209	802427.763374675497	0
4	2249	813513.8416548867	1
4	2251	813513.8416548867	0
4	2262	814399.821538817145	1
4	2267	815353.991298513019	0
4	2274	816098.255025810959	1
4	2276	816098.255025810959	0
4	2279	816887.730388682132	1
4	2284	816997.592462213436	0
4	2290	821157.206519949307	1
4	2292	821157.206519949307	0
4	2307	823389.2108293447	1
4	2309	823389.2108293447	0
4	2323	826626.737858347977	1
4	2325	826626.737858347977	0
4	2340	828331.045679883981	1
4	2342	828331.045679883981	0
4	2367	851334.958069468649	1
4	2369	851334.958069468649	0
4	2375	851922.223434602753	1
4	2377	851922.223434602753	0
4	2401	861146.259653449264	1
4	2403	861146.259653449264	0
4	2409	862634.456814316769	1
4	2411	862634.456814316769	0
4	2426	868956.983306091242	1
4	2428	868956.983306091242	0
4	2453	883783.496331648557	1
4	2455	883783.496331648557	0
4	2466	885490.055385349036	1
4	2471	886857.842677784985	0
4	2477	886954.878768518859	1
4	2479	886954.878768518859	0
4	2497	907969.49975018542	1
4	2499	907969.49975018542	0
4	2522	913895.068742343369	1
4	2524	913895.068742343369	0
4	2531	918404.172558425733	1
4	2533	918404.172558425733	0
4	2557	931711.697336050007	1
4	2559	931711.697336050007	0
4	2565	934653.461935315933	1
4	2567	934653.461935315933	0
4	2582	937527.250819459668	1
4	2584	937527.250819459668	0
4	2599	943320.92217968254	1
4	2601	943320.92217968254	0
4	2616	948364.247095085687	1
4	2618	948364.247095085687	0
4	2632	952165.444703867308	1
4	2634	952165.444703867308	0
4	2652	976187.634877608035	1
4	2654	976187.634877608035	0
4	2677	982388.310295801859	1
4	2679	982388.310295801859	0
4	2686	984683.057964366594	1
4	2688	984683.057964366594	0
4	2703	992281.226748299828	1
4	2705	992281.226748299828	0
4	2726	1002828.550091054082	1
4	2739	1003339.918948738591	0
4	2770	1008350.592827991462	1
4	2772	1008350.592827991462	0
4	2791	1010568.42199798879	1
4	2794	1010640.608259926803	2
4	2799	1010660.494502909723	1
4	2804	1011008.576591035832	0
4	2807	1011361.286420385392	1
4	2812	1011377.789999614736	0
4	2818	1012958.060854678795	1
4	2820	1012958.060854678795	0
4	2827	1014319.349407632578	1
4	2829	1014319.349407632578	0
4	2843	1016496.525106672394	1
4	2845	1016496.525106672394	0
4	2869	1031778.814449858078	1
4	2871	1031778.814449858078	0
4	2891	1033241.323536486192	1
4	2896	1033581.222352053322	0
4	2902	1034264.912321338822	1
4	2904	1034264.912321338822	0
4	2907	1034343.074382374395	1
4	2910	1034544.747129445621	2
4	2915	1035377.738065002924	1
4	2920	1035400.439347474051	0
4	2936	1049426.897919016098	1
4	2938	1049426.897919016098	0
4	2953	1055335.606238942825	1
4	2955	1055335.606238942825	0
4	2987	1064170.183912757515	1
4	2989	1064170.183912757515	0
4	2995	1066301.441714984721	1
4	2997	1066301.441714984721	0
4	3004	1071863.553119459582	1
4	3006	1071863.553119459582	0
4	3029	1077203.279004418133	1
4	3031	1077203.279004418133	0
4	3046	1085142.900498623484	1
4	3054	1085848.725277888404	2
4	3060	1086745.57794671959	1
4	3065	1087270.420638523414	0
4	3093	1092803.03247518486	1
4	3098	1092889.095192530677	0
4	3112	1093157.732968223938	1
4	3114	1093157.732968223938	0
4	3120	1094520.124589244273	1
4	3122	1094520.124589244273	0
4	3128	1095691.327933892888	1
4	3130	1095691.327933892888	0
4	3137	1098852.547293346536	1
4	3139	1098852.547293346536	0
4	3163	1113182.494034530986	1
4	3165	1113182.494034530986	0
4	3188	1117339.998910120944	1
4	3190	1117339.998910120944	0
4	3196	1118333.956280728412	1
4	3198	1118333.956280728412	0
4	3204	1120084.088388331149	1
4	3206	1120084.088388331149	0
5	458	204000	2
5	467	210000	0
5	476	216000	1
5	485	222000	0
5	486	228000	0
5	511	234000	2
5	525	240000	0
5	553	246000	3
5	562	252000	0
5	587	258000	2
5	604	264000	0
5	629	270000	2
5	638	276000	0
5	644	282000	0
5	656	288000	1
5	657	294000	0
5	690	300000	2
5	707	306000	1
5	740	312000	2
5	741	318000	0
5	758	324000	1
5	764	330000	0
5	781	336000	1
5	793	342000	1
5	802	348000	1
5	827	354000	1
5	860	360000	2
5	861	366000	0
5	870	372000	1
5	903	378000	2
5	928	384000	1
5	937	390000	1
5	946	396000	0
5	947	402000	0
5	956	408000	1
5	965	414000	0
5	982	420000	1
5	999	426000	1
5	1032	432000	2
5	1046	438000	1
5	1074	444000	2
5	1091	450000	1
5	1100	456000	0
5	1117	462000	1
5	1118	468000	0
5	1135	474000	2
5	1168	480000	1
5	1169	486000	0
5	1178	492000	1
5	1187	498000	0
5	1188	504000	0
5	1202	510000	1
5	1214	516000	1
5	1236	522000	1
5	1256	528000	2
5	1281	534000	1
5	1290	540000	0
5	1299	546000	1
5	1324	552000	2
5	1354	558000	2
5	1390	564000	2
5	1447	570000	3
5	1456	576000	0
5	1481	582000	3
5	1511	588000	1
5	1547	594000	2
5	1569	600000	1
5	1573	606000	0
5	1590	612000	1
5	1607	618000	1
5	1608	624000	0
5	1641	630000	2
5	1671	636000	2
5	1715	642000	3
5	1724	648000	0
5	1725	654000	0
5	1739	660000	1
5	1775	666000	2
5	1784	672000	1
5	1793	678000	0
5	1810	684000	1
5	1859	690000	3
5	1860	696000	0
5	1861	702000	0
5	1870	708000	1
5	1879	714000	0
5	1880	720000	0
5	1934	726000	4
5	1962	732000	2
5	1987	738000	1
5	2001	744000	0
5	2013	750000	1
5	2014	756000	0
5	2031	762000	1
5	2054	768000	2
5	2105	774000	3
5	2130	780000	2
5	2152	786000	0
5	2172	792000	2
5	2197	798000	2
5	2214	804000	0
5	2215	810000	0
5	2272	816000	5
5	2302	822000	0
5	2338	828000	3
5	2347	834000	0
5	2348	840000	0
5	2349	846000	0
5	2379	852000	2
5	2391	858000	1
5	2416	864000	1
5	2433	870000	1
5	2442	876000	1
5	2451	882000	1
5	2484	888000	1
5	2485	894000	0
5	2486	900000	0
5	2495	906000	1
5	2512	912000	1
5	2529	918000	1
5	2538	924000	0
5	2552	930000	1
5	2580	936000	2
5	2594	942000	0
5	2611	948000	1
5	2639	954000	2
5	2640	960000	0
5	2641	966000	0
5	2642	972000	0
5	2667	978000	2
5	2684	984000	1
5	2701	990000	1
5	2710	996000	0
5	2711	1002000	0
5	2768	1008000	6
5	2825	1014000	2
5	2850	1020000	1
5	2851	1026000	0
5	2873	1032000	2
5	2925	1038000	2
5	2926	1044000	0
5	2943	1050000	1
5	2960	1056000	1
5	2972	1062000	0
5	3002	1068000	3
5	3016	1074000	0
5	3036	1080000	2
5	3056	1086000	1
5	3086	1092000	3
5	3135	1098000	2
5	3144	1104000	0
5	3150	1110000	0
5	3178	1116000	3
5	3211	1122000	1
6	458	204000	1
6	467	210000	1
6	476	216000	0
6	485	222000	1
6	486	228000	0
6	511	234000	1
6	525	240000	1
6	553	246000	1
6	562	252000	1
6	587	258000	1
6	604	264000	2
6	629	270000	1
6	638	276000	1
6	644	282000	0
6	656	288000	1
6	657	294000	0
6	690	300000	2
6	707	306000	1
6	740	312000	2
6	741	318000	0
6	758	324000	1
6	764	330000	0
6	781	336000	1
6	793	342000	1
6	802	348000	0
6	827	354000	2
6	860	360000	2
6	861	366000	0
6	870	372000	0
6	903	378000	2
6	928	384000	2
6	937	390000	0
6	946	396000	1
6	947	402000	0
6	956	408000	0
6	965	414000	1
6	982	420000	0
6	999	426000	2
6	1032	432000	2
6	1046	438000	0
6	1074	444000	2
6	1091	450000	1
6	1100	456000	1
6	1117	462000	1
6	1118	468000	0
6	1135	474000	0
6	1168	480000	3
6	1169	486000	0
6	1178	492000	0
6	1187	498000	1
6	1188	504000	0
6	1202	510000	0
6	1214	516000	1
6	1236	522000	1
6	1256	528000	1
6	1281	534000	2
6	1290	540000	1
6	1299	546000	0
6	1324	552000	1
6	1354	558000	1
6	1390	564000	3
6	1447	570000	4
6	1456	576000	1
6	1481	582000	0
6	1511	588000	2
6	1547	594000	3
6	1569	600000	1
6	1573	606000	1
6	1590	612000	1
6	1607	618000	1
6	1608	624000	0
6	1641	630000	2
6	1671	636000	1
6	1715	642000	3
6	1724	648000	1
6	1725	654000	0
6	1739	660000	0
6	1775	666000	3
6	1784	672000	0
6	1793	678000	1
6	1810	684000	0
6	1859	690000	4
6	1860	696000	0
6	1861	702000	0
6	1870	708000	0
6	1879	714000	1
6	1880	720000	0
6	1934	726000	2
6	1962	732000	2
6	1987	738000	2
6	2001	744000	1
6	2013	750000	1
6	2014	756000	0
6	2031	762000	0
6	2054	768000	0
6	2105	774000	5
6	2130	780000	1
6	2152	786000	2
6	2172	792000	1
6	2197	798000	1
6	2214	804000	2
6	2215	810000	0
6	2272	816000	2
6	2302	822000	3
6	2338	828000	2
6	2347	834000	1
6	2348	840000	0
6	2349	846000	0
6	2379	852000	1
6	2391	858000	1
6	2416	864000	2
6	2433	870000	1
6	2442	876000	0
6	2451	882000	0
6	2484	888000	3
6	2485	894000	0
6	2486	900000	0
6	2495	906000	0
6	2512	912000	1
6	2529	918000	1
6	2538	924000	1
6	2552	930000	0
6	2580	936000	2
6	2594	942000	1
6	2611	948000	1
6	2639	954000	2
6	2640	960000	0
6	2641	966000	0
6	2642	972000	0
6	2667	978000	1
6	2684	984000	1
6	2701	990000	1
6	2710	996000	1
6	2711	1002000	0
6	2768	1008000	1
6	2825	1014000	5
6	2850	1020000	2
6	2851	1026000	0
6	2873	1032000	0
6	2925	1038000	5
6	2926	1044000	0
6	2943	1050000	1
6	2960	1056000	1
6	2972	1062000	0
6	3002	1068000	2
6	3016	1074000	1
6	3036	1080000	1
6	3056	1086000	0
6	3086	1092000	2
6	3135	1098000	4
6	3144	1104000	1
6	3150	1110000	0
6	3178	1116000	1
6	3211	1122000	3
7	456	202485.939849004484	1
7	459	206003.365750324632	0
7	474	215477.534389861345	1
7	477	220051.939699483981	0
7	496	231221.302785354101	1
7	500	231258.093381608668	0
7	504	232133.695657218121	1
7	512	236293.559720025132	0
7	530	241270.828637199115	1
7	535	243516.315880407709	2
7	543	244612.71620097314	3
7	545	244770.86645335685	2
7	554	249772.190212132182	1
7	569	252324.359204405576	2
7	576	257096.039993390668	1
7	580	257518.04980574626	2
7	588	258254.83611948032	1
7	596	259964.380936663219	0
7	611	265549.771046520766	1
7	613	266666.534664206233	0
7	627	268285.141548043562	1
7	630	271122.595023023359	0
7	646	283070.2731182101	1
7	648	283313.393457278726	0
7	664	296086.084012956149	1
7	666	296138.024156695863	0
7	680	297211.678767076822	1
7	682	297448.506900216701	0
7	697	302643.31987606848	1
7	699	304749.41923586433	0
7	714	306823.833121297755	1
7	716	307133.952463753865	0
7	730	311256.541629162337	1
7	732	311411.297357695026	0
7	748	319957.97189835365	1
7	750	322563.533684705343	0
7	766	330330.234773972301	1
7	768	331808.63524813553	0
7	783	337811.439601382044	1
7	785	341583.158571898561	0
7	800	346966.576336010743	1
7	808	349265.952950007357	0
7	812	350375.06253571285	1
7	819	352800.105544263261	0
7	834	355217.618998596669	1
7	836	355465.15551189278	0
7	850	357298.982889141029	1
7	852	359126.095154347112	0
7	868	368343.740475596095	1
7	877	372770.474841192948	2
7	879	373050.388686323405	1
7	887	374510.128029487392	0
7	901	377169.817423627654	1
7	910	379581.207197516001	2
7	912	379602.736850578516	1
7	920	381113.811567812121	0
7	935	387947.282837938642	1
7	938	391250.348628407056	0
7	954	405697.546693240047	1
7	957	410611.508645120769	0
7	972	414987.036406590551	1
7	979	418838.424806336461	0
7	984	420433.178346357056	1
7	988	420647.631535681058	0
7	1009	428222.066369959196	1
7	1014	428420.813268887552	2
7	1016	429594.898066186969	1
7	1024	431074.845554296473	0
7	1039	433597.330921536042	1
7	1048	438503.376620108245	2
7	1056	440003.072456961458	3
7	1058	442068.522903817955	2
7	1066	442495.775171058714	1
7	1080	448140.890325682493	0
7	1084	448168.685947884492	1
7	1092	454198.783087086036	0
7	1107	458227.519886059104	1
7	1109	458891.865082285376	0
7	1125	471078.622769346733	1
7	1133	473454.670890582359	2
7	1136	474150.752558321211	1
7	1149	476247.729254833815	0
7	1153	476759.228640981782	1
7	1160	478880.259739582806	0
7	1176	489244.980335864642	1
7	1179	495395.690073916798	0
7	1195	509393.29392524356	1
7	1197	509455.382702089078	0
7	1212	511071.27377591644	1
7	1221	519978.646438050914	2
7	1223	521014.862477266088	1
7	1238	524080.817265054733	2
7	1246	526025.457354152818	3
7	1248	527107.589190076478	2
7	1262	530455.351090556608	1
7	1266	530723.20275705264	2
7	1273	531025.578059500808	1
7	1282	535150.137488381103	0
7	1297	545166.031381425921	1
7	1306	547296.418381982464	2
7	1314	548149.202683260574	3
7	1316	549599.459329058893	2
7	1325	554141.600675311359	1
7	1345	557638.112148976035	2
7	1350	557743.266705915851	3
7	1355	558871.377584007272	2
7	1359	558969.888754867998	3
7	1366	559424.832457356398	2
7	1371	559888.554279238564	1
7	1388	563281.965985538545	2
7	1397	564417.619624160626	3
7	1399	564437.360443502174	2
7	1412	566582.301924428542	1
7	1416	566928.072001287067	2
7	1428	567037.174367407109	1
7	1432	567359.099327505558	2
7	1439	567521.631650266583	1
7	1448	571460.592535217277	0
7	1466	580657.243987858764	1
7	1471	580974.240427882423	2
7	1479	581650.83490110923	3
7	1482	582440.781681542937	2
7	1490	585189.28684679164	1
7	1507	586919.201050769479	2
7	1513	588210.369150641269	3
7	1515	589730.452940912892	2
7	1520	589920.859257685061	1
7	1536	591966.359620666065	0
7	1540	593609.479740896072	1
7	1554	595120.503721684025	2
7	1556	598446.615075553376	1
7	1564	599714.335618441478	0
7	1580	608354.579583525161	1
7	1582	610233.241606958892	0
7	1597	613902.251597324429	1
7	1599	615811.49795490015	0
7	1615	624824.2194308659	1
7	1617	625624.976602909901	0
7	1631	627478.344104922566	1
7	1633	629086.203658451061	0
7	1648	631507.231886491417	1
7	1655	633073.889444459575	0
7	1659	634097.194917018959	1
7	1672	636722.519928563375	0
7	1676	637089.567394430894	1
7	1689	637611.326488724066	2
7	1696	638402.510969141807	1
7	1700	639368.743374023882	2
7	1704	639886.22699651479	1
7	1716	642205.207974868112	0
7	1732	658826.476597627486	1
7	1740	660105.494260081298	0
7	1744	661153.899032279949	1
7	1748	661214.245967342729	0
7	1765	662672.265162129287	1
7	1767	662901.368999417948	0
7	1782	669323.510555006787	1
7	1785	673914.188250855677	0
7	1800	683021.557883685351	1
7	1812	684107.574584654526	2
7	1817	684878.093311397975	3
7	1819	685722.14866763838	2
7	1824	686135.119987531553	1
7	1835	687260.211100262332	0
7	1839	687269.068592610123	1
7	1851	688378.011965538806	0
7	1868	706099.467199345261	1
7	1871	709308.04282162795	0
7	1887	720564.739197342189	1
7	1895	721244.210516946838	2
7	1902	722541.221301328792	1
7	1906	723300.914993743481	2
7	1910	723413.712552173123	1
7	1930	725765.213673253329	2
7	1936	726229.761958375168	3
7	1944	729728.623013681724	4
7	1946	730038.958547977163	3
7	1951	730534.591450327247	2
7	1963	732274.705480314484	1
7	1977	736684.743518952106	2
7	1979	737238.028334230969	1
7	1988	739082.213722728893	0
7	2003	745390.174605594198	1
7	2005	746139.333002168421	0
7	2024	761569.183596765059	1
7	2028	761913.149499747193	0
7	2036	762599.766048692561	1
7	2040	763484.312111413398	0
7	2047	766122.957981403172	1
7	2051	767043.428914357574	0
7	2059	768786.31310049071	1
7	2064	769382.176519708405	2
7	2068	769762.821808161192	1
7	2089	771906.170656410615	0
7	2103	773565.392972458496	1
7	2112	774799.948599075386	2
7	2114	776749.836847784255	1
7	2128	779996.396519228147	2
7	2131	780899.118765820884	1
7	2139	783770.872366527944	0
7	2154	786104.818030912461	1
7	2156	788989.885986084026	0
7	2170	790546.913859130503	1
7	2179	792435.235762755491	2
7	2187	793473.677474873552	3
7	2189	794362.35717512198	2
7	2198	801443.185388723019	1
7	2203	802223.539836078277	0
7	2225	811259.121341394192	1
7	2236	812076.16997925835	2
7	2241	812795.098764206378	3
7	2246	813378.821317978987	4
7	2248	813513.8416548867	3
7	2261	814399.821538817145	2
7	2265	815353.991298513019	3
7	2273	816098.255025810959	2
7	2278	816887.730388682132	1
7	2289	821157.206519949307	0
7	2304	822940.725253326622	1
7	2306	823389.2108293447	0
7	2320	826478.762504675787	1
7	2322	826626.737858347977	0
7	2336	827699.820141465826	1
7	2339	828331.045679883981	0
7	2356	849289.788567064045	1
7	2364	851001.349254416541	2
7	2366	851334.958069468649	1
7	2374	851922.223434602753	0
7	2389	855095.976162815765	1
7	2398	859689.614534376642	2
7	2400	861146.259653449264	1
7	2408	862634.456814316769	0
7	2423	867991.213287321454	1
7	2425	868956.983306091242	0
7	2440	871879.225743233263	1
7	2449	879129.602570348884	2
7	2452	883783.496331648557	1
7	2465	885490.055385349036	0
7	2469	886857.842677784985	1
7	2476	886954.878768518859	0
7	2493	901546.976325174436	1
7	2496	907969.49975018542	0
7	2510	911826.505066488881	1
7	2519	912923.56650839485	2
7	2521	913895.068742343369	1
7	2530	918404.172558425733	0
7	2545	927567.892700637311	1
7	2554	930894.236220183653	2
7	2556	931711.697336050007	1
7	2564	934653.461935315933	0
7	2578	935477.89935686143	1
7	2581	937527.250819459668	0
7	2596	942573.210385614739	1
7	2598	943320.92217968254	0
7	2613	948005.488585564685	1
7	2615	948364.247095085687	0
7	2629	950189.339958970228	1
7	2631	952165.444703867308	0
7	2649	975940.409897420856	1
7	2651	976187.634877608035	0
7	2665	977049.116550498654	1
7	2674	978845.801119630806	2
7	2676	982388.310295801859	1
7	2685	984683.057964366594	0
7	2699	989914.963719010239	1
7	2702	992281.226748299828	0
7	2718	1002061.589235374261	1
7	2725	1002828.550091054082	0
7	2732	1003037.949187029385	1
7	2737	1003339.918948738591	2
7	2753	1004695.142975849362	3
7	2758	1004911.528833650633	4
7	2766	1007451.278831159353	5
7	2769	1008350.592827991462	4
7	2786	1010333.907353559451	5
7	2790	1010568.42199798879	4
7	2793	1010640.608259926803	3
7	2797	1010660.494502909723	4
7	2806	1011361.286420385392	3
7	2817	1012958.060854678795	2
7	2826	1014319.349407632578	1
7	2840	1015653.78786814797	2
7	2842	1016496.525106672394	1
7	2858	1030233.263394251543	2
7	2866	1031726.513591182888	3
7	2868	1031778.814449858078	2
7	2886	1033116.728399732072	3
7	2890	1033241.323536486192	2
7	2894	1033581.222352053322	3
7	2901	1034264.912321338822	2
7	2906	1034343.074382374395	1
7	2909	1034544.747129445621	0
7	2933	1047827.101125557639	1
7	2935	1049426.897919016098	0
7	2950	1052525.659264424378	1
7	2952	1055335.606238942825	0
7	2974	1062722.661185047668	1
7	2979	1062744.26810476638	2
7	2984	1062932.940956823424	3
7	2986	1064170.183912757515	2
7	2994	1066301.441714984721	1
7	3003	1071863.553119459582	0
7	3018	1074732.714633966874	1
7	3026	1076411.117142788554	2
7	3028	1077203.279004418133	1
7	3045	1085142.900498623484	0
7	3049	1085470.185764739214	1
7	3053	1085848.725277888404	0
7	3058	1086745.57794671959	1
7	3076	1090988.759690052241	2
7	3084	1091658.171804060928	3
7	3092	1092803.03247518486	2
7	3096	1092889.095192530677	3
7	3109	1093052.900326884668	4
7	3111	1093157.732968223938	3
7	3119	1094520.124589244273	2
7	3127	1095691.327933892888	1
7	3136	1098852.547293346536	0
7	3155	1112088.038978700787	1
7	3160	1112633.237514287489	2
7	3162	1113182.494034530986	1
7	3176	1114606.717540285505	2
7	3185	1116582.906201218063	3
7	3187	1117339.998910120944	2
7	3195	1118333.956280728412	1
7	3203	1120084.088388331149	0
