version 2
run ParkingMeasurement-15-20170106-02:04:08-11421
attr configname ParkingMeasurement
attr datetime 20170106-02:04:08
attr experiment ParkingMeasurement
attr inifile parkingStudy.ini
attr iterationvars ""
attr iterationvars2 $repetition=15
attr measurement ""
attr network SimNetwork
attr processid 11421
attr repetition 15
attr replication #15
attr resultdir results
attr runnumber 15
attr seedset 15
param SimNetwork.a.parkingLot.parkingDelay exponential(60min)
param SimNetwork.a.runway.landingTime exponential(15min)
param SimNetwork.a.runway.takeoffTime exponential(5min)
param SimNetwork.a.runway.throughputCheckInterval 100min
param SimNetwork.wg.interArrivalTime exponential(100min)

vector 5  SimNetwork.a.runway  landedThroughput:vector  ETV
attr source  landedThroughputSignal
vector 6  SimNetwork.a.runway  tookoffThroughput:vector  ETV
attr source  tookoffThroughputSignal
vector 2  SimNetwork.a.landingQueue  queueLength:vector  ETV
attr source  queueLengthSignal
vector 1  SimNetwork.a.landingQueue  queueTime:vector  ETV
attr source  queueTimeSignal
vector 7  SimNetwork.a.parkingLot  parkingOccupancy:vector  ETV
attr source  parkingOccupancy
vector 4  SimNetwork.a.takeoffQueue  queueLength:vector  ETV
attr source  queueLengthSignal
vector 3  SimNetwork.a.takeoffQueue  queueTime:vector  ETV
attr source  queueTimeSignal
vector 0  SimNetwork.wg  responseTime:vector  ETV
attr source  responseTimeSignal
0	649	207451.579007235347	26560.819455473
0	665	209883.774699490139	23299.139395038
0	675	216668.677884373335	10110.173789212
0	692	223888.620149239777	15841.178071181
0	708	225957.993379118435	2695.9026108445
0	727	243385.001952221063	19159.879364622
0	744	249450.767069900325	8384.5965774524
0	761	253601.028098917824	6768.2547939097
0	778	261470.997311975858	8251.246973573
0	795	264637.357794848008	7589.1820741381
0	814	284930.363634481537	21588.960602754
0	832	294443.884899567788	11956.23515336
0	850	306416.943475559966	14070.181578779
0	869	324193.702331834576	20792.290692893
0	902	333959.179412048991	15700.680410477
0	911	337301.324037894533	10070.443381376
0	919	337902.031488223307	9222.6873272512
0	945	350228.610928448092	18192.015879097
0	962	355675.188478751743	7120.7042841146
0	978	358278.193066932502	9185.7148935398
0	987	362211.732471597751	6807.7334466889
0	1003	363733.800807790303	7553.0811547515
0	1021	377291.646531708705	14535.688335273
0	1039	386217.111000776893	16481.117802068
0	1064	391779.857519888714	3304.1953447591
0	1072	393633.473552940015	12525.092573349
0	1089	398909.217721000105	10284.080530792
0	1115	412477.660383811761	10925.085020386
0	1132	417541.103724295449	6221.2896761702
0	1141	422474.898507081941	27386.587791919
0	1161	427107.399502169873	13015.475089009
0	1182	431307.901504678114	5422.1858125821
0	1190	431653.578000695084	4595.920913301
0	1215	434800.48708663709	2756.1348295983
0	1223	437424.775637331327	10036.961999693
0	1254	456463.486860676622	24415.60498419
0	1259	456756.603416529775	4208.9732467252
0	1284	465665.250132865037	11767.023142278
0	1293	472533.919133461342	12907.817583582
0	1318	478932.222937939272	15628.567584261
0	1327	481783.500481432585	9138.2107838325
0	1353	497442.108916193113	23590.803900465
0	1362	500870.507942211895	6031.0934423897
0	1389	519742.454333308761	6185.1686139821
0	1397	520194.815137175058	25203.085057306
0	1426	549265.431984795398	9691.375446634
0	1435	552018.425135763389	33191.975800443
0	1460	558768.440696224695	2053.2189960625
0	1476	559675.858842386407	11148.156756498
0	1493	564688.45771152931	5161.6507638639
0	1513	574939.390941529458	16883.244792789
0	1518	575380.102374937214	14135.477875835
0	1545	588877.055709684841	17281.77271767
0	1553	592417.624507194179	10267.31970902
0	1571	603415.255783435129	19292.212747598
0	1588	609478.994297157621	7818.3376919452
0	1614	623529.044180964046	3457.1655142249
0	1639	626694.325384460613	1999.7479754441
0	1647	627474.655147275289	4604.9598114708
0	1655	627996.674915091266	21976.538025409
0	1672	634396.071920496823	8598.87949444
0	1689	637111.956904225179	7229.4914660547
0	1706	645740.509083967494	10106.9935402
0	1738	655420.859791491965	17932.670360406
0	1764	659176.251289678679	8733.6192526253
0	1772	659978.568732952043	5539.2907107673
0	1781	660635.121628944366	6151.6924866082
0	1798	671770.340242704826	14016.411783477
0	1840	679440.729093273311	6624.1275406477
0	1851	680871.723691744898	6645.1904331452
0	1856	680940.621216756726	28375.358194796
0	1864	683394.513697024359	7343.5819779735
0	1873	685855.554542764947	17056.299700604
0	1890	693999.577605149179	16815.562566108
0	1908	704967.315572130391	13411.912389307
0	1929	715746.624296505954	17637.189949783
0	1942	716729.487330559141	6796.1363298537
0	1958	718424.493686112372	2974.0969642187
0	2000	726177.917256976043	8990.6917112485
0	2008	727952.877334777254	7986.05122689
0	2016	729133.787745366798	10674.76046333
0	2024	730053.105108818145	10238.89912471
0	2054	744111.26271933687	24048.047937343
0	2067	745683.409106817509	10671.228327795
0	2083	749615.05236110156	5575.2553191885
0	2092	753277.911006153031	11122.126786435
0	2110	764207.799738815055	18459.781543069
0	2128	776260.117678188165	12824.770949909
0	2146	786306.219277238209	14050.120848712
0	2163	793396.451309812048	13277.098910011
0	2188	799906.584602990662	8076.1021115571
0	2196	801038.463309482368	3022.1994615241
0	2213	807678.824703187068	8160.1583907037
0	2230	811437.455711749237	5618.7263794903
0	2256	824542.007759337905	15209.744381285
0	2265	832262.2233640563	11055.62158182
0	2299	840833.707355931689	3315.5265565457
0	2307	844089.0036170545	22526.049295864
0	2315	845342.726381291496	9650.1772705808
0	2344	853497.803091207357	6608.4048185037
0	2349	854650.873831324801	15401.456311023
0	2383	869112.02961481206	4023.3776156231
0	2392	871049.740516182682	19273.949933039
0	2403	873869.140253726124	12021.774596493
0	2424	875466.670571980573	1831.0449006672
0	2432	875804.146217531139	7722.8589414037
0	2449	878672.962201049791	4172.9938145476
0	2466	885772.891027889958	8851.5678887487
0	2507	900435.712502100871	6587.2588570173
0	2517	900749.732129163862	18293.921421015
0	2525	900885.510540134064	6397.9689180743
0	2533	905927.729422902634	10023.707516331
0	2559	912800.57948813196	13028.583416034
0	2567	917094.454412363134	10130.985773263
0	2596	945810.151643646562	33530.938179049
0	2605	952288.378275458903	11014.391518315
0	2632	968263.381339192582	23114.672094433
0	2640	969284.170503046794	7914.238993952
0	2657	977884.704294885271	11597.35529954
0	2684	995789.752643342103	1248.7464971062
0	2693	996001.284217620033	21719.724444054
0	2718	1004401.144217851312	3769.4307690158
0	2726	1005650.529935049879	10918.362685047
0	2769	1022035.122347423693	9890.9032205668
0	2777	1022601.583027708933	20195.775375251
0	2785	1024465.405451923457	7781.881194797
0	2810	1029313.467156689703	10889.35456581
0	2818	1030480.455517708687	4611.3978988995
0	2827	1032875.568200206741	22871.227838797
0	2854	1037262.47087236014	3359.0888585067
0	2859	1037546.723432239234	10189.579351667
0	2884	1040703.588410804807	3014.1830121815
0	2901	1048851.300462411987	14210.329055728
0	2910	1051735.150342940441	13625.767663409
0	2928	1065553.026569001433	19949.177734095
0	2945	1072775.294882472576	12461.582002143
0	2968	1092536.619813143053	24131.053403185
0	2981	1094460.614500166441	5911.0412485092
0	3007	1105023.893311826439	12501.949693119
0	3015	1105334.496440571128	6722.0056712331
0	3041	1119736.780601906248	18285.447359807
0	3049	1121081.471624235146	6968.6802213099
1	638	206558.50409516165	0
1	654	208047.442078058612	0
1	681	223262.09076827393	0
1	697	224225.122587599077	0
1	716	241066.170492447897	0
1	733	246832.773305008135	0
1	750	253219.750338402811	0
1	766	257048.175720709947	0
1	783	263341.403031727431	0
1	803	282487.649746207811	0
1	820	292346.761896780809	0
1	838	303401.411638941231	0
1	857	318258.499001571563	0
1	874	327230.880656518621	0
1	883	330415.498198696838	1736.1540377248
1	891	332673.060929685619	636.46588033428
1	926	348554.48419463719	0
1	934	349265.848836614606	173.37066322192
1	951	355403.999024908817	0
1	967	356180.719653038835	0
1	992	362755.958196436041	0
1	1009	369735.993198708511	0
1	1027	381108.380979591361	0
1	1044	388475.662175129625	0
1	1052	389326.598624654085	701.46143444617
1	1077	395088.31071516284	0
1	1094	401552.575363426018	0
1	1104	411319.814048125222	0
1	1121	414091.924413160424	0
1	1146	425885.715692096026	0
1	1163	427107.399502169873	49.742414775806
1	1171	427516.144795440078	128.33115780141
1	1196	432044.35225703882	0
1	1204	432200.773027722158	152.89115123591
1	1231	452547.630169804564	0
1	1239	454051.877697914272	153.65070732704
1	1264	459626.101549879445	0
1	1273	463303.65535367858	0
1	1298	472645.289697600118	0
1	1306	473851.305015728513	0
1	1334	494839.414499822177	0
1	1342	495217.00615658862	225.27607672002
1	1369	513557.285719326701	0
1	1378	518826.449335319977	0
1	1405	539574.056538161413	0
1	1415	548527.702085888135	0
1	1440	556715.221700162217	0
1	1449	558056.146148740552	0
1	1465	559526.80694766539	0
1	1481	561244.624499102055	0
1	1499	571595.282992014831	0
1	1525	582150.304798174649	0
1	1533	585183.07452219086	1060.0314863534
1	1560	601660.656605212375	0
1	1577	606020.136889681865	0
1	1595	620071.878666739153	0
1	1603	622869.695335804479	0
1	1620	624694.577409016534	0
1	1628	625797.192426056782	0
1	1660	629882.465438170466	0
1	1677	635633.515543767788	0
1	1694	637488.189431085652	0
1	1712	650442.632037053408	0
1	1720	652565.263021960722	0
1	1740	655420.859791491965	981.58176930725
1	1745	657458.671622964727	2975.2424806285
1	1753	657753.928459227795	0
1	1787	668799.254842161105	0
1	1804	672816.601552625632	0
1	1812	676011.101119588847	1784.5678609891
1	1820	676890.138137785561	839.20641873467
1	1828	677750.962477215226	566.94743817404
1	1879	691555.403182823558	0
1	1896	698109.43434672334	0
1	1914	709933.351000705418	0
1	1931	715746.624296505954	296.2275746123
1	1947	717187.225545727518	0
1	1963	718459.027282036452	0
1	1978	721006.76351920224	1192.5575350937
1	1983	721798.070729570634	1831.2446216834
1	1988	722223.831892935871	2160.6171109422
1	2030	735012.180779022172	0
1	2039	742155.784219718286	0
1	2056	744111.26271933687	71.465677423821
1	2072	745748.018195745999	0
1	2099	763435.346728279391	0
1	2116	772256.098428526541	0
1	2134	780119.352399801135	0
1	2151	791830.482491433573	0
1	2169	798016.263847958245	0
1	2177	799518.666312483382	0
1	2202	805818.729332258986	0
1	2218	809332.263378052829	0
1	2236	821206.601782235977	0
1	2244	821711.820667378158	148.86634618798
1	2271	835692.549110710684	0
1	2279	837518.180799385989	0
1	2287	839249.417520302163	0
1	2321	846889.398272703705	0
1	2329	851775.790583144181	0
1	2355	861847.365657233177	0
1	2364	865088.651999188988	0
1	2372	868081.287276127478	0
1	2405	873869.140253726124	233.51458241278
1	2413	874499.968386502218	0
1	2438	876921.323139141222	0
1	2455	882455.810708148428	0
1	2472	893848.453645083546	0
1	2484	896309.910373999638	1822.3687519399
1	2489	897342.042058389078	1438.020151817
1	2509	900435.712502100871	663.71643000299
1	2539	906963.468639100479	0
1	2548	912279.213464597173	0
1	2576	941273.986757143545	0
1	2585	945148.709244759285	0
1	2612	961369.931509094777	0
1	2621	966287.348995345467	0
1	2646	974281.559773566081	0
1	2665	994541.006146235885	0
1	2673	994873.520938774946	141.3536887717
1	2698	1000631.713448835504	0
1	2707	1002405.807652458049	0
1	2732	1010004.340361410091	0
1	2740	1012144.219126856902	0
1	2749	1016683.524257126456	0
1	2757	1018979.371998598017	555.25940771804
1	2790	1025869.057618809217	0
1	2799	1027357.144080572701	0
1	2832	1033903.382013853411	0
1	2840	1034640.971406683701	0
1	2864	1037689.405398623338	0
1	2873	1039281.123487544418	1171.7408080127
1	2890	1045603.848834906803	0
1	2916	1060313.712880329163	0
1	2934	1068405.566409958133	0
1	2953	1088549.573251657281	0
1	2970	1092536.619813143053	14.676194435668
1	2987	1098612.490769338057	0
1	2995	1101451.333242099446	0
1	3021	1114112.791402925244	0
1	3030	1118414.034637586041	0
1	3055	1122854.056435411702	0
2	636	206558.50409516165	1
2	638	206558.50409516165	0
2	652	208047.442078058612	1
2	654	208047.442078058612	0
2	679	223262.09076827393	1
2	681	223262.09076827393	0
2	695	224225.122587599077	1
2	697	224225.122587599077	0
2	714	241066.170492447897	1
2	716	241066.170492447897	0
2	731	246832.773305008135	1
2	733	246832.773305008135	0
2	748	253219.750338402811	1
2	750	253219.750338402811	0
2	764	257048.175720709947	1
2	766	257048.175720709947	0
2	781	263341.403031727431	1
2	783	263341.403031727431	0
2	801	282487.649746207811	1
2	803	282487.649746207811	0
2	818	292346.761896780809	1
2	820	292346.761896780809	0
2	836	303401.411638941231	1
2	838	303401.411638941231	0
2	855	318258.499001571563	1
2	857	318258.499001571563	0
2	872	327230.880656518621	1
2	874	327230.880656518621	0
2	877	328679.344160972087	1
2	883	330415.498198696838	0
2	886	332036.595049351342	1
2	891	332673.060929685619	0
2	924	348554.48419463719	1
2	926	348554.48419463719	0
2	929	349092.478173392687	1
2	934	349265.848836614606	0
2	949	355403.999024908817	1
2	951	355403.999024908817	0
2	965	356180.719653038835	1
2	967	356180.719653038835	0
2	990	362755.958196436041	1
2	992	362755.958196436041	0
2	1007	369735.993198708511	1
2	1009	369735.993198708511	0
2	1025	381108.380979591361	1
2	1027	381108.380979591361	0
2	1042	388475.662175129625	1
2	1044	388475.662175129625	0
2	1047	388625.13719020791	1
2	1052	389326.598624654085	0
2	1075	395088.31071516284	1
2	1077	395088.31071516284	0
2	1092	401552.575363426018	1
2	1094	401552.575363426018	0
2	1102	411319.814048125222	1
2	1104	411319.814048125222	0
2	1119	414091.924413160424	1
2	1121	414091.924413160424	0
2	1144	425885.715692096026	1
2	1146	425885.715692096026	0
2	1158	427057.657087394067	1
2	1163	427107.399502169873	0
2	1166	427387.813637638664	1
2	1171	427516.144795440078	0
2	1194	432044.35225703882	1
2	1196	432044.35225703882	0
2	1199	432047.881876486252	1
2	1204	432200.773027722158	0
2	1229	452547.630169804564	1
2	1231	452547.630169804564	0
2	1234	453898.226990587227	1
2	1239	454051.877697914272	0
2	1262	459626.101549879445	1
2	1264	459626.101549879445	0
2	1271	463303.65535367858	1
2	1273	463303.65535367858	0
2	1296	472645.289697600118	1
2	1298	472645.289697600118	0
2	1304	473851.305015728513	1
2	1306	473851.305015728513	0
2	1332	494839.414499822177	1
2	1334	494839.414499822177	0
2	1337	494991.730079868601	1
2	1342	495217.00615658862	0
2	1367	513557.285719326701	1
2	1369	513557.285719326701	0
2	1376	518826.449335319977	1
2	1378	518826.449335319977	0
2	1403	539574.056538161413	1
2	1405	539574.056538161413	0
2	1413	548527.702085888135	1
2	1415	548527.702085888135	0
2	1438	556715.221700162217	1
2	1440	556715.221700162217	0
2	1447	558056.146148740552	1
2	1449	558056.146148740552	0
2	1463	559526.80694766539	1
2	1465	559526.80694766539	0
2	1479	561244.624499102055	1
2	1481	561244.624499102055	0
2	1497	571595.282992014831	1
2	1499	571595.282992014831	0
2	1523	582150.304798174649	1
2	1525	582150.304798174649	0
2	1528	584123.043035837505	1
2	1533	585183.07452219086	0
2	1558	601660.656605212375	1
2	1560	601660.656605212375	0
2	1575	606020.136889681865	1
2	1577	606020.136889681865	0
2	1593	620071.878666739153	1
2	1595	620071.878666739153	0
2	1601	622869.695335804479	1
2	1603	622869.695335804479	0
2	1618	624694.577409016534	1
2	1620	624694.577409016534	0
2	1626	625797.192426056782	1
2	1628	625797.192426056782	0
2	1658	629882.465438170466	1
2	1660	629882.465438170466	0
2	1675	635633.515543767788	1
2	1677	635633.515543767788	0
2	1692	637488.189431085652	1
2	1694	637488.189431085652	0
2	1710	650442.632037053408	1
2	1712	650442.632037053408	0
2	1718	652565.263021960722	1
2	1720	652565.263021960722	0
2	1732	654439.278022184712	1
2	1735	654483.42914233618	2
2	1740	655420.859791491965	1
2	1745	657458.671622964727	0
2	1751	657753.928459227795	1
2	1753	657753.928459227795	0
2	1785	668799.254842161105	1
2	1787	668799.254842161105	0
2	1802	672816.601552625632	1
2	1804	672816.601552625632	0
2	1807	674226.533258599713	1
2	1812	676011.101119588847	0
2	1815	676050.931719050892	1
2	1820	676890.138137785561	0
2	1823	677184.015039041184	1
2	1828	677750.962477215226	0
2	1877	691555.403182823558	1
2	1879	691555.403182823558	0
2	1894	698109.43434672334	1
2	1896	698109.43434672334	0
2	1912	709933.351000705418	1
2	1914	709933.351000705418	0
2	1926	715450.396721893658	1
2	1931	715746.624296505954	0
2	1945	717187.225545727518	1
2	1947	717187.225545727518	0
2	1961	718459.027282036452	1
2	1963	718459.027282036452	0
2	1966	719814.205984108529	1
2	1969	719966.826107887255	2
2	1973	720063.21478199363	3
2	1978	721006.76351920224	2
2	1983	721798.070729570634	1
2	1988	722223.831892935871	0
2	2028	735012.180779022172	1
2	2030	735012.180779022172	0
2	2037	742155.784219718286	1
2	2039	742155.784219718286	0
2	2051	744039.797041913049	1
2	2056	744111.26271933687	0
2	2070	745748.018195745999	1
2	2072	745748.018195745999	0
2	2097	763435.346728279391	1
2	2099	763435.346728279391	0
2	2114	772256.098428526541	1
2	2116	772256.098428526541	0
2	2132	780119.352399801135	1
2	2134	780119.352399801135	0
2	2149	791830.482491433573	1
2	2151	791830.482491433573	0
2	2167	798016.263847958245	1
2	2169	798016.263847958245	0
2	2175	799518.666312483382	1
2	2177	799518.666312483382	0
2	2200	805818.729332258986	1
2	2202	805818.729332258986	0
2	2216	809332.263378052829	1
2	2218	809332.263378052829	0
2	2234	821206.601782235977	1
2	2236	821206.601782235977	0
2	2239	821562.954321190178	1
2	2244	821711.820667378158	0
2	2269	835692.549110710684	1
2	2271	835692.549110710684	0
2	2277	837518.180799385989	1
2	2279	837518.180799385989	0
2	2285	839249.417520302163	1
2	2287	839249.417520302163	0
2	2319	846889.398272703705	1
2	2321	846889.398272703705	0
2	2327	851775.790583144181	1
2	2329	851775.790583144181	0
2	2353	861847.365657233177	1
2	2355	861847.365657233177	0
2	2362	865088.651999188988	1
2	2364	865088.651999188988	0
2	2370	868081.287276127478	1
2	2372	868081.287276127478	0
2	2400	873635.62567131334	1
2	2405	873869.140253726124	0
2	2411	874499.968386502218	1
2	2413	874499.968386502218	0
2	2436	876921.323139141222	1
2	2438	876921.323139141222	0
2	2453	882455.810708148428	1
2	2455	882455.810708148428	0
2	2470	893848.453645083546	1
2	2472	893848.453645083546	0
2	2476	894487.541622059724	1
2	2479	895904.021906572103	2
2	2484	896309.910373999638	1
2	2489	897342.042058389078	0
2	2500	899771.996072097883	1
2	2509	900435.712502100871	0
2	2537	906963.468639100479	1
2	2539	906963.468639100479	0
2	2546	912279.213464597173	1
2	2548	912279.213464597173	0
2	2574	941273.986757143545	1
2	2576	941273.986757143545	0
2	2583	945148.709244759285	1
2	2585	945148.709244759285	0
2	2610	961369.931509094777	1
2	2612	961369.931509094777	0
2	2619	966287.348995345467	1
2	2621	966287.348995345467	0
2	2644	974281.559773566081	1
2	2646	974281.559773566081	0
2	2663	994541.006146235885	1
2	2665	994541.006146235885	0
2	2668	994732.167250003242	1
2	2673	994873.520938774946	0
2	2696	1000631.713448835504	1
2	2698	1000631.713448835504	0
2	2705	1002405.807652458049	1
2	2707	1002405.807652458049	0
2	2730	1010004.340361410091	1
2	2732	1010004.340361410091	0
2	2738	1012144.219126856902	1
2	2740	1012144.219126856902	0
2	2747	1016683.524257126456	1
2	2749	1016683.524257126456	0
2	2752	1018424.112590879973	1
2	2757	1018979.371998598017	0
2	2788	1025869.057618809217	1
2	2790	1025869.057618809217	0
2	2797	1027357.144080572701	1
2	2799	1027357.144080572701	0
2	2830	1033903.382013853411	1
2	2832	1033903.382013853411	0
2	2838	1034640.971406683701	1
2	2840	1034640.971406683701	0
2	2862	1037689.405398623338	1
2	2864	1037689.405398623338	0
2	2868	1038109.382679531671	1
2	2873	1039281.123487544418	0
2	2888	1045603.848834906803	1
2	2890	1045603.848834906803	0
2	2914	1060313.712880329163	1
2	2916	1060313.712880329163	0
2	2932	1068405.566409958133	1
2	2934	1068405.566409958133	0
2	2951	1088549.573251657281	1
2	2953	1088549.573251657281	0
2	2965	1092521.943618707385	1
2	2970	1092536.619813143053	0
2	2985	1098612.490769338057	1
2	2987	1098612.490769338057	0
2	2993	1101451.333242099446	1
2	2995	1101451.333242099446	0
2	3019	1114112.791402925244	1
2	3021	1114112.791402925244	0
2	3028	1118414.034637586041	1
2	3030	1118414.034637586041	0
2	3053	1122854.056435411702	1
2	3055	1122854.056435411702	0
3	646	207173.044818924274	0
3	662	209804.139924923005	0
3	672	216627.728406769739	0
3	689	223783.62668001284	0
3	705	225549.899382820577	0
3	724	243104.166928707034	0
3	741	248693.794825821501	0
3	758	253600.534265625214	0
3	775	261307.323279042108	0
3	792	264381.537832839738	0
3	811	284863.150461116873	0
3	828	293636.184570867588	0
3	847	306412.408119301419	0
3	865	323907.036765681298	0
3	899	333914.184051122575	0
3	908	336909.748382262029	0
3	916	337561.721043154631	0
3	942	350111.104138633406	812.547376117
3	959	355569.62432399337	92.236927093262
3	975	358192.422273540106	0
3	984	361363.282374396683	0
3	1000	363663.085728245032	0
3	1018	377137.753903078927	0
3	1036	384686.546932576547	0
3	1061	391703.746169236658	0
3	1069	393462.713704572719	0
3	1086	398836.442059646114	0
3	1112	412281.358948453452	0
3	1129	417405.929790677568	0
3	1138	422134.828383785883	0
3	1155	426729.306858982589	0
3	1179	430402.968090804045	0
3	1187	431616.796036563027	0
3	1212	434792.745253092153	0
3	1220	437126.335374655806	0
3	1247	455177.572011216212	879.88618034975
3	1256	456463.486860676622	2.302034955886
3	1281	465534.014970039161	627.90776700779
3	1290	472104.184127863987	0
3	1315	477169.949544203475	0
3	1324	481752.128714200049	0
3	1350	497209.451955365384	1859.9809616687
3	1359	500391.572910930905	0
3	1386	519453.418715508481	0
3	1394	520133.539582263355	0
3	1423	549264.271369770778	0
3	1431	551845.277108169279	0
3	1457	558550.686329584193	0
3	1473	559649.584034603811	0
3	1490	564491.203687087258	0
3	1507	574520.537389961539	2693.4020101775
3	1515	574939.390941529458	243.51913238864
3	1542	588786.097304786045	3490.1276953148
3	1550	592003.726592792719	0
3	1568	603234.666118823029	0
3	1585	608969.092834446416	0
3	1611	623394.701001056717	0
3	1636	626646.946103462048	0
3	1644	627281.415475385532	0
3	1652	627617.395079167142	0
3	1669	634344.284441980269	0
3	1686	636999.70524886033	0
3	1703	645300.650572758238	0
3	1729	654350.672199291926	367.33730610354
3	1761	659104.91023634571	0
3	1769	659330.752911965135	0
3	1778	660385.223792941556	0
3	1795	671380.202720134604	0
3	1837	679076.422259672657	0
3	1845	680501.35425708302	0
3	1853	680871.723691744898	175.2155402953
3	1861	683127.848677781151	0
3	1870	685763.402785357553	0
3	1887	693991.636256590969	0
3	1905	704804.012086140885	0
3	1923	715406.755196197005	0
3	1939	716652.884318392508	0
3	1955	718377.697389397066	0
3	1996	725692.385732709982	0
3	2005	727795.394504866219	0
3	2013	728838.629759581384	0
3	2021	729646.027841769831	0
3	2048	744022.01544778817	1010.167967497
3	2064	745324.320154218812	197.90320678122
3	2080	749447.91497980522	0
3	2089	752405.65322115148	0
3	2107	764091.067041999171	0
3	2125	775481.116868771309	0
3	2143	786280.360989145797	0
3	2160	792905.830127572372	0
3	2185	799878.515539952387	314.26034908416
3	2193	800555.465569552137	0
3	2210	807660.132108247096	0
3	2227	811380.006316707802	0
3	2253	823663.317293908385	0
3	2262	831471.367750941513	0
3	2296	840717.612316707467	0
3	2304	844003.675902940575	0
3	2312	845010.669878594359	0
3	2338	852909.949519638207	0
3	2346	853497.803091207357	337.2965032546
3	2380	868684.269911339137	0
3	2389	870974.845082543666	0
3	2397	873341.175505108026	0
3	2421	875444.641580539684	0
3	2429	875782.552823041547	0
3	2446	878403.800916630064	0
3	2463	885686.307491925293	0
3	2497	899456.880166614346	0
3	2514	900658.313227198924	730.19609971981
3	2522	900821.159717460445	0
3	2530	905484.245953491802	0
3	2556	912498.897390224624	199.55137342993
3	2564	916934.2395794342	0
3	2593	945581.92054716277	0
3	2602	952266.22285516318	0
3	2629	968143.740092494444	532.82903331122
3	2637	969229.094736465182	0
3	2654	977735.59107952775	0
3	2681	995341.083234703647	0
3	2689	995811.655175761311	0
3	2715	1004346.774800191179	0
3	2723	1005410.116590816894	0
3	2766	1021812.995825274914	0
3	2774	1022069.255808805705	0
3	2782	1024154.964227063826	0
3	2807	1029298.117294625269	148.14867472263
3	2815	1030407.640055083086	0
3	2824	1032644.646966667198	0
3	2848	1036857.052252432774	0
3	2856	1037262.47087236014	161.05028697937
3	2881	1039994.052040233858	0
3	2898	1048591.276553345156	0
3	2907	1051281.007323548769	0
3	2925	1065457.603498508145	0
3	2942	1072591.412609842553	0
3	2962	1092320.828975910575	0
3	2978	1094407.427587284142	0
3	3004	1104464.42188722714	0
3	3012	1105235.3435358927	0
3	3038	1119734.882319098641	0
3	3046	1121036.197739197003	0
4	644	207173.044818924274	1
4	646	207173.044818924274	0
4	660	209804.139924923005	1
4	662	209804.139924923005	0
4	670	216627.728406769739	1
4	672	216627.728406769739	0
4	687	223783.62668001284	1
4	689	223783.62668001284	0
4	703	225549.899382820577	1
4	705	225549.899382820577	0
4	722	243104.166928707034	1
4	724	243104.166928707034	0
4	739	248693.794825821501	1
4	741	248693.794825821501	0
4	756	253600.534265625214	1
4	758	253600.534265625214	0
4	773	261307.323279042108	1
4	775	261307.323279042108	0
4	790	264381.537832839738	1
4	792	264381.537832839738	0
4	809	284863.150461116873	1
4	811	284863.150461116873	0
4	826	293636.184570867588	1
4	828	293636.184570867588	0
4	845	306412.408119301419	1
4	847	306412.408119301419	0
4	863	323907.036765681298	1
4	865	323907.036765681298	0
4	897	333914.184051122575	1
4	899	333914.184051122575	0
4	906	336909.748382262029	1
4	908	336909.748382262029	0
4	914	337561.721043154631	1
4	916	337561.721043154631	0
4	937	349298.55676251641	1
4	942	350111.104138633406	0
4	954	355477.387396900108	1
4	959	355569.62432399337	0
4	973	358192.422273540106	1
4	975	358192.422273540106	0
4	982	361363.282374396683	1
4	984	361363.282374396683	0
4	998	363663.085728245032	1
4	1000	363663.085728245032	0
4	1016	377137.753903078927	1
4	1018	377137.753903078927	0
4	1034	384686.546932576547	1
4	1036	384686.546932576547	0
4	1059	391703.746169236658	1
4	1061	391703.746169236658	0
4	1067	393462.713704572719	1
4	1069	393462.713704572719	0
4	1084	398836.442059646114	1
4	1086	398836.442059646114	0
4	1110	412281.358948453452	1
4	1112	412281.358948453452	0
4	1127	417405.929790677568	1
4	1129	417405.929790677568	0
4	1136	422134.828383785883	1
4	1138	422134.828383785883	0
4	1153	426729.306858982589	1
4	1155	426729.306858982589	0
4	1177	430402.968090804045	1
4	1179	430402.968090804045	0
4	1185	431616.796036563027	1
4	1187	431616.796036563027	0
4	1210	434792.745253092153	1
4	1212	434792.745253092153	0
4	1218	437126.335374655806	1
4	1220	437126.335374655806	0
4	1242	454297.685830866461	1
4	1247	455177.572011216212	0
4	1251	456461.184825720736	1
4	1256	456463.486860676622	0
4	1276	464906.107203031375	1
4	1281	465534.014970039161	0
4	1288	472104.184127863987	1
4	1290	472104.184127863987	0
4	1313	477169.949544203475	1
4	1315	477169.949544203475	0
4	1322	481752.128714200049	1
4	1324	481752.128714200049	0
4	1345	495349.470993696662	1
4	1350	497209.451955365384	0
4	1357	500391.572910930905	1
4	1359	500391.572910930905	0
4	1384	519453.418715508481	1
4	1386	519453.418715508481	0
4	1392	520133.539582263355	1
4	1394	520133.539582263355	0
4	1421	549264.271369770778	1
4	1423	549264.271369770778	0
4	1429	551845.277108169279	1
4	1431	551845.277108169279	0
4	1455	558550.686329584193	1
4	1457	558550.686329584193	0
4	1471	559649.584034603811	1
4	1473	559649.584034603811	0
4	1488	564491.203687087258	1
4	1490	564491.203687087258	0
4	1502	571827.135379784007	1
4	1507	574520.537389961539	0
4	1510	574695.871809140817	1
4	1515	574939.390941529458	0
4	1536	585295.969609471249	1
4	1542	588786.097304786045	0
4	1548	592003.726592792719	1
4	1550	592003.726592792719	0
4	1566	603234.666118823029	1
4	1568	603234.666118823029	0
4	1583	608969.092834446416	1
4	1585	608969.092834446416	0
4	1609	623394.701001056717	1
4	1611	623394.701001056717	0
4	1634	626646.946103462048	1
4	1636	626646.946103462048	0
4	1642	627281.415475385532	1
4	1644	627281.415475385532	0
4	1650	627617.395079167142	1
4	1652	627617.395079167142	0
4	1667	634344.284441980269	1
4	1669	634344.284441980269	0
4	1684	636999.70524886033	1
4	1686	636999.70524886033	0
4	1701	645300.650572758238	1
4	1703	645300.650572758238	0
4	1723	653983.334893188386	1
4	1729	654350.672199291926	0
4	1759	659104.91023634571	1
4	1761	659104.91023634571	0
4	1767	659330.752911965135	1
4	1769	659330.752911965135	0
4	1776	660385.223792941556	1
4	1778	660385.223792941556	0
4	1793	671380.202720134604	1
4	1795	671380.202720134604	0
4	1835	679076.422259672657	1
4	1837	679076.422259672657	0
4	1843	680501.35425708302	1
4	1845	680501.35425708302	0
4	1848	680696.508151449599	1
4	1853	680871.723691744898	0
4	1859	683127.848677781151	1
4	1861	683127.848677781151	0
4	1868	685763.402785357553	1
4	1870	685763.402785357553	0
4	1885	693991.636256590969	1
4	1887	693991.636256590969	0
4	1903	704804.012086140885	1
4	1905	704804.012086140885	0
4	1921	715406.755196197005	1
4	1923	715406.755196197005	0
4	1937	716652.884318392508	1
4	1939	716652.884318392508	0
4	1953	718377.697389397066	1
4	1955	718377.697389397066	0
4	1994	725692.385732709982	1
4	1996	725692.385732709982	0
4	2003	727795.394504866219	1
4	2005	727795.394504866219	0
4	2011	728838.629759581384	1
4	2013	728838.629759581384	0
4	2019	729646.027841769831	1
4	2021	729646.027841769831	0
4	2042	743011.847480291183	1
4	2048	744022.01544778817	0
4	2059	745126.416947437592	1
4	2064	745324.320154218812	0
4	2078	749447.91497980522	1
4	2080	749447.91497980522	0
4	2087	752405.65322115148	1
4	2089	752405.65322115148	0
4	2105	764091.067041999171	1
4	2107	764091.067041999171	0
4	2123	775481.116868771309	1
4	2125	775481.116868771309	0
4	2141	786280.360989145797	1
4	2143	786280.360989145797	0
4	2158	792905.830127572372	1
4	2160	792905.830127572372	0
4	2180	799564.25519086823	1
4	2185	799878.515539952387	0
4	2191	800555.465569552137	1
4	2193	800555.465569552137	0
4	2208	807660.132108247096	1
4	2210	807660.132108247096	0
4	2225	811380.006316707802	1
4	2227	811380.006316707802	0
4	2251	823663.317293908385	1
4	2253	823663.317293908385	0
4	2260	831471.367750941513	1
4	2262	831471.367750941513	0
4	2294	840717.612316707467	1
4	2296	840717.612316707467	0
4	2302	844003.675902940575	1
4	2304	844003.675902940575	0
4	2310	845010.669878594359	1
4	2312	845010.669878594359	0
4	2336	852909.949519638207	1
4	2338	852909.949519638207	0
4	2341	853160.506587952753	1
4	2346	853497.803091207357	0
4	2378	868684.269911339137	1
4	2380	868684.269911339137	0
4	2387	870974.845082543666	1
4	2389	870974.845082543666	0
4	2395	873341.175505108026	1
4	2397	873341.175505108026	0
4	2419	875444.641580539684	1
4	2421	875444.641580539684	0
4	2427	875782.552823041547	1
4	2429	875782.552823041547	0
4	2444	878403.800916630064	1
4	2446	878403.800916630064	0
4	2461	885686.307491925293	1
4	2463	885686.307491925293	0
4	2495	899456.880166614346	1
4	2497	899456.880166614346	0
4	2503	899928.117127479112	1
4	2514	900658.313227198924	0
4	2520	900821.159717460445	1
4	2522	900821.159717460445	0
4	2528	905484.245953491802	1
4	2530	905484.245953491802	0
4	2551	912299.346016794698	1
4	2556	912498.897390224624	0
4	2562	916934.2395794342	1
4	2564	916934.2395794342	0
4	2591	945581.92054716277	1
4	2593	945581.92054716277	0
4	2600	952266.22285516318	1
4	2602	952266.22285516318	0
4	2624	967610.911059183219	1
4	2629	968143.740092494444	0
4	2635	969229.094736465182	1
4	2637	969229.094736465182	0
4	2652	977735.59107952775	1
4	2654	977735.59107952775	0
4	2679	995341.083234703647	1
4	2681	995341.083234703647	0
4	2687	995811.655175761311	1
4	2689	995811.655175761311	0
4	2713	1004346.774800191179	1
4	2715	1004346.774800191179	0
4	2721	1005410.116590816894	1
4	2723	1005410.116590816894	0
4	2764	1021812.995825274914	1
4	2766	1021812.995825274914	0
4	2772	1022069.255808805705	1
4	2774	1022069.255808805705	0
4	2780	1024154.964227063826	1
4	2782	1024154.964227063826	0
4	2802	1029149.96861990264	1
4	2807	1029298.117294625269	0
4	2813	1030407.640055083086	1
4	2815	1030407.640055083086	0
4	2822	1032644.646966667198	1
4	2824	1032644.646966667198	0
4	2846	1036857.052252432774	1
4	2848	1036857.052252432774	0
4	2851	1037101.420585380774	1
4	2856	1037262.47087236014	0
4	2879	1039994.052040233858	1
4	2881	1039994.052040233858	0
4	2896	1048591.276553345156	1
4	2898	1048591.276553345156	0
4	2905	1051281.007323548769	1
4	2907	1051281.007323548769	0
4	2923	1065457.603498508145	1
4	2925	1065457.603498508145	0
4	2940	1072591.412609842553	1
4	2942	1072591.412609842553	0
4	2960	1092320.828975910575	1
4	2962	1092320.828975910575	0
4	2976	1094407.427587284142	1
4	2978	1094407.427587284142	0
4	3002	1104464.42188722714	1
4	3004	1104464.42188722714	0
4	3010	1105235.3435358927	1
4	3012	1105235.3435358927	0
4	3036	1119734.882319098641	1
4	3038	1119734.882319098641	0
4	3044	1121036.197739197003	1
4	3046	1121036.197739197003	0
5	634	204000	0
5	667	210000	2
5	668	216000	0
5	677	222000	0
5	710	228000	2
5	711	234000	0
5	712	240000	0
5	729	246000	1
5	746	252000	1
5	771	258000	2
5	788	264000	1
5	797	270000	0
5	798	276000	0
5	799	282000	0
5	816	288000	1
5	830	294000	1
5	834	300000	0
5	843	306000	1
5	852	312000	0
5	853	318000	0
5	867	324000	1
5	879	330000	0
5	904	336000	3
5	921	342000	0
5	922	348000	0
5	947	354000	2
5	980	360000	2
5	1005	366000	1
5	1014	372000	1
5	1023	378000	0
5	1032	384000	1
5	1054	390000	1
5	1082	396000	2
5	1096	402000	0
5	1100	408000	1
5	1117	414000	1
5	1134	420000	1
5	1148	426000	0
5	1192	432000	3
5	1225	438000	2
5	1226	444000	0
5	1227	450000	0
5	1249	456000	2
5	1269	462000	1
5	1286	468000	1
5	1308	474000	1
5	1320	480000	1
5	1329	486000	0
5	1330	492000	0
5	1355	498000	2
5	1364	504000	0
5	1365	510000	0
5	1371	516000	0
5	1399	522000	2
5	1400	528000	0
5	1401	534000	0
5	1407	540000	0
5	1411	546000	1
5	1433	552000	1
5	1445	558000	1
5	1486	564000	3
5	1495	570000	0
5	1520	576000	1
5	1521	582000	0
5	1538	588000	1
5	1555	594000	1
5	1556	600000	0
5	1573	606000	1
5	1590	612000	1
5	1591	618000	0
5	1616	624000	2
5	1662	630000	2
5	1679	636000	1
5	1699	642000	2
5	1708	648000	0
5	1725	654000	1
5	1774	660000	4
5	1783	666000	0
5	1800	672000	1
5	1830	678000	3
5	1866	684000	1
5	1875	690000	0
5	1892	696000	1
5	1901	702000	1
5	1910	708000	0
5	1919	714000	1
5	1971	720000	2
5	1998	726000	4
5	2026	732000	0
5	2035	738000	1
5	2044	744000	0
5	2085	750000	3
5	2094	756000	0
5	2095	762000	0
5	2112	768000	1
5	2121	774000	1
5	2130	780000	0
5	2139	786000	1
5	2156	792000	1
5	2165	798000	0
5	2198	804000	2
5	2220	810000	1
5	2232	816000	1
5	2249	822000	2
5	2258	828000	0
5	2267	834000	0
5	2289	840000	2
5	2317	846000	1
5	2331	852000	1
5	2351	858000	1
5	2360	864000	1
5	2385	870000	2
5	2434	876000	2
5	2451	882000	1
5	2468	888000	1
5	2474	894000	0
5	2505	900000	3
5	2535	906000	1
5	2544	912000	1
5	2569	918000	1
5	2570	924000	0
5	2571	930000	0
5	2572	936000	0
5	2581	942000	1
5	2598	948000	1
5	2607	954000	0
5	2608	960000	0
5	2617	966000	1
5	2642	972000	1
5	2659	978000	1
5	2660	984000	0
5	2661	990000	0
5	2691	996000	2
5	2703	1002000	1
5	2728	1008000	1
5	2745	1014000	2
5	2762	1020000	2
5	2792	1026000	0
5	2820	1032000	2
5	2866	1038000	2
5	2886	1044000	2
5	2903	1050000	1
5	2912	1056000	0
5	2921	1062000	1
5	2930	1068000	0
5	2947	1074000	1
5	2948	1080000	0
5	2949	1086000	0
5	2958	1092000	1
5	2983	1098000	1
5	3000	1104000	2
5	3017	1110000	0
5	3026	1116000	1
5	3051	1122000	1
6	634	204000	0
6	667	210000	2
6	668	216000	0
6	677	222000	1
6	710	228000	2
6	711	234000	0
6	712	240000	0
6	729	246000	1
6	746	252000	1
6	771	258000	1
6	788	264000	1
6	797	270000	1
6	798	276000	0
6	799	282000	0
6	816	288000	1
6	830	294000	0
6	834	300000	1
6	843	306000	0
6	852	312000	1
6	853	318000	0
6	867	324000	0
6	879	330000	1
6	904	336000	1
6	921	342000	2
6	922	348000	0
6	947	354000	1
6	980	360000	2
6	1005	366000	2
6	1014	372000	0
6	1023	378000	1
6	1032	384000	0
6	1054	390000	1
6	1082	396000	2
6	1096	402000	1
6	1100	408000	0
6	1117	414000	1
6	1134	420000	1
6	1148	426000	1
6	1192	432000	3
6	1225	438000	2
6	1226	444000	0
6	1227	450000	0
6	1249	456000	0
6	1269	462000	2
6	1286	468000	1
6	1308	474000	1
6	1320	480000	1
6	1329	486000	1
6	1330	492000	0
6	1355	498000	1
6	1364	504000	1
6	1365	510000	0
6	1371	516000	0
6	1399	522000	2
6	1400	528000	0
6	1401	534000	0
6	1407	540000	0
6	1411	546000	0
6	1433	552000	1
6	1445	558000	1
6	1486	564000	2
6	1495	570000	1
6	1520	576000	2
6	1521	582000	0
6	1538	588000	0
6	1555	594000	2
6	1556	600000	0
6	1573	606000	1
6	1590	612000	1
6	1591	618000	0
6	1616	624000	1
6	1662	630000	3
6	1679	636000	1
6	1699	642000	1
6	1708	648000	1
6	1725	654000	0
6	1774	660000	3
6	1783	666000	1
6	1800	672000	1
6	1830	678000	0
6	1866	684000	4
6	1875	690000	1
6	1892	696000	1
6	1901	702000	0
6	1910	708000	1
6	1919	714000	0
6	1971	720000	3
6	1998	726000	0
6	2026	732000	4
6	2035	738000	0
6	2044	744000	0
6	2085	750000	3
6	2094	756000	1
6	2095	762000	0
6	2112	768000	1
6	2121	774000	0
6	2130	780000	1
6	2139	786000	0
6	2156	792000	1
6	2165	798000	1
6	2198	804000	2
6	2220	810000	1
6	2232	816000	1
6	2249	822000	0
6	2258	828000	1
6	2267	834000	1
6	2289	840000	0
6	2317	846000	3
6	2331	852000	0
6	2351	858000	2
6	2360	864000	0
6	2385	870000	1
6	2434	876000	4
6	2451	882000	1
6	2468	888000	1
6	2474	894000	0
6	2505	900000	0
6	2535	906000	4
6	2544	912000	0
6	2569	918000	2
6	2570	924000	0
6	2571	930000	0
6	2572	936000	0
6	2581	942000	0
6	2598	948000	1
6	2607	954000	1
6	2608	960000	0
6	2617	966000	0
6	2642	972000	2
6	2659	978000	1
6	2660	984000	0
6	2661	990000	0
6	2691	996000	1
6	2703	1002000	1
6	2728	1008000	2
6	2745	1014000	0
6	2762	1020000	0
6	2792	1026000	3
6	2820	1032000	2
6	2866	1038000	3
6	2886	1044000	1
6	2903	1050000	1
6	2912	1056000	1
6	2921	1062000	0
6	2930	1068000	1
6	2947	1074000	1
6	2948	1080000	0
6	2949	1086000	0
6	2958	1092000	0
6	2983	1098000	2
6	3000	1104000	0
6	3017	1110000	2
6	3026	1116000	0
6	3051	1122000	2
7	641	206949.039714949852	2
7	643	207173.044818924274	1
7	657	209122.508429973839	2
7	659	209804.139924923005	1
7	669	216627.728406769739	0
7	684	223587.808189224017	1
7	686	223783.62668001284	0
7	700	224982.824433272961	1
7	702	225549.899382820577	0
7	719	241426.620705457458	1
7	721	243104.166928707034	0
7	736	247485.273164961739	1
7	738	248693.794825821501	0
7	753	253422.118294306623	1
7	755	253600.534265625214	0
7	769	257115.168192242324	1
7	772	261307.323279042108	0
7	786	263963.288870898004	1
7	789	264381.537832839738	0
7	806	284398.691680629629	1
7	808	284863.150461116873	0
7	823	292838.846234743941	1
7	825	293636.184570867588	0
7	841	303807.709650681996	1
7	844	306412.408119301419	0
7	860	320328.375616567219	1
7	862	323907.036765681298	0
7	881	330415.498198696838	1
7	889	332673.060929685619	2
7	894	333495.564428896111	3
7	896	333914.184051122575	2
7	905	336909.748382262029	1
7	913	337561.721043154631	0
7	932	349265.848836614606	1
7	936	349298.55676251641	0
7	940	350111.104138633406	1
7	953	355477.387396900108	0
7	957	355569.62432399337	1
7	970	356181.703554067955	2
7	972	358192.422273540106	1
7	981	361363.282374396683	0
7	995	362875.095690612637	1
7	997	363663.085728245032	0
7	1012	370145.231750510423	1
7	1015	377137.753903078927	0
7	1030	381910.831278443097	1
7	1033	384686.546932576547	0
7	1050	389326.598624654085	1
7	1056	391339.571314913734	2
7	1058	391703.746169236658	1
7	1066	393462.713704572719	0
7	1080	395212.776682218902	1
7	1083	398836.442059646114	0
7	1098	403260.379096735339	1
7	1107	411348.793339910479	2
7	1109	412281.358948453452	1
7	1124	415149.115545074905	2
7	1126	417405.929790677568	1
7	1135	422134.828383785883	0
7	1150	426312.869928100587	1
7	1152	426729.306858982589	0
7	1169	427516.144795440078	1
7	1174	428439.657306653819	2
7	1176	430402.968090804045	1
7	1184	431616.796036563027	0
7	1202	432200.773027722158	1
7	1207	432491.242363888991	2
7	1209	434792.745253092153	1
7	1217	437126.335374655806	0
7	1237	454051.877697914272	1
7	1241	454297.685830866461	0
7	1245	455177.572011216212	1
7	1250	456461.184825720736	0
7	1267	460237.754361425949	1
7	1275	464906.107203031375	0
7	1279	465534.014970039161	1
7	1287	472104.184127863987	0
7	1301	472761.866512272315	1
7	1310	474574.813633195995	2
7	1312	477169.949544203475	1
7	1321	481752.128714200049	0
7	1340	495217.00615658862	1
7	1344	495349.470993696662	0
7	1348	497209.451955365384	1
7	1356	500391.572910930905	0
7	1373	516687.489855535143	1
7	1381	519157.040513033176	2
7	1383	519453.418715508481	1
7	1391	520133.539582263355	0
7	1409	541509.210245458085	1
7	1418	548606.403251126602	2
7	1420	549264.271369770778	1
7	1428	551845.277108169279	0
7	1443	557362.130878983099	1
7	1452	558164.808740907669	2
7	1454	558550.686329584193	1
7	1468	559588.689172769497	2
7	1470	559649.584034603811	1
7	1484	562435.117270699594	2
7	1487	564491.203687087258	1
7	1501	571827.135379784007	0
7	1505	574520.537389961539	1
7	1509	574695.871809140817	0
7	1531	585183.07452219086	1
7	1535	585295.969609471249	0
7	1540	588786.097304786045	1
7	1547	592003.726592792719	0
7	1563	601859.721890187707	1
7	1565	603234.666118823029	0
7	1580	606282.379739407497	1
7	1582	608969.092834446416	0
7	1598	622783.667082010556	1
7	1606	622879.910054927149	2
7	1608	623394.701001056717	1
7	1623	625379.504143565045	2
7	1631	626393.046150473449	3
7	1633	626646.946103462048	2
7	1641	627281.415475385532	1
7	1649	627617.395079167142	0
7	1664	630298.089004965359	1
7	1666	634344.284441980269	0
7	1681	636465.061869869016	1
7	1683	636999.70524886033	0
7	1697	639786.196171512618	1
7	1700	645300.650572758238	0
7	1715	651143.122922159691	1
7	1722	653983.334893188386	0
7	1727	654350.672199291926	1
7	1743	657458.671622964727	2
7	1748	657669.918901864614	3
7	1756	657976.070489876902	4
7	1758	659104.91023634571	3
7	1766	659330.752911965135	2
7	1775	660385.223792941556	1
7	1790	668924.181501331851	2
7	1792	671380.202720134604	1
7	1810	676011.101119588847	2
7	1818	676890.138137785561	3
7	1826	677750.962477215226	4
7	1832	678479.659894199979	5
7	1834	679076.422259672657	4
7	1842	680501.35425708302	3
7	1847	680696.508151449599	2
7	1858	683127.848677781151	1
7	1867	685763.402785357553	0
7	1882	692040.97331478033	1
7	1884	693991.636256590969	0
7	1899	699220.509516799539	1
7	1902	704804.012086140885	0
7	1917	709951.572605382861	1
7	1920	715406.755196197005	0
7	1934	716155.254763760209	1
7	1936	716652.884318392508	0
7	1950	717827.407423485045	1
7	1952	718377.697389397066	0
7	1976	721006.76351920224	1
7	1981	721798.070729570634	2
7	1986	722223.831892935871	3
7	1991	725089.497768231499	4
7	1993	725692.385732709982	3
7	2002	727795.394504866219	2
7	2010	728838.629759581384	1
7	2018	729646.027841769831	0
7	2033	736462.565766089827	1
7	2041	743011.847480291183	0
7	2046	744022.01544778817	1
7	2058	745126.416947437592	0
7	2062	745324.320154218812	1
7	2075	748845.817439687321	2
7	2077	749447.91497980522	1
7	2086	752405.65322115148	0
7	2102	764065.174370747022	1
7	2104	764091.067041999171	0
7	2119	773540.341413394391	1
7	2122	775481.116868771309	0
7	2137	780390.976526081529	1
7	2140	786280.360989145797	0
7	2154	791879.995102124851	1
7	2157	792905.830127572372	0
7	2172	798352.478834039496	1
7	2179	799564.25519086823	0
7	2183	799878.515539952387	1
7	2190	800555.465569552137	0
7	2205	806282.242800986645	1
7	2207	807660.132108247096	0
7	2222	810162.431440206864	1
7	2224	811380.006316707802	0
7	2242	821711.820667378158	1
7	2247	821986.284863662061	2
7	2250	823663.317293908385	1
7	2259	831471.367750941513	0
7	2274	836028.541574150551	1
7	2282	837648.103737684923	2
7	2291	840291.854321189246	3
7	2293	840717.612316707467	2
7	2301	844003.675902940575	1
7	2309	845010.669878594359	0
7	2324	849421.552354614915	1
7	2333	852697.912409054889	2
7	2335	852909.949519638207	1
7	2340	853160.506587952753	0
7	2358	863926.187676074696	1
7	2367	865347.761648949502	2
7	2375	868659.286105757155	3
7	2377	868684.269911339137	2
7	2386	870974.845082543666	1
7	2394	873341.175505108026	0
7	2408	873999.755280891253	1
7	2416	875287.329360619073	2
7	2418	875444.641580539684	1
7	2426	875782.552823041547	0
7	2441	877785.047532299849	1
7	2443	878403.800916630064	0
7	2458	885397.262903347261	1
7	2460	885686.307491925293	0
7	2482	896309.910373999638	1
7	2487	897342.042058389078	2
7	2492	897381.019966916721	3
7	2494	899456.880166614346	2
7	2502	899928.117127479112	1
7	2512	900658.313227198924	2
7	2519	900821.159717460445	1
7	2527	905484.245953491802	0
7	2542	908828.194901152014	1
7	2550	912299.346016794698	0
7	2554	912498.897390224624	1
7	2561	916934.2395794342	0
7	2579	941275.287844745927	1
7	2588	945197.79459996141	2
7	2590	945581.92054716277	1
7	2599	952266.22285516318	0
7	2615	961613.398875778729	1
7	2623	967610.911059183219	0
7	2627	968143.740092494444	1
7	2634	969229.094736465182	0
7	2649	977590.272843158227	1
7	2651	977735.59107952775	0
7	2671	994873.520938774946	1
7	2676	995113.826412445583	2
7	2678	995341.083234703647	1
7	2686	995811.655175761311	0
7	2701	1000653.355990567298	1
7	2710	1002691.251103677101	2
7	2712	1004346.774800191179	1
7	2720	1005410.116590816894	0
7	2735	1011711.585177282665	1
7	2743	1012706.82321396335	2
7	2755	1018979.371998598017	3
7	2760	1019868.090512238624	4
7	2763	1021812.995825274914	3
7	2771	1022069.255808805705	2
7	2779	1024154.964227063826	1
7	2794	1027074.784163752455	2
7	2801	1029149.96861990264	1
7	2805	1029298.117294625269	2
7	2812	1030407.640055083086	1
7	2821	1032644.646966667198	0
7	2835	1034167.870572178334	1
7	2843	1035904.883976810922	2
7	2845	1036857.052252432774	1
7	2850	1037101.420585380774	0
7	2871	1039281.123487544418	1
7	2876	1039413.804002724793	2
7	2878	1039994.052040233858	1
7	2893	1045952.908184863395	2
7	2895	1048591.276553345156	1
7	2904	1051281.007323548769	0
7	2919	1061678.462420721979	1
7	2922	1065457.603498508145	0
7	2937	1068749.646956623742	1
7	2939	1072591.412609842553	0
7	2956	1088627.560642213598	1
7	2959	1092320.828975910575	0
7	2973	1093478.650951723402	1
7	2975	1094407.427587284142	0
7	2990	1098665.957889537984	1
7	2998	1102523.963541491661	2
7	3001	1104464.42188722714	1
7	3009	1105235.3435358927	0
7	3024	1115475.689576119794	1
7	3033	1118674.256990181938	2
7	3035	1119734.882319098641	1
7	3043	1121036.197739197003	0
7	3058	1123099.689177797352	1
