file 49349 1483893098                                           
version 2
run ParkingMeasurement-118-20170108-17:31:38-5867
attr configname ParkingMeasurement
attr datetime 20170108-17:31:38
attr experiment ParkingMeasurement
attr inifile parkingStudy.ini
attr iterationvars ""
attr iterationvars2 $repetition=118
attr measurement ""
attr network controltower.SimNetwork
attr processid 5867
attr repetition 118
attr replication #118
attr resultdir results
attr runnumber 118
attr seedset 118
param SimNetwork.a.parkingLot.parkingDelay exponential(60min)
param SimNetwork.a.runway.landingTime exponential(15min)
param SimNetwork.a.runway.takeoffTime exponential(5min)
param SimNetwork.a.runway.throughputCheckInterval 100min
param SimNetwork.wg.interArrivalTime exponential(100min)

vector 2  SimNetwork.a.landingQueue  queueLength:vector  ETV
attr source  queueLengthSignal
vector 1  SimNetwork.a.landingQueue  queueTime:vector  ETV
attr source  queueTimeSignal
vector 7  SimNetwork.a.parkingLot  parkingOccupancy:vector  ETV
attr source  parkingOccupancy
vector 4  SimNetwork.a.takeoffQueue  queueLength:vector  ETV
attr source  queueLengthSignal
vector 3  SimNetwork.a.takeoffQueue  queueTime:vector  ETV
attr source  queueTimeSignal
vector 0  SimNetwork.wg  responseTime:vector  ETV
attr source  responseTimeSignal
vector 5  SimNetwork.a.runway  landedThroughput:vector  ETV
attr source  landedThroughputSignal
vector 6  SimNetwork.a.runway  tookoffThroughput:vector  ETV
attr source  tookoffThroughputSignal
0	1448 6588 488 3089 201654.960781178215 1118792.445783327828 154 2321.1106538423 41130.427775897 1661339.4640804 23951458869.35
1	8036 4847 477 3077 200520.236376672195 1115745.127210144691 154 0 5297.2555823483 30578.42894243 74249035.932712
2	12883 8864 475 3077 200520.236376672195 1115745.127210144691 308 0 2 160 166
3	21747 4929 485 3086 201391.06613142642 1118768.39303208538 154 0 7737.5982088649 44690.567453087 165955756.20061
4	26676 8887 480 3086 200646.778847657634 1118768.39303208538 308 0 3 166 186
5	35563 2456 490 3091 204000 1122000 154 0 6 154 284
6	38019 2456 490 3091 204000 1122000 154 0 4 155 313
7	40475 8874 479 3083 200646.778847657634 1118768.39303208538 308 0 4 282 478
