file 82497 1484074148                                           
version 2
run ResponseMeasurement-92-20170110-19:49:08-23126
attr configname ResponseMeasurement
attr datetime 20170110-19:49:08
attr experiment ResponseMeasurement
attr inifile responseStudy.ini
attr iterationvars ""
attr iterationvars2 $repetition=92
attr measurement ""
attr network controltower.SimNetwork
attr processid 23126
attr repetition 92
attr replication #92
attr resultdir results
attr runnumber 92
attr seedset 92
param SimNetwork.a.parkingLot.parkingDelay "truncnormal(30min, 3min)"
param SimNetwork.a.runway.landingTime "truncnormal(5min, 0.5min)"
param SimNetwork.a.runway.takeoffTime "truncnormal(5min, 0.5min)"
param SimNetwork.a.runway.throughputCheckInterval 50min
param SimNetwork.wg.interArrivalTime exponential(50min)

vector 2  SimNetwork.a.landingQueue  queueLength:vector  ETV
attr source  queueLengthSignal
vector 1  SimNetwork.a.landingQueue  queueTime:vector  ETV
attr source  queueTimeSignal
vector 5  SimNetwork.a.runway  landedThroughput:vector  ETV
attr source  landedThroughputSignal
vector 6  SimNetwork.a.runway  tookoffThroughput:vector  ETV
attr source  tookoffThroughputSignal
vector 7  SimNetwork.a.parkingLot  parkingOccupancy:vector  ETV
attr source  parkingOccupancy
vector 4  SimNetwork.a.takeoffQueue  queueLength:vector  ETV
attr source  queueLengthSignal
vector 3  SimNetwork.a.takeoffQueue  queueTime:vector  ETV
attr source  queueTimeSignal
vector 0  SimNetwork.wg  responseTime:vector  ETV
attr source  responseTimeSignal
0	1473 11072 870 5260 143458.712647425331 1001394.245739011295 259 2308.4229805976 19980.285469887 1492747.9195681 10834580247.627
1	12545 8006 834 5248 140893.078271991754 998987.790405771594 259 0 299.95939156382 5426.5273172444 1006355.4305169
2	20551 14928 832 5248 140893.078271991754 998987.790405771594 518 0 1 259 259
3	35479 7920 867 5257 143177.141322888864 1001092.489141023573 259 0 492.14887975644 5746.1587212159 1485720.2940961
4	43399 14952 865 5257 143177.141322888864 1001092.489141023573 518 0 2 261 263
5	58351 4602 836 5262 141000 1002000 288 0 4 259 475
6	62953 4602 836 5262 141000 1002000 288 0 3 262 444
7	67555 14942 838 5254 141208.121817826094 1001092.489141023573 518 0 4 517 891
