version 2
run WarmupMeasurement-2-20170109-15:30:58-1895
attr configname WarmupMeasurement
attr datetime 20170109-15:30:58
attr experiment WarmupMeasurement
attr inifile responseStudy.ini
attr iterationvars ""
attr iterationvars2 $repetition=2
attr measurement ""
attr network controltower.SimNetwork
attr processid 1895
attr repetition 2
attr replication #2
attr resultdir results
attr runnumber 2
attr seedset 2
param SimNetwork.a.parkingLot.parkingDelay "truncnormal(30min, 3min)"
param SimNetwork.a.runway.landingTime "truncnormal(5min, 0.5min)"
param SimNetwork.a.runway.takeoffTime "truncnormal(5min, 0.5min)"
param SimNetwork.a.runway.throughputCheckInterval 50min
param SimNetwork.wg.interArrivalTime exponential(50min)

statistic SimNetwork.wg 	responseTime:stats
field count 146
field mean 5462.8938569015
field stddev 2777.6962059224
field sum 797582.50310762
field sqrsum 5475870007.3962
field min 2398.6541302733
field max 17357.914429571
attr source  responseTimeSignal
scalar SimNetwork.a.landingQueue 	queueLength:timeavg 	0.013531991014369
attr source  queueLengthSignal
statistic SimNetwork.a.landingQueue 	queueLength:stats
field count 296
field mean 0.51351351351351
field stddev 0.51402679461238
field sum 152
field sqrsum 156
field min 0
field max 2
attr source  queueLengthSignal
statistic SimNetwork.a.landingQueue 	queueTime:stats
field count 148
field mean 39.341696821856
field stddev 89.235187445636
field sum 5822.5711296346
field sqrsum 1399618.8738391
field min 0
field max 403.92652664719
attr source  queueTimeSignal
scalar SimNetwork.a.takeoffQueue 	queueLength:timeavg 	0.025094537865768
attr source  queueLengthSignal
statistic SimNetwork.a.takeoffQueue 	queueLength:stats
field count 292
field mean 0.54794520547945
field stddev 0.55714283127784
field sum 160
field sqrsum 178
field min 0
field max 3
attr source  queueLengthSignal
statistic SimNetwork.a.takeoffQueue 	queueTime:stats
field count 146
field mean 73.558013697077
field stddev 215.22307645123
field sum 10739.469999773
field sqrsum 7506515.1137267
field min 0
field max 1605.6095383034
attr source  queueTimeSignal
scalar SimNetwork.a.parkingLot 	parkingOccupancy:timeavg 	0.61780417460936
attr source  parkingOccupancy
statistic SimNetwork.a.parkingLot 	parkingOccupancy:stats
field count 294
field mean 1.1598639455782
field stddev 1.0244225786516
field sum 341
field sqrsum 703
field min 0
field max 5
attr source  parkingOccupancy
