file 352691 1484073392                                          
version 2
run ResponseMeasurement-146-20170110-19:36:31-21769
attr configname ResponseMeasurement
attr datetime 20170110-19:36:31
attr experiment ResponseMeasurement
attr inifile responseStudy.ini
attr iterationvars ""
attr iterationvars2 $repetition=146
attr measurement ""
attr network controltower.SimNetwork
attr processid 21769
attr repetition 146
attr replication #146
attr resultdir results
attr runnumber 146
attr seedset 146
param SimNetwork.a.parkingLot.parkingDelay "truncnormal(60min, 6min)"
param SimNetwork.a.runway.landingTime "truncnormal(5min, 0.5min)"
param SimNetwork.a.runway.takeoffTime "truncnormal(5min, 0.5min)"
param SimNetwork.a.runway.throughputCheckInterval 14.286min
param SimNetwork.wg.interArrivalTime exponential(14.286min)

vector 0  SimNetwork.wg  responseTime:vector  ETV
attr source  responseTimeSignal
vector 4  SimNetwork.a.takeoffQueue  queueLength:vector  ETV
attr source  queueLengthSignal
vector 3  SimNetwork.a.takeoffQueue  queueTime:vector  ETV
attr source  queueTimeSignal
vector 5  SimNetwork.a.runway  landedThroughput:vector  ETV
attr source  landedThroughputSignal
vector 6  SimNetwork.a.runway  tookoffThroughput:vector  ETV
attr source  tookoffThroughputSignal
vector 2  SimNetwork.a.landingQueue  queueLength:vector  ETV
attr source  queueLengthSignal
vector 1  SimNetwork.a.landingQueue  queueTime:vector  ETV
attr source  queueTimeSignal
vector 7  SimNetwork.a.parkingLot  parkingOccupancy:vector  ETV
attr source  parkingOccupancy
0	1487 45450 2100 19801 100224.851838719906 964218.974770965415 1049 3859.6389972759 13316.379586512 6395443.3509241 41695869672.666
1	46937 41030 2111 19790 100479.439374367864 963646.387342317501 1042 0 1238.516736317 176258.10744909 65874895.26074
2	87967 61370 2106 19790 100344.662507331648 963646.387342317501 2084 0 4 1474 2102
3	149337 41632 2102 19803 100224.851838719906 964218.974770965415 1049 0 8222.1521236865 943207.17688388 3114792134.6262
4	190969 61512 2102 19803 100224.851838719906 964218.974770965415 2088 0 14 3622 19064
5	252481 19449 2104 19783 100287.72 963447.84 1008 0 3 1043 1921
6	271930 19449 2104 19783 100287.72 963447.84 1008 0 3 1047 1895
7	291379 61312 2114 19797 100813.007514859294 963940.586527315386 2081 0 12 10048 57548
