version 2
run ResponseMeasurement-7-20170110-19:35:37-21629
attr configname ResponseMeasurement
attr datetime 20170110-19:35:37
attr experiment ResponseMeasurement
attr inifile responseStudy.ini
attr iterationvars ""
attr iterationvars2 $repetition=7
attr measurement ""
attr network controltower.SimNetwork
attr processid 21629
attr repetition 7
attr replication #7
attr resultdir results
attr runnumber 7
attr seedset 7
param SimNetwork.a.parkingLot.parkingDelay "truncnormal(60min, 6min)"
param SimNetwork.a.runway.landingTime "truncnormal(5min, 0.5min)"
param SimNetwork.a.runway.takeoffTime "truncnormal(5min, 0.5min)"
param SimNetwork.a.runway.throughputCheckInterval 14.286min
param SimNetwork.wg.interArrivalTime exponential(14.286min)

statistic SimNetwork.wg 	responseTime:stats
field count 997
field mean 5791.0735738551
field stddev 1088.8113591684
field sum 5773700.3531335
field sqrsum 34616691673.54
field min 3588.3984491919
field max 10162.640616281
attr source  responseTimeSignal
scalar SimNetwork.a.landingQueue 	queueLength:timeavg 	0.17803413952708
attr source  queueLengthSignal
statistic SimNetwork.a.landingQueue 	queueLength:stats
field count 1990
field mean 0.66482412060302
field stddev 0.65427306767132
field sum 1323
field sqrsum 1731
field min 0
field max 4
attr source  queueLengthSignal
statistic SimNetwork.a.landingQueue 	queueTime:stats
field count 995
field mean 154.53061127782
field stddev 165.86575038527
field sum 153757.95822143
field sqrsum 51106689.740753
field min 0
field max 1167.359470684
attr source  queueTimeSignal
scalar SimNetwork.a.takeoffQueue 	queueLength:timeavg 	0.65658710870786
attr source  queueLengthSignal
statistic SimNetwork.a.takeoffQueue 	queueLength:stats
field count 1992
field mean 1.1696787148594
field stddev 1.3563194713919
field sum 2330
field sqrsum 6388
field min 0
field max 9
attr source  queueLengthSignal
statistic SimNetwork.a.takeoffQueue 	queueTime:stats
field count 996
field mean 569.3322457952
field stddev 792.7540925846
field sum 567054.91681202
field sqrsum 948159405.33088
field min 0
field max 4066.1764646295
attr source  queueTimeSignal
scalar SimNetwork.a.parkingLot 	parkingOccupancy:timeavg 	4.1414439386083
attr source  parkingOccupancy
statistic SimNetwork.a.parkingLot 	parkingOccupancy:stats
field count 1991
field mean 4.6413862380713
field stddev 1.9909278882654
field sum 9241
field sqrsum 50779
field min 0
field max 11
attr source  parkingOccupancy
