version 2
run ParkingMeasurement-1-20170106-02:04:23-11796
attr configname ParkingMeasurement
attr datetime 20170106-02:04:23
attr experiment ParkingMeasurement
attr inifile parkingStudy.ini
attr iterationvars ""
attr iterationvars2 $repetition=1
attr measurement ""
attr network SimNetwork
attr processid 11796
attr repetition 1
attr replication #1
attr resultdir results
attr runnumber 1
attr seedset 1
param SimNetwork.a.parkingLot.parkingDelay "truncnormal(30min, 3min)"
param SimNetwork.a.runway.landingTime "truncnormal(15min, 1.5min)"
param SimNetwork.a.runway.takeoffTime "truncnormal(5min, 0.5min)"
param SimNetwork.a.runway.throughputCheckInterval 100min
param SimNetwork.wg.interArrivalTime exponential(100min)

vector 5  SimNetwork.a.runway  landedThroughput:vector  ETV
attr source  landedThroughputSignal
vector 6  SimNetwork.a.runway  tookoffThroughput:vector  ETV
attr source  tookoffThroughputSignal
vector 2  SimNetwork.a.landingQueue  queueLength:vector  ETV
attr source  queueLengthSignal
vector 1  SimNetwork.a.landingQueue  queueTime:vector  ETV
attr source  queueTimeSignal
vector 7  SimNetwork.a.parkingLot  parkingOccupancy:vector  ETV
attr source  parkingOccupancy
vector 4  SimNetwork.a.takeoffQueue  queueLength:vector  ETV
attr source  queueLengthSignal
vector 3  SimNetwork.a.takeoffQueue  queueTime:vector  ETV
attr source  queueTimeSignal
vector 0  SimNetwork.wg  responseTime:vector  ETV
attr source  responseTimeSignal
0	529	208251.433143361742	16184.311414182
0	546	212066.960608425407	6973.5447434474
0	576	247281.598316361425	38408.357220236
0	584	248827.476067209465	4416.2165778926
0	629	258256.049327773054	12565.956674603
0	634	258594.320017137566	4453.8941783129
0	642	259344.460376844578	4069.5643718103
0	650	260071.92515486605	4624.7400962646
0	668	270783.557088900154	14689.957140826
0	688	280978.164595275896	13086.689511235
0	702	283996.839339081858	6045.645617907
0	726	287315.575193336308	6419.6095580153
0	735	288313.154064719733	4061.4780738169
0	752	296627.624568475884	12102.499732846
0	779	317372.94601668957	23709.403004254
0	788	318264.557563773936	4083.0749589511
0	821	324021.853773566504	8850.1527786991
0	829	324959.431145268651	4563.2819895418
0	837	325948.034595077307	4180.2488446503
0	854	331867.972142329326	9076.9410184583
0	871	337276.651554817745	8167.4471751506
0	892	352179.027467319123	17868.458238718
0	925	356096.097804690506	6892.1206405519
0	930	356394.571514810829	4417.5796209139
0	938	357565.638060476871	4526.751474274
0	955	363271.603732448158	8423.531163873
0	972	371822.145487194098	11817.669041741
0	989	375129.111050534139	6249.4898904335
0	1008	393333.616112661385	21114.75794456
0	1027	409216.09424261353	19001.670859355
0	1043	413821.679200512394	7956.6110660023
0	1068	419172.682933480996	8522.5933384833
0	1077	420215.202671634861	3927.6496314449
0	1101	424486.941420651096	7328.6846679387
0	1109	425997.832709262872	5147.5094296714
0	1126	430391.135683386968	7119.4387315474
0	1152	442543.531964796373	14685.556762845
0	1161	444541.405177758573	5507.7197478219
0	1185	448753.458789295677	7169.2383175703
0	1194	450257.376384881672	4630.1052367758
0	1220	463811.007389989619	16468.033207956
0	1236	465532.466692365558	4786.1714662444
0	1244	467746.587677660484	6704.2887685303
0	1262	476426.360862281719	12113.694973874
0	1279	482190.343013048555	8622.4511165816
0	1296	488980.551747247558	10282.734638593
0	1313	496035.811615154361	10163.76214854
0	1330	499687.870064629769	6630.7135240832
0	1360	502601.089563360115	5764.2810563249
0	1379	504875.922830991192	4959.3464525821
0	1387	505573.536372257039	4554.6430419671
0	1395	506679.101176634389	4332.0628010345
0	1421	518635.35042083376	16093.44425799
0	1429	519441.966732418007	4178.5650041023
0	1446	523840.655537187084	7349.009263342
0	1463	530060.7041019816	9177.5847151534
0	1491	554328.019065794422	27376.498964163
0	1499	554786.220274640952	3451.6509014579
0	1516	559444.341167561239	7654.16332881
0	1542	570892.918092535047	14045.970413194
0	1550	572806.951189985429	5010.1131931465
0	1567	576406.528905967623	6826.3801294432
0	1593	588456.613997727143	14949.695753952
0	1601	590203.532644338289	5246.6438784007
0	1618	594409.681927036054	7145.6632638474
0	1634	598752.479761986948	7597.8005675879
0	1651	602824.061076718613	7384.8606037889
0	1668	606030.614182458702	6195.6954405758
0	1694	618372.127387089794	15542.440125641
0	1702	620187.820637709485	5271.3424763207
0	1719	627438.357424314981	10195.080400267
0	1739	648471.278641402163	23933.409462464
0	1756	654151.462793505182	8660.7187448625
0	1781	660198.971507037119	8705.2460099866
0	1789	661486.74026838175	4261.8128545249
0	1806	666042.913938563049	7892.0415258767
0	1822	670689.328942343662	7693.4059946692
0	1842	675027.951819504118	7547.3471826882
0	1855	677871.941436321539	5810.7643639979
0	1872	681842.262430955736	7041.7054876816
0	1893	709496.272050725455	30684.116931981
0	1910	715642.914875125933	9346.8941579254
0	1927	720041.86510916671	7502.3023640594
0	1943	723451.008310702402	6649.4872765057
0	1998	729352.438650837619	8522.5177581513
0	2003	729607.656492467525	5899.6792620114
0	2011	729903.077424739234	4707.9917758626
0	2016	730226.237973803116	4834.0103484729
0	2027	731428.32657114308	5183.7470044595
0	2041	734321.339594510055	6574.9606939977
0	2057	737716.461705217243	6306.4511632907
0	2075	746004.968288903732	11235.190529279
0	2091	749545.403655654674	6799.4596404515
0	2112	775078.932452943543	28651.586412936
0	2128	779447.988808173246	6990.1430188886
0	2149	807469.439950894456	31423.625771163
0	2167	816634.479977044318	12017.322584023
0	2184	822436.877613877325	8899.7336136386
0	2218	836454.616855765723	17286.054057962
0	2226	837617.065498586014	4299.7868867582
0	2234	838147.626504205786	4344.5263868651
0	2259	843082.278335326655	8032.3696205254
0	2267	843991.237537122456	4082.4425306512
0	2285	856146.215511246129	15094.595261585
0	2305	881072.420639015289	27567.612447449
0	2323	890023.03696614612	12273.140586855
0	2339	893839.219067700036	7210.5608103742
0	2364	898420.620125792156	7483.7228095239
0	2373	900394.785944758741	5484.2573689295
0	2405	904528.145585567061	7250.5567392862
0	2413	905271.985248663441	3650.077139752
0	2422	906029.860359099034	4351.5969485387
0	2443	920892.638065898844	17841.795937806
0	2464	923933.875937946157	5992.3433120421
0	2473	925604.606648672221	4806.0079519921
0	2491	936645.921098925526	14300.060388846
0	2511	944401.336335647197	10408.080328193
0	2524	947261.656183852176	6006.9148572427
0	2541	951380.163497838989	7068.928482611
0	2560	967085.402528539289	18648.192949699
0	2579	989707.516245744993	25473.444365673
0	2605	997903.269351851931	11293.720943239
0	2613	999747.571612884868	5688.0723839294
0	2632	1018597.4077088085	21713.710858159
0	2649	1024891.961386387023	9373.619239305
0	2667	1034246.164120256531	12098.842632518
0	2692	1038075.371842166841	7068.1783965669
0	2708	1039715.460426128186	5039.9153324465
0	2724	1041568.277841278681	4640.0789714518
0	2732	1043185.575425569259	4764.8063660649
0	2749	1047177.90969186005	7004.796660238
0	2767	1059003.186985240591	14616.714280972
0	2811	1066706.474081581649	10397.220206398
0	2816	1066983.783774353684	3977.4790344668
0	2824	1067366.076325852585	3492.3482218132
0	2833	1068358.390593284269	4453.1408030534
0	2858	1078085.645311700186	13517.027356324
0	2866	1079932.598380767559	4718.1203513553
0	2884	1088886.423710212938	11970.43892181
0	2902	1100013.225125772657	14179.244960063
0	2935	1109139.520150088204	12173.260299179
0	2943	1109946.576935567328	4793.7502928041
0	2952	1110946.718390006729	3883.4036982527
1	518	205093.415864977969	0
1	534	208873.241096125144	0
1	556	244411.259489316828	0
1	564	245690.092653169958	0
1	590	254140.425838824646	0
1	598	255274.896005034315	0
1	609	256177.454275025671	730.26921642422
1	617	257015.666747383828	922.06679930996
1	656	267891.475084041085	0
1	674	277951.193721174823	0
1	690	280978.164595275896	82.19895995485
1	707	284251.6759909028	0
1	715	285308.167413853144	783.0425782228
1	740	293663.543012435435	0
1	760	314181.482604822811	0
1	768	315171.700994867448	0
1	793	320396.14915572689	0
1	801	321767.785750427014	0
1	809	322818.658070095844	27.626946224814
1	842	329109.204379667164	0
1	859	334310.569228601154	0
1	878	349203.977164138644	0
1	894	352179.027467319123	202.03557342222
1	902	353058.315785013007	19.42919881018
1	911	354848.072568575126	0
1	944	360004.476445452946	0
1	961	368879.621160100662	0
1	978	372218.858168101393	0
1	997	390214.423383258287	0
1	1015	405865.068134510105	0
1	1032	410650.089594997681	0
1	1049	416287.553040189921	0
1	1057	417158.256752712384	0
1	1082	420850.323279591497	0
1	1090	423271.696951839576	0
1	1115	427857.975201951448	0
1	1133	439033.68542993669	0
1	1141	441584.220471725389	0
1	1166	445627.271148105868	0
1	1174	447342.974182033867	0
1	1200	460746.295226121113	0
1	1208	461676.10885166752	633.80994253736
1	1225	464312.665888407941	0
1	1250	473567.891896466985	0
1	1267	478697.817108654809	0
1	1284	485872.049466614711	0
1	1302	493057.156540546561	0
1	1318	496836.808507035234	0
1	1335	499916.576378409111	0
1	1343	501018.893330289966	0
1	1362	502601.089563360115	254.05118776019
1	1370	503674.204229372374	1132.2980665284
1	1401	515263.401728315719	0
1	1410	516491.646273845043	0
1	1434	520883.119386828224	0
1	1451	526951.520101630972	0
1	1471	551334.569373183032	0
1	1480	552161.1661305551	370.98829180388
1	1504	556846.947679340764	0
1	1522	567796.83799683894	0
1	1530	569580.148776524401	0
1	1555	573506.918243774815	0
1	1573	584956.888765937597	0
1	1581	587264.01866318868	0
1	1606	591154.679194399041	0
1	1623	595439.200472929684	0
1	1639	599834.918741882853	0
1	1656	602829.687261448328	0
1	1674	614916.478161388794	0
1	1682	617243.277024047884	0
1	1708	624537.869178938234	0
1	1727	645490.74404864273	0
1	1744	651493.725497050478	0
1	1761	657224.927413856806	0
1	1769	658194.072226948572	43.199814262176
1	1794	662995.922947674438	0
1	1811	667480.604636815898	0
1	1828	672061.177072323628	0
1	1844	675027.951819504118	227.39487623002
1	1861	678812.155118744004	0
1	1881	706296.02071720052	0
1	1898	712539.562745107294	0
1	1915	716801.521034196691	0
1	1932	720829.920892686321	0
1	1948	723707.977230456115	0
1	1956	725195.085648876633	0
1	1965	726065.805714119272	673.57808878908
1	1976	727155.385886695942	910.8063200124
1	1987	728176.203158548102	429.82425803576
1	2029	731428.32657114308	18.316029216579
1	2046	734769.777759624977	0
1	2063	742745.944015203207	0
1	2080	746427.346040007781	0
1	2100	772457.845789284661	0
1	2117	776045.814179731782	0
1	2138	804617.157393021386	0
1	2155	813537.14400023869	0
1	2172	819168.562797803764	0
1	2190	833317.27861182786	0
1	2199	834177.789473286883	374.68935594616
1	2207	835193.057207712467	143.1484929112
1	2239	839908.795006471242	0
1	2248	841051.62024966156	0
1	2274	853504.808191566252	0
1	2294	877749.896379291568	0
1	2311	886628.658257325854	0
1	2328	890936.897316268284	0
1	2345	894910.528575829213	0
1	2353	897277.588846280882	0
1	2378	901621.908108911474	0
1	2386	902352.730608998536	674.46719843824
1	2394	903310.260992702078	259.4188646089
1	2428	917941.532625904036	0
1	2445	920892.638065898844	94.039369218762
1	2453	922345.860710079211	0
1	2479	933993.256007454145	0
1	2496	941254.741326609505	0
1	2513	944401.336335647197	90.101320419178
1	2530	948437.209578839856	0
1	2548	964234.07188007216	0
1	2568	986609.548408612788	0
1	2585	994059.499228955418	0
1	2594	996883.696850649196	0
1	2621	1015518.342147082048	0
1	2638	1022147.321487738762	0
1	2655	1031007.193445599924	0
1	2672	1034675.545093681668	0
1	2680	1036928.198869826885	0
1	2697	1038420.769059504309	0
1	2713	1040173.113031622051	0
1	2738	1044386.472704268635	0
1	2756	1056309.253875183151	0
1	2773	1063006.304739886851	0
1	2784	1063952.200983188589	78.47287914916
1	2792	1064688.331842899211	783.08205266839
1	2797	1065542.378149954364	973.76019457837
1	2839	1075214.478029412239	0
1	2847	1076915.984788402867	0
1	2872	1085833.980165709245	0
1	2890	1096966.259850909107	0
1	2908	1105152.826642763207	0
1	2916	1107063.314691754047	0
1	2927	1108007.425692640222	782.17800998184
1	2959	1122432.149665022105	0
2	516	205093.415864977969	1
2	518	205093.415864977969	0
2	532	208873.241096125144	1
2	534	208873.241096125144	0
2	554	244411.259489316828	1
2	556	244411.259489316828	0
2	562	245690.092653169958	1
2	564	245690.092653169958	0
2	588	254140.425838824646	1
2	590	254140.425838824646	0
2	596	255274.896005034315	1
2	598	255274.896005034315	0
2	601	255447.185058601447	1
2	604	256093.599948073871	2
2	609	256177.454275025671	1
2	617	257015.666747383828	0
2	654	267891.475084041085	1
2	656	267891.475084041085	0
2	672	277951.193721174823	1
2	674	277951.193721174823	0
2	685	280895.965635321046	1
2	690	280978.164595275896	0
2	705	284251.6759909028	1
2	707	284251.6759909028	0
2	710	284525.124835630347	1
2	715	285308.167413853144	0
2	738	293663.543012435435	1
2	740	293663.543012435435	0
2	758	314181.482604822811	1
2	760	314181.482604822811	0
2	766	315171.700994867448	1
2	768	315171.700994867448	0
2	791	320396.14915572689	1
2	793	320396.14915572689	0
2	799	321767.785750427014	1
2	801	321767.785750427014	0
2	804	322791.03112387103	1
2	809	322818.658070095844	0
2	840	329109.204379667164	1
2	842	329109.204379667164	0
2	857	334310.569228601154	1
2	859	334310.569228601154	0
2	876	349203.977164138644	1
2	878	349203.977164138644	0
2	889	351976.991893896899	1
2	894	352179.027467319123	0
2	897	353038.886586202827	1
2	902	353058.315785013007	0
2	909	354848.072568575126	1
2	911	354848.072568575126	0
2	942	360004.476445452946	1
2	944	360004.476445452946	0
2	959	368879.621160100662	1
2	961	368879.621160100662	0
2	976	372218.858168101393	1
2	978	372218.858168101393	0
2	995	390214.423383258287	1
2	997	390214.423383258287	0
2	1013	405865.068134510105	1
2	1015	405865.068134510105	0
2	1030	410650.089594997681	1
2	1032	410650.089594997681	0
2	1047	416287.553040189921	1
2	1049	416287.553040189921	0
2	1055	417158.256752712384	1
2	1057	417158.256752712384	0
2	1080	420850.323279591497	1
2	1082	420850.323279591497	0
2	1088	423271.696951839576	1
2	1090	423271.696951839576	0
2	1113	427857.975201951448	1
2	1115	427857.975201951448	0
2	1131	439033.68542993669	1
2	1133	439033.68542993669	0
2	1139	441584.220471725389	1
2	1141	441584.220471725389	0
2	1164	445627.271148105868	1
2	1166	445627.271148105868	0
2	1172	447342.974182033867	1
2	1174	447342.974182033867	0
2	1198	460746.295226121113	1
2	1200	460746.295226121113	0
2	1203	461042.29890913016	1
2	1208	461676.10885166752	0
2	1223	464312.665888407941	1
2	1225	464312.665888407941	0
2	1248	473567.891896466985	1
2	1250	473567.891896466985	0
2	1265	478697.817108654809	1
2	1267	478697.817108654809	0
2	1282	485872.049466614711	1
2	1284	485872.049466614711	0
2	1300	493057.156540546561	1
2	1302	493057.156540546561	0
2	1316	496836.808507035234	1
2	1318	496836.808507035234	0
2	1333	499916.576378409111	1
2	1335	499916.576378409111	0
2	1341	501018.893330289966	1
2	1343	501018.893330289966	0
2	1354	502347.038375599927	1
2	1357	502541.906162844021	2
2	1362	502601.089563360115	1
2	1370	503674.204229372374	0
2	1399	515263.401728315719	1
2	1401	515263.401728315719	0
2	1408	516491.646273845043	1
2	1410	516491.646273845043	0
2	1432	520883.119386828224	1
2	1434	520883.119386828224	0
2	1449	526951.520101630972	1
2	1451	526951.520101630972	0
2	1469	551334.569373183032	1
2	1471	551334.569373183032	0
2	1474	551790.177838751218	1
2	1480	552161.1661305551	0
2	1502	556846.947679340764	1
2	1504	556846.947679340764	0
2	1520	567796.83799683894	1
2	1522	567796.83799683894	0
2	1528	569580.148776524401	1
2	1530	569580.148776524401	0
2	1553	573506.918243774815	1
2	1555	573506.918243774815	0
2	1571	584956.888765937597	1
2	1573	584956.888765937597	0
2	1579	587264.01866318868	1
2	1581	587264.01866318868	0
2	1604	591154.679194399041	1
2	1606	591154.679194399041	0
2	1621	595439.200472929684	1
2	1623	595439.200472929684	0
2	1637	599834.918741882853	1
2	1639	599834.918741882853	0
2	1654	602829.687261448328	1
2	1656	602829.687261448328	0
2	1672	614916.478161388794	1
2	1674	614916.478161388794	0
2	1680	617243.277024047884	1
2	1682	617243.277024047884	0
2	1706	624537.869178938234	1
2	1708	624537.869178938234	0
2	1725	645490.74404864273	1
2	1727	645490.74404864273	0
2	1742	651493.725497050478	1
2	1744	651493.725497050478	0
2	1759	657224.927413856806	1
2	1761	657224.927413856806	0
2	1764	658150.872412686396	1
2	1769	658194.072226948572	0
2	1792	662995.922947674438	1
2	1794	662995.922947674438	0
2	1809	667480.604636815898	1
2	1811	667480.604636815898	0
2	1826	672061.177072323628	1
2	1828	672061.177072323628	0
2	1839	674800.556943274101	1
2	1844	675027.951819504118	0
2	1859	678812.155118744004	1
2	1861	678812.155118744004	0
2	1879	706296.02071720052	1
2	1881	706296.02071720052	0
2	1896	712539.562745107294	1
2	1898	712539.562745107294	0
2	1913	716801.521034196691	1
2	1915	716801.521034196691	0
2	1930	720829.920892686321	1
2	1932	720829.920892686321	0
2	1946	723707.977230456115	1
2	1948	723707.977230456115	0
2	1954	725195.085648876633	1
2	1956	725195.085648876633	0
2	1959	725392.227625330189	1
2	1965	726065.805714119272	0
2	1968	726244.579566683545	1
2	1976	727155.385886695942	0
2	1982	727746.378900512341	1
2	1987	728176.203158548102	0
2	2024	731410.010541926501	1
2	2029	731428.32657114308	0
2	2044	734769.777759624977	1
2	2046	734769.777759624977	0
2	2061	742745.944015203207	1
2	2063	742745.944015203207	0
2	2078	746427.346040007781	1
2	2080	746427.346040007781	0
2	2098	772457.845789284661	1
2	2100	772457.845789284661	0
2	2115	776045.814179731782	1
2	2117	776045.814179731782	0
2	2136	804617.157393021386	1
2	2138	804617.157393021386	0
2	2153	813537.14400023869	1
2	2155	813537.14400023869	0
2	2170	819168.562797803764	1
2	2172	819168.562797803764	0
2	2188	833317.27861182786	1
2	2190	833317.27861182786	0
2	2193	833803.100117340718	1
2	2199	834177.789473286883	0
2	2202	835049.908714801266	1
2	2207	835193.057207712467	0
2	2237	839908.795006471242	1
2	2239	839908.795006471242	0
2	2246	841051.62024966156	1
2	2248	841051.62024966156	0
2	2272	853504.808191566252	1
2	2274	853504.808191566252	0
2	2292	877749.896379291568	1
2	2294	877749.896379291568	0
2	2309	886628.658257325854	1
2	2311	886628.658257325854	0
2	2326	890936.897316268284	1
2	2328	890936.897316268284	0
2	2343	894910.528575829213	1
2	2345	894910.528575829213	0
2	2351	897277.588846280882	1
2	2353	897277.588846280882	0
2	2376	901621.908108911474	1
2	2378	901621.908108911474	0
2	2381	901678.263410560291	1
2	2386	902352.730608998536	0
2	2389	903050.84212809318	1
2	2394	903310.260992702078	0
2	2426	917941.532625904036	1
2	2428	917941.532625904036	0
2	2440	920798.598696680082	1
2	2445	920892.638065898844	0
2	2451	922345.860710079211	1
2	2453	922345.860710079211	0
2	2477	933993.256007454145	1
2	2479	933993.256007454145	0
2	2494	941254.741326609505	1
2	2496	941254.741326609505	0
2	2508	944311.235015228019	1
2	2513	944401.336335647197	0
2	2528	948437.209578839856	1
2	2530	948437.209578839856	0
2	2546	964234.07188007216	1
2	2548	964234.07188007216	0
2	2566	986609.548408612788	1
2	2568	986609.548408612788	0
2	2583	994059.499228955418	1
2	2585	994059.499228955418	0
2	2592	996883.696850649196	1
2	2594	996883.696850649196	0
2	2619	1015518.342147082048	1
2	2621	1015518.342147082048	0
2	2636	1022147.321487738762	1
2	2638	1022147.321487738762	0
2	2653	1031007.193445599924	1
2	2655	1031007.193445599924	0
2	2670	1034675.545093681668	1
2	2672	1034675.545093681668	0
2	2678	1036928.198869826885	1
2	2680	1036928.198869826885	0
2	2695	1038420.769059504309	1
2	2697	1038420.769059504309	0
2	2711	1040173.113031622051	1
2	2713	1040173.113031622051	0
2	2736	1044386.472704268635	1
2	2738	1044386.472704268635	0
2	2754	1056309.253875183151	1
2	2756	1056309.253875183151	0
2	2771	1063006.304739886851	1
2	2773	1063006.304739886851	0
2	2776	1063873.728104039429	1
2	2779	1063905.249790230825	2
2	2784	1063952.200983188589	1
2	2787	1064568.617955375999	2
2	2792	1064688.331842899211	1
2	2797	1065542.378149954364	0
2	2837	1075214.478029412239	1
2	2839	1075214.478029412239	0
2	2845	1076915.984788402867	1
2	2847	1076915.984788402867	0
2	2870	1085833.980165709245	1
2	2872	1085833.980165709245	0
2	2888	1096966.259850909107	1
2	2890	1096966.259850909107	0
2	2906	1105152.826642763207	1
2	2908	1105152.826642763207	0
2	2914	1107063.314691754047	1
2	2916	1107063.314691754047	0
2	2919	1107225.247682658383	1
2	2927	1108007.425692640222	0
2	2957	1122432.149665022105	1
2	2959	1122432.149665022105	0
3	526	207995.034511450048	0
3	543	211721.891746030941	0
3	573	246983.882167095538	0
3	581	248501.698694821858	0
3	625	257967.333347364774	1108.8503381101
3	631	258256.049327773054	422.77608084669
3	639	259073.404041536946	0
3	647	259743.390408871373	0
3	665	270524.84262923873	0
3	682	280707.906374649882	0
3	699	283682.752854950179	0
3	723	287012.305523783692	0
3	732	288016.344229232764	0
3	749	296327.796429791972	0
3	776	317069.802819096644	0
3	784	317989.809223054427	0
3	817	323759.242409758083	274.02534670382
3	826	324685.123699572034	0
3	834	325578.638906376479	0
3	851	331568.585018280036	0
3	868	336975.658265051369	0
3	886	351878.794862236047	0
3	922	355806.681680634689	921.19306779694
3	927	356096.097804690506	586.77908848541
3	935	357314.036721090129	0
3	952	362926.050453204177	0
3	969	371580.707705567042	0
3	986	374831.506222587835	0
3	1005	392993.232365810358	0
3	1024	408938.803870825815	0
3	1040	413507.947043077492	0
3	1065	418877.82197276729	0
3	1073	419900.472055221811	0
3	1098	424155.437048245509	395.85039392831
3	1106	425694.538255875404	0
3	1123	430121.603971593281	0
3	1149	442305.249343940339	610.75576663865
3	1158	444260.662921598958	0
3	1182	448448.844295423666	0
3	1190	449987.86702089764	0
3	1217	463451.330640108621	0
3	1233	465210.080993036159	518.63061714476
3	1241	467432.39565285654	0
3	1259	476166.148688131537	0
3	1276	481878.012339415272	0
3	1293	488691.77068206922	0
3	1310	495705.280007065766	0
3	1327	499422.748889973865	0
3	1351	502294.855775318424	0
3	1376	504560.443121033103	920.17878384097
3	1384	505310.394574606972	0
3	1392	506359.955428217784	0
3	1418	518346.267551309021	0
3	1426	519172.123268235691	0
3	1443	523539.75111063701	0
3	1460	529718.25458566604	0
3	1488	554022.69870478071	0
3	1496	554534.805796491364	0
3	1513	559208.719610094222	0
3	1539	570613.404573721513	0
3	1547	572517.469245485238	0
3	1564	576102.33922633674	0
3	1590	588200.207596620192	456.66092072974
3	1598	589913.439272839049	0
3	1615	594089.393944119425	0
3	1631	598464.127829034715	0
3	1648	602486.756871808225	0
3	1664	605705.04223814523	0
3	1691	618026.394699837098	414.20104429463
3	1699	619882.772233189426	0
3	1716	627134.94943589228	0
3	1736	648205.208907250599	0
3	1752	653826.622464553666	0
3	1777	659803.24145337724	0
3	1786	661207.103378431365	0
3	1802	665681.076283450918	0
3	1819	670392.252721468638	0
3	1836	674740.393690186292	0
3	1852	677576.875506952463	0
3	1869	681543.900756735203	0
3	1890	709188.790878912782	0
3	1907	715350.382269850449	0
3	1923	719712.651644234471	0
3	1940	723213.761824858027	0
3	1995	729093.628093808818	2718.5521365
3	2000	729352.438650837619	1626.3626917201
3	2005	729607.656492467525	675.14821192033
3	2013	729903.077424739234	49.438468280716
3	2021	731138.267044740463	0
3	2038	734018.534720643125	0
3	2054	737426.094984740198	0
3	2072	745702.655156146987	0
3	2088	749212.686619924163	0
3	2109	774774.754745403335	0
3	2125	779152.679079375931	0
3	2146	807123.741563632164	0
3	2164	816322.390976499067	0
3	2181	822107.846904407204	0
3	2215	836088.888534295977	357.65157681043
3	2223	837344.231008908701	0
3	2231	837862.229975880562	0
3	2256	842829.925601992232	0
3	2264	843696.33829208733	0
3	2282	855860.167921140233	0
3	2302	880741.694188214139	0
3	2320	889728.330338317132	0
3	2336	893551.73909663383	0
3	2361	898162.82392337999	783.63052753441
3	2370	900107.217262335333	0
3	2402	904218.590194842406	0
3	2410	904914.261048956505	0
3	2418	905707.957798295022	0
3	2437	920603.331803802864	0
3	2461	923606.304430906702	0
3	2470	925322.428614056682	0
3	2488	936365.864583470465	0
3	2505	944072.814849752222	0
3	2521	946997.503794396357	0
3	2538	951057.719233830398	0
3	2557	966744.146189506418	0
3	2576	989383.588794568414	0
3	2602	997575.104243672853	616.70954120338
3	2610	999477.62818060464	0
3	2629	1018348.139167543251	0
3	2646	1024623.311908741929	0
3	2664	1033945.404264430653	0
3	2688	1037775.118391648764	58.496234347092
3	2705	1039389.657440570102	67.398239730522
3	2721	1041249.07174553569	0
3	2729	1042855.722848910671	0
3	2746	1046873.190384846801	0
3	2764	1058669.304471825025	0
3	2808	1066432.113400101684	785.9542549271
3	2813	1066706.474081581649	366.92004908897
3	2821	1067052.116299762151	0
3	2830	1068056.895960098593	0
3	2855	1077803.417647782111	0
3	2863	1079630.758877384196	0
3	2881	1088540.795894223319	0
3	2899	1099701.415928478577	0
3	2932	1108848.075938868217	1062.7522996768
3	2940	1109662.997643830736	0
3	2949	1110684.384348068272	0
4	524	207995.034511450048	1
4	526	207995.034511450048	0
4	541	211721.891746030941	1
4	543	211721.891746030941	0
4	571	246983.882167095538	1
4	573	246983.882167095538	0
4	579	248501.698694821858	1
4	581	248501.698694821858	0
4	612	256858.48300925469	1
4	620	257833.273246926367	2
4	625	257967.333347364774	1
4	631	258256.049327773054	0
4	637	259073.404041536946	1
4	639	259073.404041536946	0
4	645	259743.390408871373	1
4	647	259743.390408871373	0
4	663	270524.84262923873	1
4	665	270524.84262923873	0
4	680	280707.906374649882	1
4	682	280707.906374649882	0
4	697	283682.752854950179	1
4	699	283682.752854950179	0
4	721	287012.305523783692	1
4	723	287012.305523783692	0
4	730	288016.344229232764	1
4	732	288016.344229232764	0
4	747	296327.796429791972	1
4	749	296327.796429791972	0
4	774	317069.802819096644	1
4	776	317069.802819096644	0
4	782	317989.809223054427	1
4	784	317989.809223054427	0
4	812	323485.21706305426	1
4	817	323759.242409758083	0
4	824	324685.123699572034	1
4	826	324685.123699572034	0
4	832	325578.638906376479	1
4	834	325578.638906376479	0
4	849	331568.585018280036	1
4	851	331568.585018280036	0
4	866	336975.658265051369	1
4	868	336975.658265051369	0
4	884	351878.794862236047	1
4	886	351878.794862236047	0
4	914	354885.488612837745	1
4	917	355509.318716205092	2
4	922	355806.681680634689	1
4	927	356096.097804690506	0
4	933	357314.036721090129	1
4	935	357314.036721090129	0
4	950	362926.050453204177	1
4	952	362926.050453204177	0
4	967	371580.707705567042	1
4	969	371580.707705567042	0
4	984	374831.506222587835	1
4	986	374831.506222587835	0
4	1003	392993.232365810358	1
4	1005	392993.232365810358	0
4	1022	408938.803870825815	1
4	1024	408938.803870825815	0
4	1038	413507.947043077492	1
4	1040	413507.947043077492	0
4	1063	418877.82197276729	1
4	1065	418877.82197276729	0
4	1071	419900.472055221811	1
4	1073	419900.472055221811	0
4	1093	423759.586654317194	1
4	1098	424155.437048245509	0
4	1104	425694.538255875404	1
4	1106	425694.538255875404	0
4	1121	430121.603971593281	1
4	1123	430121.603971593281	0
4	1144	441694.493577301687	1
4	1149	442305.249343940339	0
4	1156	444260.662921598958	1
4	1158	444260.662921598958	0
4	1180	448448.844295423666	1
4	1182	448448.844295423666	0
4	1188	449987.86702089764	1
4	1190	449987.86702089764	0
4	1215	463451.330640108621	1
4	1217	463451.330640108621	0
4	1228	464691.450375891398	1
4	1233	465210.080993036159	0
4	1239	467432.39565285654	1
4	1241	467432.39565285654	0
4	1257	476166.148688131537	1
4	1259	476166.148688131537	0
4	1274	481878.012339415272	1
4	1276	481878.012339415272	0
4	1291	488691.77068206922	1
4	1293	488691.77068206922	0
4	1308	495705.280007065766	1
4	1310	495705.280007065766	0
4	1325	499422.748889973865	1
4	1327	499422.748889973865	0
4	1349	502294.855775318424	1
4	1351	502294.855775318424	0
4	1365	503640.264337192133	1
4	1376	504560.443121033103	0
4	1382	505310.394574606972	1
4	1384	505310.394574606972	0
4	1390	506359.955428217784	1
4	1392	506359.955428217784	0
4	1416	518346.267551309021	1
4	1418	518346.267551309021	0
4	1424	519172.123268235691	1
4	1426	519172.123268235691	0
4	1441	523539.75111063701	1
4	1443	523539.75111063701	0
4	1458	529718.25458566604	1
4	1460	529718.25458566604	0
4	1486	554022.69870478071	1
4	1488	554022.69870478071	0
4	1494	554534.805796491364	1
4	1496	554534.805796491364	0
4	1511	559208.719610094222	1
4	1513	559208.719610094222	0
4	1537	570613.404573721513	1
4	1539	570613.404573721513	0
4	1545	572517.469245485238	1
4	1547	572517.469245485238	0
4	1562	576102.33922633674	1
4	1564	576102.33922633674	0
4	1584	587743.546675890449	1
4	1590	588200.207596620192	0
4	1596	589913.439272839049	1
4	1598	589913.439272839049	0
4	1613	594089.393944119425	1
4	1615	594089.393944119425	0
4	1629	598464.127829034715	1
4	1631	598464.127829034715	0
4	1646	602486.756871808225	1
4	1648	602486.756871808225	0
4	1662	605705.04223814523	1
4	1664	605705.04223814523	0
4	1685	617612.193655542471	1
4	1691	618026.394699837098	0
4	1697	619882.772233189426	1
4	1699	619882.772233189426	0
4	1714	627134.94943589228	1
4	1716	627134.94943589228	0
4	1734	648205.208907250599	1
4	1736	648205.208907250599	0
4	1750	653826.622464553666	1
4	1752	653826.622464553666	0
4	1775	659803.24145337724	1
4	1777	659803.24145337724	0
4	1784	661207.103378431365	1
4	1786	661207.103378431365	0
4	1800	665681.076283450918	1
4	1802	665681.076283450918	0
4	1817	670392.252721468638	1
4	1819	670392.252721468638	0
4	1834	674740.393690186292	1
4	1836	674740.393690186292	0
4	1850	677576.875506952463	1
4	1852	677576.875506952463	0
4	1867	681543.900756735203	1
4	1869	681543.900756735203	0
4	1888	709188.790878912782	1
4	1890	709188.790878912782	0
4	1905	715350.382269850449	1
4	1907	715350.382269850449	0
4	1921	719712.651644234471	1
4	1923	719712.651644234471	0
4	1938	723213.761824858027	1
4	1940	723213.761824858027	0
4	1971	726375.075957308771	1
4	1979	727726.075959117494	2
4	1990	728932.508280547194	3
4	1995	729093.628093808818	2
4	2000	729352.438650837619	1
4	2005	729607.656492467525	0
4	2008	729853.638956458518	1
4	2013	729903.077424739234	0
4	2019	731138.267044740463	1
4	2021	731138.267044740463	0
4	2036	734018.534720643125	1
4	2038	734018.534720643125	0
4	2052	737426.094984740198	1
4	2054	737426.094984740198	0
4	2070	745702.655156146987	1
4	2072	745702.655156146987	0
4	2086	749212.686619924163	1
4	2088	749212.686619924163	0
4	2107	774774.754745403335	1
4	2109	774774.754745403335	0
4	2123	779152.679079375931	1
4	2125	779152.679079375931	0
4	2144	807123.741563632164	1
4	2146	807123.741563632164	0
4	2162	816322.390976499067	1
4	2164	816322.390976499067	0
4	2179	822107.846904407204	1
4	2181	822107.846904407204	0
4	2210	835731.236957485545	1
4	2215	836088.888534295977	0
4	2221	837344.231008908701	1
4	2223	837344.231008908701	0
4	2229	837862.229975880562	1
4	2231	837862.229975880562	0
4	2254	842829.925601992232	1
4	2256	842829.925601992232	0
4	2262	843696.33829208733	1
4	2264	843696.33829208733	0
4	2280	855860.167921140233	1
4	2282	855860.167921140233	0
4	2300	880741.694188214139	1
4	2302	880741.694188214139	0
4	2318	889728.330338317132	1
4	2320	889728.330338317132	0
4	2334	893551.73909663383	1
4	2336	893551.73909663383	0
4	2356	897379.193395845585	1
4	2361	898162.82392337999	0
4	2368	900107.217262335333	1
4	2370	900107.217262335333	0
4	2400	904218.590194842406	1
4	2402	904218.590194842406	0
4	2408	904914.261048956505	1
4	2410	904914.261048956505	0
4	2416	905707.957798295022	1
4	2418	905707.957798295022	0
4	2435	920603.331803802864	1
4	2437	920603.331803802864	0
4	2459	923606.304430906702	1
4	2461	923606.304430906702	0
4	2468	925322.428614056682	1
4	2470	925322.428614056682	0
4	2486	936365.864583470465	1
4	2488	936365.864583470465	0
4	2503	944072.814849752222	1
4	2505	944072.814849752222	0
4	2519	946997.503794396357	1
4	2521	946997.503794396357	0
4	2536	951057.719233830398	1
4	2538	951057.719233830398	0
4	2555	966744.146189506418	1
4	2557	966744.146189506418	0
4	2574	989383.588794568414	1
4	2576	989383.588794568414	0
4	2597	996958.394702469474	1
4	2602	997575.104243672853	0
4	2608	999477.62818060464	1
4	2610	999477.62818060464	0
4	2627	1018348.139167543251	1
4	2629	1018348.139167543251	0
4	2644	1024623.311908741929	1
4	2646	1024623.311908741929	0
4	2662	1033945.404264430653	1
4	2664	1033945.404264430653	0
4	2683	1037716.622157301672	1
4	2688	1037775.118391648764	0
4	2700	1039322.25920083958	1
4	2705	1039389.657440570102	0
4	2719	1041249.07174553569	1
4	2721	1041249.07174553569	0
4	2727	1042855.722848910671	1
4	2729	1042855.722848910671	0
4	2744	1046873.190384846801	1
4	2746	1046873.190384846801	0
4	2762	1058669.304471825025	1
4	2764	1058669.304471825025	0
4	2800	1065646.159145174588	1
4	2803	1066339.55403249268	2
4	2808	1066432.113400101684	1
4	2813	1066706.474081581649	0
4	2819	1067052.116299762151	1
4	2821	1067052.116299762151	0
4	2828	1068056.895960098593	1
4	2830	1068056.895960098593	0
4	2853	1077803.417647782111	1
4	2855	1077803.417647782111	0
4	2861	1079630.758877384196	1
4	2863	1079630.758877384196	0
4	2879	1088540.795894223319	1
4	2881	1088540.795894223319	0
4	2897	1099701.415928478577	1
4	2899	1099701.415928478577	0
4	2922	1107785.3236391914	1
4	2932	1108848.075938868217	0
4	2938	1109662.997643830736	1
4	2940	1109662.997643830736	0
4	2947	1110684.384348068272	1
4	2949	1110684.384348068272	0
5	514	204000	0
5	539	210000	2
5	548	216000	0
5	549	222000	0
5	550	228000	0
5	551	234000	0
5	552	240000	0
5	566	246000	1
5	586	252000	1
5	627	258000	4
5	652	264000	0
5	661	270000	1
5	670	276000	0
5	695	282000	2
5	728	288000	2
5	742	294000	0
5	754	300000	1
5	755	306000	0
5	756	312000	0
5	786	318000	2
5	819	324000	3
5	847	330000	1
5	864	336000	1
5	873	342000	0
5	874	348000	0
5	907	354000	3
5	940	360000	1
5	957	366000	1
5	974	372000	1
5	991	378000	1
5	992	384000	0
5	993	390000	0
5	1010	396000	1
5	1011	402000	0
5	1020	408000	1
5	1045	414000	1
5	1075	420000	2
5	1111	426000	2
5	1128	432000	1
5	1129	438000	0
5	1154	444000	2
5	1192	450000	2
5	1196	456000	0
5	1210	462000	1
5	1246	468000	2
5	1252	474000	0
5	1272	480000	2
5	1286	486000	0
5	1298	492000	1
5	1323	498000	2
5	1372	504000	3
5	1397	510000	1
5	1403	516000	0
5	1439	522000	3
5	1456	528000	1
5	1465	534000	0
5	1466	540000	0
5	1467	546000	0
5	1476	552000	0
5	1509	558000	3
5	1518	564000	0
5	1532	570000	1
5	1560	576000	2
5	1569	582000	0
5	1586	588000	1
5	1611	594000	2
5	1641	600000	1
5	1666	606000	2
5	1670	612000	0
5	1687	618000	1
5	1704	624000	1
5	1721	630000	1
5	1722	636000	0
5	1723	642000	0
5	1732	648000	1
5	1754	654000	1
5	1779	660000	2
5	1804	666000	1
5	1824	672000	1
5	1857	678000	2
5	1874	684000	1
5	1875	690000	0
5	1876	696000	0
5	1877	702000	0
5	1886	708000	1
5	1903	714000	1
5	1925	720000	1
5	1961	726000	2
5	2031	732000	4
5	2059	738000	2
5	2068	744000	1
5	2093	750000	1
5	2094	756000	0
5	2095	762000	0
5	2096	768000	0
5	2105	774000	1
5	2130	780000	1
5	2131	786000	0
5	2132	792000	0
5	2133	798000	0
5	2134	804000	0
5	2151	810000	1
5	2160	816000	1
5	2177	822000	1
5	2186	828000	0
5	2195	834000	0
5	2241	840000	3
5	2269	846000	2
5	2270	852000	0
5	2287	858000	1
5	2288	864000	0
5	2289	870000	0
5	2290	876000	0
5	2307	882000	1
5	2316	888000	1
5	2341	894000	1
5	2366	900000	2
5	2420	906000	3
5	2424	912000	0
5	2430	918000	0
5	2466	924000	3
5	2475	930000	0
5	2484	936000	1
5	2498	942000	0
5	2526	948000	2
5	2543	954000	1
5	2544	960000	0
5	2553	966000	1
5	2562	972000	0
5	2563	978000	0
5	2564	984000	0
5	2581	990000	1
5	2590	996000	1
5	2615	1002000	1
5	2616	1008000	0
5	2617	1014000	0
5	2634	1020000	1
5	2651	1026000	1
5	2660	1032000	1
5	2690	1038000	2
5	2734	1044000	2
5	2751	1050000	1
5	2752	1056000	0
5	2769	1062000	1
5	2826	1068000	4
5	2835	1074000	0
5	2868	1080000	2
5	2874	1086000	0
5	2886	1092000	1
5	2895	1098000	1
5	2904	1104000	0
5	2945	1110000	3
5	2954	1116000	0
5	2955	1122000	0
6	514	204000	0
6	539	210000	1
6	548	216000	1
6	549	222000	0
6	550	228000	0
6	551	234000	0
6	552	240000	0
6	566	246000	0
6	586	252000	2
6	627	258000	0
6	652	264000	4
6	661	270000	0
6	670	276000	1
6	695	282000	1
6	728	288000	2
6	742	294000	1
6	754	300000	1
6	755	306000	0
6	756	312000	0
6	786	318000	1
6	819	324000	1
6	847	330000	3
6	864	336000	1
6	873	342000	1
6	874	348000	0
6	907	354000	1
6	940	360000	3
6	957	366000	1
6	974	372000	1
6	991	378000	1
6	992	384000	0
6	993	390000	0
6	1010	396000	1
6	1011	402000	0
6	1020	408000	0
6	1045	414000	2
6	1075	420000	1
6	1111	426000	3
6	1128	432000	1
6	1129	438000	0
6	1154	444000	1
6	1192	450000	2
6	1196	456000	1
6	1210	462000	0
6	1246	468000	3
6	1252	474000	0
6	1272	480000	1
6	1286	486000	1
6	1298	492000	1
6	1323	498000	1
6	1372	504000	2
6	1397	510000	3
6	1403	516000	0
6	1439	522000	2
6	1456	528000	1
6	1465	534000	1
6	1466	540000	0
6	1467	546000	0
6	1476	552000	0
6	1509	558000	2
6	1518	564000	1
6	1532	570000	0
6	1560	576000	2
6	1569	582000	1
6	1586	588000	0
6	1611	594000	2
6	1641	600000	2
6	1666	606000	1
6	1670	612000	1
6	1687	618000	0
6	1704	624000	2
6	1721	630000	1
6	1722	636000	0
6	1723	642000	0
6	1732	648000	0
6	1754	654000	1
6	1779	660000	1
6	1804	666000	2
6	1824	672000	2
6	1857	678000	2
6	1874	684000	1
6	1875	690000	0
6	1876	696000	0
6	1877	702000	0
6	1886	708000	0
6	1903	714000	1
6	1925	720000	1
6	1961	726000	2
6	2031	732000	5
6	2059	738000	2
6	2068	744000	0
6	2093	750000	2
6	2094	756000	0
6	2095	762000	0
6	2096	768000	0
6	2105	774000	0
6	2130	780000	2
6	2131	786000	0
6	2132	792000	0
6	2133	798000	0
6	2134	804000	0
6	2151	810000	1
6	2160	816000	0
6	2177	822000	1
6	2186	828000	1
6	2195	834000	0
6	2241	840000	3
6	2269	846000	2
6	2270	852000	0
6	2287	858000	1
6	2288	864000	0
6	2289	870000	0
6	2290	876000	0
6	2307	882000	1
6	2316	888000	0
6	2341	894000	2
6	2366	900000	1
6	2420	906000	3
6	2424	912000	1
6	2430	918000	0
6	2466	924000	2
6	2475	930000	1
6	2484	936000	0
6	2498	942000	1
6	2526	948000	2
6	2543	954000	1
6	2544	960000	0
6	2553	966000	0
6	2562	972000	1
6	2563	978000	0
6	2564	984000	0
6	2581	990000	1
6	2590	996000	0
6	2615	1002000	2
6	2616	1008000	0
6	2617	1014000	0
6	2634	1020000	1
6	2651	1026000	1
6	2660	1032000	0
6	2690	1038000	1
6	2734	1044000	4
6	2751	1050000	1
6	2752	1056000	0
6	2769	1062000	1
6	2826	1068000	3
6	2835	1074000	1
6	2868	1080000	2
6	2874	1086000	0
6	2886	1092000	1
6	2895	1098000	0
6	2904	1104000	1
6	2945	1110000	2
6	2954	1116000	1
6	2955	1122000	0
7	521	205991.501466834614	1
7	523	207995.034511450048	0
7	537	209789.325385763947	1
7	540	211721.891746030941	0
7	559	245175.695860242606	1
7	568	246592.703982683456	2
7	570	246983.882167095538	1
7	578	248501.698694821858	0
7	593	255026.083757966769	1
7	607	256177.454275025671	2
7	611	256858.48300925469	1
7	615	257015.666747383828	2
7	619	257833.273246926367	1
7	623	257967.333347364774	2
7	636	259073.404041536946	1
7	644	259743.390408871373	0
7	659	268751.515483261761	1
7	662	270524.84262923873	0
7	677	278913.341272118745	1
7	679	280707.906374649882	0
7	693	281846.642062831709	1
7	696	283682.752854950179	0
7	713	285308.167413853144	1
7	718	286346.747173444206	2
7	720	287012.305523783692	1
7	729	288016.344229232764	0
7	744	294486.069962694279	1
7	746	296327.796429791972	0
7	763	315159.792336544049	1
7	771	316156.851861241536	2
7	773	317069.802819096644	1
7	781	317989.809223054427	0
7	796	321420.519340845688	1
7	807	322818.658070095844	2
7	811	323485.21706305426	1
7	815	323759.242409758083	2
7	823	324685.123699572034	1
7	831	325578.638906376479	0
7	845	329972.309408871268	1
7	848	331568.585018280036	0
7	862	335080.461006987915	1
7	865	336975.658265051369	0
7	881	350061.284761645003	1
7	883	351878.794862236047	0
7	900	353058.315785013007	1
7	905	353975.731749336104	2
7	913	354885.488612837745	1
7	916	355509.318716205092	0
7	920	355806.681680634689	1
7	932	357314.036721090129	0
7	947	361027.545964825705	1
7	949	362926.050453204177	0
7	964	369770.786431609789	1
7	966	371580.707705567042	0
7	981	372926.753645062288	1
7	983	374831.506222587835	0
7	1000	391089.721339525621	1
7	1002	392993.232365810358	0
7	1018	406853.351245283478	1
7	1021	408938.803870825815	0
7	1035	411775.918863099138	1
7	1037	413507.947043077492	0
7	1052	417049.291469110094	1
7	1060	418270.654161685613	2
7	1062	418877.82197276729	1
7	1070	419900.472055221811	0
7	1085	421822.697397528047	1
7	1092	423759.586654317194	0
7	1096	424155.437048245509	1
7	1103	425694.538255875404	0
7	1118	428774.369947049275	1
7	1120	430121.603971593281	0
7	1136	439791.087384182288	1
7	1143	441694.493577301687	0
7	1147	442305.249343940339	1
7	1155	444260.662921598958	0
7	1169	446634.365138688557	1
7	1177	448097.006851113253	2
7	1179	448448.844295423666	1
7	1187	449987.86702089764	0
7	1206	461676.10885166752	1
7	1212	462655.361920022405	2
7	1214	463451.330640108621	1
7	1227	464691.450375891398	0
7	1231	465210.080993036159	1
7	1238	467432.39565285654	0
7	1254	474403.032749015008	1
7	1256	476166.148688131537	0
7	1270	479731.46521952408	1
7	1273	481878.012339415272	0
7	1288	486899.445029319244	1
7	1290	488691.77068206922	0
7	1305	493894.430604433369	1
7	1307	495705.280007065766	0
7	1321	497691.263516821272	1
7	1324	499422.748889973865	0
7	1338	500602.933944252006	1
7	1346	501854.388326023964	2
7	1348	502294.855775318424	1
7	1364	503640.264337192133	0
7	1368	503674.204229372374	1
7	1374	504560.443121033103	2
7	1381	505310.394574606972	1
7	1389	506359.955428217784	0
7	1405	516264.933925365931	1
7	1413	517404.401517117203	2
7	1415	518346.267551309021	1
7	1423	519172.123268235691	0
7	1437	521787.959838532634	1
7	1440	523539.75111063701	0
7	1454	527862.822171690624	1
7	1457	529718.25458566604	0
7	1478	552161.1661305551	1
7	1483	552954.129532652788	2
7	1485	554022.69870478071	1
7	1493	554534.805796491364	0
7	1507	557796.858389377974	1
7	1510	559208.719610094222	0
7	1525	568745.32930910121	1
7	1534	570427.225362859669	2
7	1536	570613.404573721513	1
7	1544	572517.469245485238	0
7	1558	574380.667325167165	1
7	1561	576102.33922633674	0
7	1576	585889.13684129179	1
7	1583	587743.546675890449	0
7	1588	588200.207596620192	1
7	1595	589913.439272839049	0
7	1609	592104.828833024434	1
7	1612	594089.393944119425	0
7	1626	596381.59647374225	1
7	1628	598464.127829034715	0
7	1643	600894.681724764263	1
7	1645	602486.756871808225	0
7	1659	603849.463317594275	1
7	1661	605705.04223814523	0
7	1677	615855.717148236503	1
7	1684	617612.193655542471	0
7	1689	618026.394699837098	1
7	1696	619882.772233189426	0
7	1711	625389.383559349629	1
7	1713	627134.94943589228	0
7	1730	646314.967284805569	1
7	1733	648205.208907250599	0
7	1747	652544.563492957468	1
7	1749	653826.622464553666	0
7	1767	658194.072226948572	1
7	1772	659332.653842849104	2
7	1774	659803.24145337724	1
7	1783	661207.103378431365	0
7	1797	664003.904870735503	1
7	1799	665681.076283450918	0
7	1814	668333.53799590756	1
7	1816	670392.252721468638	0
7	1831	673055.142335641609	1
7	1833	674740.393690186292	0
7	1847	675959.567336830503	1
7	1849	677576.875506952463	0
7	1864	679741.840805599196	1
7	1866	681543.900756735203	0
7	1884	707327.887562917939	1
7	1887	709188.790878912782	0
7	1901	713463.422542001107	1
7	1904	715350.382269850449	0
7	1918	717707.632472124392	1
7	1920	719712.651644234471	0
7	1935	721729.826147024407	1
7	1937	723213.761824858027	0
7	1951	724591.000551498928	1
7	1963	726065.805714119272	2
7	1970	726375.075957308771	1
7	1974	727155.385886695942	2
7	1978	727726.075959117494	1
7	1985	728176.203158548102	2
7	1989	728932.508280547194	1
7	1993	729093.628093808818	2
7	2007	729853.638956458518	1
7	2018	731138.267044740463	0
7	2033	732402.799960442992	1
7	2035	734018.534720643125	0
7	2049	735640.834367550311	1
7	2051	737426.094984740198	0
7	2066	743734.884412428195	1
7	2069	745702.655156146987	0
7	2083	747258.888040739395	1
7	2085	749212.686619924163	0
7	2103	773239.556687796923	1
7	2106	774774.754745403335	0
7	2120	776962.64482147956	1
7	2122	779152.679079375931	0
7	2141	805534.664394257295	1
7	2143	807123.741563632164	0
7	2158	814525.072499957893	1
7	2161	816322.390976499067	0
7	2175	820122.440023526356	1
7	2178	822107.846904407204	0
7	2197	834177.789473286883	1
7	2205	835193.057207712467	2
7	2209	835731.236957485545	1
7	2213	836088.888534295977	2
7	2220	837344.231008908701	1
7	2228	837862.229975880562	0
7	2243	840885.14018208137	1
7	2251	841980.855923420095	2
7	2253	842829.925601992232	1
7	2261	843696.33829208733	0
7	2277	854375.751205604002	1
7	2279	855860.167921140233	0
7	2297	878790.435718940322	1
7	2299	880741.694188214139	0
7	2314	887588.780471215253	1
7	2317	889728.330338317132	0
7	2331	891725.56616839477	1
7	2333	893551.73909663383	0
7	2348	895929.842374859638	1
7	2355	897379.193395845585	0
7	2359	898162.82392337999	1
7	2367	900107.217262335333	0
7	2384	902352.730608998536	1
7	2392	903310.260992702078	2
7	2397	904211.136230322408	3
7	2399	904218.590194842406	2
7	2407	904914.261048956505	1
7	2415	905707.957798295022	0
7	2432	918713.418210671365	1
7	2434	920603.331803802864	0
7	2448	921759.385437817417	1
7	2456	923344.465561634869	2
7	2458	923606.304430906702	1
7	2467	925322.428614056682	0
7	2482	934896.479137060681	1
7	2485	936365.864583470465	0
7	2500	942149.829389638821	1
7	2502	944072.814849752222	0
7	2516	945146.153115566071	1
7	2518	946997.503794396357	0
7	2533	949574.793051587367	1
7	2535	951057.719233830398	0
7	2551	965196.525863239074	1
7	2554	966744.146189506418	0
7	2571	987523.424912630267	1
7	2573	989383.588794568414	0
7	2588	995037.573188952246	1
7	2596	996958.394702469474	0
7	2600	997575.104243672853	1
7	2607	999477.62818060464	0
7	2624	1016388.027671840845	1
7	2626	1018348.139167543251	0
7	2641	1023073.798972162893	1
7	2643	1024623.311908741929	0
7	2658	1031987.697492103172	1
7	2661	1033945.404264430653	0
7	2675	1035654.52325695675	1
7	2682	1037716.622157301672	0
7	2686	1037775.118391648764	1
7	2699	1039322.25920083958	0
7	2703	1039389.657440570102	1
7	2716	1041009.718012797979	2
7	2718	1041249.07174553569	1
7	2726	1042855.722848910671	0
7	2741	1045385.656652627315	1
7	2743	1046873.190384846801	0
7	2759	1057155.402663041802	1
7	2761	1058669.304471825025	0
7	2782	1063952.200983188589	1
7	2790	1064688.331842899211	2
7	2795	1065542.378149954364	3
7	2799	1065646.159145174588	2
7	2802	1066339.55403249268	1
7	2806	1066432.113400101684	2
7	2818	1067052.116299762151	1
7	2827	1068056.895960098593	0
7	2842	1076114.600281117997	1
7	2850	1077752.946921230999	2
7	2852	1077803.417647782111	1
7	2860	1079630.758877384196	0
7	2876	1086587.828542172103	1
7	2878	1088540.795894223319	0
7	2893	1097875.859813118685	1
7	2896	1099701.415928478577	0
7	2911	1106002.96297516535	1
7	2921	1107785.3236391914	0
7	2925	1108007.425692640222	1
7	2930	1108848.075938868217	2
7	2937	1109662.997643830736	1
7	2946	1110684.384348068272	0
