version 2
run ParkingMeasurement-111-20170108-17:32:25-6209
attr configname ParkingMeasurement
attr datetime 20170108-17:32:25
attr experiment ParkingMeasurement
attr inifile parkingStudy.ini
attr iterationvars ""
attr iterationvars2 $repetition=111
attr measurement ""
attr network controltower.SimNetwork
attr processid 6209
attr repetition 111
attr replication #111
attr resultdir results
attr runnumber 111
attr seedset 111
param SimNetwork.a.parkingLot.parkingDelay "truncnormal(30min, 3min)"
param SimNetwork.a.runway.landingTime "truncnormal(15min, 1.5min)"
param SimNetwork.a.runway.takeoffTime "truncnormal(5min, 0.5min)"
param SimNetwork.a.runway.throughputCheckInterval 100min
param SimNetwork.wg.interArrivalTime exponential(100min)

statistic SimNetwork.wg 	responseTime:stats
field count 149
field mean 9348.5332484514
field stddev 7069.1168281473
field sum 1392931.4540193
field sqrsum 20417783094.752
field min 3537.1948534716
field max 62327.73657432
attr source  responseTimeSignal
scalar SimNetwork.a.landingQueue 	queueLength:timeavg 	0.015464506663033
attr source  queueLengthSignal
statistic SimNetwork.a.landingQueue 	queueLength:stats
field count 298
field mean 0.52013422818792
field stddev 0.5202278529252
field sum 155
field sqrsum 161
field min 0
field max 2
attr source  queueLengthSignal
statistic SimNetwork.a.landingQueue 	queueTime:stats
field count 149
field mean 95.611478367152
field stddev 252.76401985946
field sum 14246.110276706
field sqrsum 10817759.825393
field min 0
field max 1512.3319737608
attr source  queueTimeSignal
scalar SimNetwork.a.takeoffQueue 	queueLength:timeavg 	0.015397493341808
attr source  queueLengthSignal
statistic SimNetwork.a.takeoffQueue 	queueLength:stats
field count 298
field mean 0.50671140939597
field stddev 0.50747469188097
field sum 151
field sqrsum 153
field min 0
field max 2
attr source  queueLengthSignal
statistic SimNetwork.a.takeoffQueue 	queueTime:stats
field count 149
field mean 95.145627117765
field stddev 256.47701515098
field sum 14176.698440547
field sqrsum 11084358.840097
field min 0
field max 1613.9877445402
attr source  queueTimeSignal
scalar SimNetwork.a.parkingLot 	parkingOccupancy:timeavg 	0.29177753539462
attr source  parkingOccupancy
statistic SimNetwork.a.parkingLot 	parkingOccupancy:stats
field count 298
field mean 0.76174496644295
field stddev 0.69651342526466
field sum 227
field sqrsum 317
field min 0
field max 3
attr source  parkingOccupancy
