version 2
run ParkingMeasurement-124-20170108-17:32:29-6234
attr configname ParkingMeasurement
attr datetime 20170108-17:32:29
attr experiment ParkingMeasurement
attr inifile parkingStudy.ini
attr iterationvars ""
attr iterationvars2 $repetition=124
attr measurement ""
attr network controltower.SimNetwork
attr processid 6234
attr repetition 124
attr replication #124
attr resultdir results
attr runnumber 124
attr seedset 124
param SimNetwork.a.parkingLot.parkingDelay "truncnormal(30min, 3min)"
param SimNetwork.a.runway.landingTime "truncnormal(15min, 1.5min)"
param SimNetwork.a.runway.takeoffTime "truncnormal(5min, 0.5min)"
param SimNetwork.a.runway.throughputCheckInterval 100min
param SimNetwork.wg.interArrivalTime exponential(100min)

statistic SimNetwork.wg 	responseTime:stats
field count 164
field mean 9131.7416648702
field stddev 5667.9066141732
field sum 1497605.6330387
field sqrsum 18912149714.843
field min 3436.9926634693
field max 41479.080542426
attr source  responseTimeSignal
scalar SimNetwork.a.landingQueue 	queueLength:timeavg 	0.033108402259857
attr source  queueLengthSignal
statistic SimNetwork.a.landingQueue 	queueLength:stats
field count 322
field mean 0.58074534161491
field stddev 0.60217834349716
field sum 187
field sqrsum 225
field min 0
field max 3
attr source  queueLengthSignal
statistic SimNetwork.a.landingQueue 	queueTime:stats
field count 161
field mean 189.72372583093
field stddev 434.19167444641
field sum 30545.51985878
field sqrsum 35958795.460423
field min 0
field max 2266.4904790488
attr source  queueTimeSignal
scalar SimNetwork.a.takeoffQueue 	queueLength:timeavg 	0.045061750957832
attr source  queueLengthSignal
statistic SimNetwork.a.takeoffQueue 	queueLength:stats
field count 329
field mean 0.68085106382979
field stddev 0.81803110163257
field sum 224
field sqrsum 372
field min 0
field max 5
attr source  queueLengthSignal
statistic SimNetwork.a.takeoffQueue 	queueTime:stats
field count 165
field mean 261.03033418584
field stddev 710.1661578171
field sum 43070.005140664
field sqrsum 93953677.195482
field min 0
field max 5189.75263706
attr source  queueTimeSignal
scalar SimNetwork.a.parkingLot 	parkingOccupancy:timeavg 	0.31743849523533
attr source  parkingOccupancy
statistic SimNetwork.a.parkingLot 	parkingOccupancy:stats
field count 326
field mean 0.88036809815951
field stddev 0.76527391944267
field sum 287
field sqrsum 443
field min 0
field max 3
attr source  parkingOccupancy
