version 2
run ParkingMeasurement-59-20170108-17:32:12-6103
attr configname ParkingMeasurement
attr datetime 20170108-17:32:12
attr experiment ParkingMeasurement
attr inifile parkingStudy.ini
attr iterationvars ""
attr iterationvars2 $repetition=59
attr measurement ""
attr network controltower.SimNetwork
attr processid 6103
attr repetition 59
attr replication #59
attr resultdir results
attr runnumber 59
attr seedset 59
param SimNetwork.a.parkingLot.parkingDelay "truncnormal(30min, 3min)"
param SimNetwork.a.runway.landingTime "truncnormal(15min, 1.5min)"
param SimNetwork.a.runway.takeoffTime "truncnormal(5min, 0.5min)"
param SimNetwork.a.runway.throughputCheckInterval 100min
param SimNetwork.wg.interArrivalTime exponential(100min)

statistic SimNetwork.wg 	responseTime:stats
field count 141
field mean 9658.2526131036
field stddev 5839.2307909004
field sum 1361813.6184476
field sqrsum 17926266211.048
field min 3712.8878617971
field max 30356.568195517
attr source  responseTimeSignal
scalar SimNetwork.a.landingQueue 	queueLength:timeavg 	0.0070956512775297
attr source  queueLengthSignal
statistic SimNetwork.a.landingQueue 	queueLength:stats
field count 282
field mean 0.5
field stddev 0.5008888895906
field sum 141
field sqrsum 141
field min 0
field max 1
attr source  queueLengthSignal
statistic SimNetwork.a.landingQueue 	queueTime:stats
field count 141
field mean 46.086589785721
field stddev 159.6414911766
field sum 6498.2091597866
field sqrsum 3867437.0986011
field min 0
field max 826.34518995705
attr source  queueTimeSignal
scalar SimNetwork.a.takeoffQueue 	queueLength:timeavg 	0.012232298603965
attr source  queueLengthSignal
statistic SimNetwork.a.takeoffQueue 	queueLength:stats
field count 282
field mean 0.51418439716312
field stddev 0.5147063648657
field sum 145
field sqrsum 149
field min 0
field max 2
attr source  queueLengthSignal
statistic SimNetwork.a.takeoffQueue 	queueTime:stats
field count 141
field mean 79.192082898073
field stddev 245.72325803503
field sum 11166.083688628
field sqrsum 9337454.1606257
field min 0
field max 1875.0742288954
attr source  queueTimeSignal
scalar SimNetwork.a.parkingLot 	parkingOccupancy:timeavg 	0.27603773908606
attr source  parkingOccupancy
statistic SimNetwork.a.parkingLot 	parkingOccupancy:stats
field count 282
field mean 0.76241134751773
field stddev 0.68818591867373
field sum 215
field sqrsum 297
field min 0
field max 3
attr source  parkingOccupancy
