version 2
run ParkingMeasurement-149-20170108-17:32:35-6274
attr configname ParkingMeasurement
attr datetime 20170108-17:32:35
attr experiment ParkingMeasurement
attr inifile parkingStudy.ini
attr iterationvars ""
attr iterationvars2 $repetition=149
attr measurement ""
attr network controltower.SimNetwork
attr processid 6274
attr repetition 149
attr replication #149
attr resultdir results
attr runnumber 149
attr seedset 149
param SimNetwork.a.parkingLot.parkingDelay "truncnormal(30min, 3min)"
param SimNetwork.a.runway.landingTime "truncnormal(15min, 1.5min)"
param SimNetwork.a.runway.takeoffTime "truncnormal(5min, 0.5min)"
param SimNetwork.a.runway.throughputCheckInterval 100min
param SimNetwork.wg.interArrivalTime exponential(100min)

statistic SimNetwork.wg 	responseTime:stats
field count 149
field mean 9282.4974959837
field stddev 6042.5665547743
field sum 1383092.1269016
field sqrsum 18242415568.872
field min 3530.3695762297
field max 35907.615928263
attr source  responseTimeSignal
scalar SimNetwork.a.landingQueue 	queueLength:timeavg 	0.012095376270759
attr source  queueLengthSignal
statistic SimNetwork.a.landingQueue 	queueLength:stats
field count 298
field mean 0.51342281879195
field stddev 0.51393480676589
field sum 153
field sqrsum 157
field min 0
field max 2
attr source  queueLengthSignal
statistic SimNetwork.a.landingQueue 	queueTime:stats
field count 149
field mean 74.273098267455
field stddev 208.23294933356
field sum 11066.691641851
field sqrsum 7239379.7316573
field min 0
field max 1111.8492912597
attr source  queueTimeSignal
scalar SimNetwork.a.takeoffQueue 	queueLength:timeavg 	0.011932603603203
attr source  queueLengthSignal
statistic SimNetwork.a.takeoffQueue 	queueLength:stats
field count 298
field mean 0.5
field stddev 0.5008410434876
field sum 149
field sqrsum 149
field min 0
field max 1
attr source  queueLengthSignal
statistic SimNetwork.a.takeoffQueue 	queueTime:stats
field count 149
field mean 73.046944154093
field stddev 230.25210229931
field sum 10883.99467896
field sqrsum 8641415.0822485
field min 0
field max 1774.1877380226
attr source  queueTimeSignal
scalar SimNetwork.a.parkingLot 	parkingOccupancy:timeavg 	0.2937750836037
attr source  parkingOccupancy
statistic SimNetwork.a.parkingLot 	parkingOccupancy:stats
field count 298
field mean 0.7751677852349
field stddev 0.68149232566123
field sum 231
field sqrsum 317
field min 0
field max 3
attr source  parkingOccupancy
