version 2
run ParkingMeasurement-147-20170108-17:32:35-6270
attr configname ParkingMeasurement
attr datetime 20170108-17:32:35
attr experiment ParkingMeasurement
attr inifile parkingStudy.ini
attr iterationvars ""
attr iterationvars2 $repetition=147
attr measurement ""
attr network controltower.SimNetwork
attr processid 6270
attr repetition 147
attr replication #147
attr resultdir results
attr runnumber 147
attr seedset 147
param SimNetwork.a.parkingLot.parkingDelay "truncnormal(30min, 3min)"
param SimNetwork.a.runway.landingTime "truncnormal(15min, 1.5min)"
param SimNetwork.a.runway.takeoffTime "truncnormal(5min, 0.5min)"
param SimNetwork.a.runway.throughputCheckInterval 100min
param SimNetwork.wg.interArrivalTime exponential(100min)

vector 2  SimNetwork.a.landingQueue  queueLength:vector  ETV
attr source  queueLengthSignal
vector 1  SimNetwork.a.landingQueue  queueTime:vector  ETV
attr source  queueTimeSignal
vector 7  SimNetwork.a.parkingLot  parkingOccupancy:vector  ETV
attr source  parkingOccupancy
vector 4  SimNetwork.a.takeoffQueue  queueLength:vector  ETV
attr source  queueLengthSignal
vector 3  SimNetwork.a.takeoffQueue  queueTime:vector  ETV
attr source  queueTimeSignal
vector 0  SimNetwork.wg  responseTime:vector  ETV
attr source  responseTimeSignal
vector 5  SimNetwork.a.runway  landedThroughput:vector  ETV
attr source  landedThroughputSignal
vector 6  SimNetwork.a.runway  tookoffThroughput:vector  ETV
attr source  tookoffThroughputSignal
0	552	203864.850783475133	13276.859002423
0	561	205186.695817777447	3886.1733248523
0	587	217696.529976311197	15915.456523905
0	595	218395.170450346902	3914.3709203035
0	620	225129.78352758981	9637.5958766752
0	628	226066.415449549298	3932.9958890203
0	645	230799.116265581974	8248.2145706826
0	671	242725.146758028132	14654.537296361
0	679	243693.507140179837	4013.1876386942
0	697	252185.246560795168	12131.4073553
0	721	255983.81514983367	6981.6033823529
0	729	256697.583166171134	4001.4808958466
0	754	261182.364823998572	7414.6864431301
0	762	261957.365529461757	3762.2515298771
0	779	267456.189450536816	9130.447981676
0	804	271797.469614538885	7387.0162575907
0	812	272604.468730032778	4049.8007495223
0	845	276314.671776925941	7650.1345457923
0	853	276835.500883420395	3906.4071605428
0	861	278166.721454490092	5129.0762649306
0	878	282860.432572976867	8010.4611619057
0	895	289219.458717982901	9393.7208349094
0	912	297966.005911365464	11689.043149209
0	929	304969.476626830209	10147.714335937
0	946	308385.264456170248	6527.4003178133
0	966	335270.775668802015	29898.227240546
0	993	349042.126103959671	16828.353130503
0	1001	350879.749613073614	5673.1917839744
0	1018	356880.170431202693	9027.37909795
0	1036	368564.865942540811	14646.27721039
0	1054	383591.440004395774	18225.249242295
0	1074	406186.979715597147	25497.587170503
0	1102	410172.478025574269	6847.5362231558
0	1115	411951.65350581892	4592.4672158395
0	1123	413175.240503987097	4464.99174116
0	1140	419007.090283253416	8983.1786133064
0	1157	423612.274331643094	7932.4163050271
0	1183	433848.526301078978	13678.520407273
0	1191	434625.517828433894	3958.6997752923
0	1208	438739.112737099955	7000.5740705704
0	1232	443038.953880303052	7383.8015181101
0	1241	444074.617214556517	3810.9651528655
0	1257	447974.303711574624	7606.9536235201
0	1284	463230.99154404223	18443.524816859
0	1292	464007.307989196859	3718.7334352266
0	1309	469424.780806137095	8176.1280729439
0	1326	475515.399581194772	9181.7596124136
0	1352	486904.225863388547	14479.971170743
0	1360	488718.951761694879	5080.9725678114
0	1378	500217.642325974069	14736.646534426
0	1395	509341.765060796668	12038.779072387
0	1412	513035.569685260128	6547.0227210485
0	1429	516608.188742812207	6152.5549130619
0	1445	519782.48746751505	6262.7525032454
0	1472	536785.006421026639	19824.377702532
0	1480	538618.987892365278	5315.9319178893
0	1499	554475.684807091163	18940.820330782
0	1516	562527.309503054862	11002.853689638
0	1535	577108.666844232995	17315.474696224
0	1552	584700.404656105359	10934.128103444
0	1572	610007.89880869815	28556.210176417
0	1589	614185.09753200214	6906.2586208854
0	1614	623987.43857988223	12570.944667496
0	1623	624663.826327371403	3669.6319810228
0	1641	636183.715862227565	14121.255957116
0	1658	645735.529959747602	12401.551989484
0	1683	649136.714019223803	6316.7254074023
0	1691	650172.70651634901	4150.6973740378
0	1708	658414.174363799898	11553.589731747
0	1725	662484.685585998927	6840.5162854664
0	1751	674335.029199141158	14569.21590358
0	1759	675467.025003448457	4361.6679791957
0	1776	681510.079386519484	8865.9328576334
0	1795	698204.723506733326	19768.956739293
0	1812	706379.754916170006	11118.878529243
0	1829	711541.560635113155	8223.4143062304
0	1846	715200.631602250551	6534.8535411222
0	1863	721009.19250226304	8708.4917885851
0	1887	724367.918090364698	6378.6441933962
0	1895	725569.162866966438	3620.2304939463
0	1912	730898.319616984539	8199.0186881363
0	1930	739869.079831202339	12232.518520191
0	1964	752337.188808743168	15399.612015476
0	1972	753070.521595672861	3863.4879605507
0	1980	754091.947896729794	3980.9984073969
0	1997	758945.987212904706	7701.1762002581
0	2015	773731.567550837456	17905.742878604
0	2032	777278.538866882922	6710.150328534
0	2050	788952.236707744485	14958.69202179
0	2067	796653.279770755126	10571.839077841
0	2085	804273.93651774733	10582.446309782
0	2118	810003.034197270278	8385.0490426171
0	2134	811388.262676046937	5545.723999464
0	2145	812005.74394918944	4363.2742614721
0	2158	813130.291427275835	4930.4042492751
0	2166	814871.579181412231	4738.0877596118
0	2193	831065.182353438756	19231.241300992
0	2209	832856.530534318211	4873.0862308736
0	2226	834454.241864594334	4507.6977820724
0	2234	836419.293116377169	5233.5994103595
0	2256	855016.951580466688	21647.723473247
0	2278	858032.906582483439	5737.8871164446
0	2294	860062.046817966916	5295.4764459314
0	2302	862164.819573984923	6955.2712867064
0	2328	870744.581370582197	11920.597510196
0	2336	871769.632556916274	3711.0882257405
0	2353	880005.397081848079	11745.788194881
0	2372	895875.569942295303	18944.256731467
0	2397	904219.06108226207	11364.283395884
0	2405	905276.446990249264	3815.9671337127
0	2423	913186.165081405734	11329.552362975
0	2449	924860.531188305803	14636.706326986
0	2457	926656.089354909737	5355.0146688636
0	2481	975292.184881925589	51549.977716468
0	2506	978543.579854902992	6511.6067452941
0	2525	980447.775077973181	4957.3960102428
0	2538	981723.263999039231	4310.8854450555
0	2546	983338.123949346569	4585.4669684878
0	2565	998600.533106169827	18272.029273777
0	2590	1006497.628678303847	11003.186202658
0	2598	1007701.936843084269	4292.9562704434
0	2627	1032710.552013786098	27846.918198573
0	2635	1034760.230407138076	5271.8378041618
0	2651	1037762.161100404918	6154.7358805698
0	2669	1044022.493549193697	9208.410626208
0	2685	1048823.766206643579	8127.4150347105
0	2702	1055555.312352584909	9884.550694715
0	2719	1059237.919216249775	6675.1069897632
0	2744	1064630.781898814456	8160.5637903185
0	2752	1065940.542739620461	3954.4996193676
0	2770	1076662.874685427401	13948.139444581
0	2796	1086961.196819080915	12996.571380357
0	2812	1089220.998552226093	5844.314207102
0	2820	1091179.337846465523	5394.3019086571
0	2849	1098552.705809103624	10528.321190094
0	2862	1099689.477824900813	3828.6131736771
0	2886	1101868.588720345212	5899.8894537288
0	2894	1102459.427708363163	4068.5651394782
0	2902	1103715.793412898215	4010.2897089981
0	2928	1114199.094614473877	13527.611085601
0	2937	1116127.460111685137	4721.8974111389
0	2954	1122418.816158128988	9336.2321849727
1	533	201300.522492925104	0
1	541	202148.222753050323	367.14930064401
1	567	214480.799530043409	0
1	575	215492.187650914605	0
1	601	222133.419560528961	0
1	609	223095.504533822313	544.60283892294
1	634	228070.609461667044	0
1	651	239680.319501485628	0
1	660	240620.494804553269	566.65559905849
1	685	249002.211767480781	0
1	702	252696.102270324516	0
1	710	253767.678380868433	0
1	735	258195.113999584664	0
1	743	258966.001408684947	640.25993982414
1	768	264410.4533569482	0
1	784	268554.667980510478	0
1	792	269501.35521641567	836.81798528203
1	817	272929.09372287764	0
1	825	273921.913329142008	884.26813958248
1	833	274874.048198068424	24.076786997255
1	866	279825.737883073497	0
1	883	286276.962762156517	0
1	901	294821.762290893303	0
1	918	301857.864138356949	0
1	934	305372.548428256128	0
1	955	332213.77297345674	0
1	973	345206.557829099228	0
1	981	347852.791333252663	0
1	1006	353918.588732151123	0
1	1024	365366.190762101215	0
1	1043	380689.392545093883	0
1	1063	403324.941802418483	0
1	1079	407359.186289979419	0
1	1088	408710.248762827108	0
1	1104	410172.478025574269	148.5663556273
1	1129	415679.858026616019	0
1	1146	420170.005893805529	0
1	1163	430666.818053141571	0
1	1171	431738.538666529579	0
1	1196	435655.152362192973	0
1	1213	440263.652061691053	0
1	1221	441002.819226325576	635.46913827108
1	1246	444787.4667271829	0
1	1264	460288.57455397023	0
1	1272	461248.652733193217	0
1	1297	466333.639968781129	0
1	1314	472424.254692645499	0
1	1332	483637.979193883489	0
1	1340	485480.995791547683	0
1	1366	497302.985988409205	0
1	1384	506488.546964211597	0
1	1401	510455.633829750338	0
1	1417	513519.73496426963	0
1	1434	516960.628718494293	0
1	1452	533303.055974475997	0
1	1461	535534.86447630911	0
1	1487	551524.455813416602	0
1	1505	559793.192148009088	0
1	1523	573766.276552661276	0
1	1540	581451.688632281166	0
1	1561	607278.838911116734	0
1	1577	611416.49391238621	0
1	1595	620994.19434634862	0
1	1603	622062.459905111234	0
1	1629	633333.977970264092	0
1	1647	642819.988611821534	0
1	1663	646022.009142311208	0
1	1671	646964.709160196901	104.12452814447
1	1697	655644.169300532572	0
1	1713	659765.813295561591	0
1	1731	671105.357024252763	0
1	1740	672644.146528886131	0
1	1765	678435.766767440387	0
1	1783	695260.876386926817	0
1	1801	703318.146328882711	0
1	1818	708665.778061128313	0
1	1834	712300.700713677936	0
1	1851	717989.273896968478	0
1	1868	721948.932373020156	0
1	1876	722786.97943095755	87.67850210932
1	1901	727636.561311011726	0
1	1918	736937.576793267552	0
1	1936	749207.033635122148	0
1	1945	750110.949489332917	0
1	1953	751244.81101264663	0
1	1985	755825.824672233166	0
1	2004	770568.388538348906	0
1	2020	773993.544685954133	0
1	2039	786081.440692914231	0
1	2056	793691.490207964861	0
1	2073	801617.985154653185	0
1	2090	805842.538676582962	0
1	2098	807642.469687717381	0
1	2109	808720.280680957938	520.3935029572
1	2123	810133.491421800451	0
1	2147	812005.74394918944	171.80289674313
1	2173	827983.444303444642	0
1	2182	829946.544082521891	0
1	2198	831185.693706017709	0
1	2214	833369.228107219892	0
1	2242	852295.019466038868	0
1	2258	855016.951580466688	250.38120843117
1	2266	856088.328163966314	878.77987668776
1	2283	858823.983860386569	0
1	2308	868058.544331175813	0
1	2316	868759.478198027591	499.86931106028
1	2342	876931.313210828285	0
1	2360	892854.777686377637	0
1	2378	901460.479856536591	0
1	2386	902300.564673823706	443.95195539302
1	2411	910223.82486131975	0
1	2429	921301.074686046152	0
1	2437	923742.20716545714	0
1	2470	972031.973109608884	0
1	2486	975490.379067730403	0
1	2494	977412.378553983731	0
1	2511	978752.656980858754	0
1	2527	980447.775077973181	119.27124558075
1	2553	995494.442475646236	0
1	2571	1003408.98057264085	0
1	2579	1004863.633815213504	0
1	2607	1029488.392602976304	0
1	2615	1031607.425219835083	0
1	2640	1034814.082922985708	0
1	2657	1040696.351171933108	0
1	2674	1045670.761657869896	0
1	2691	1052562.812226486616	0
1	2708	1056470.218108496005	0
1	2724	1061986.043120252813	0
1	2733	1062820.437350028467	105.70210918219
1	2758	1073964.625438723831	0
1	2776	1083376.684345124089	0
1	2784	1085785.035937808394	0
1	2801	1088024.384619009889	0
1	2826	1095860.864651223717	0
1	2834	1096624.835088698174	656.13582208179
1	2851	1098552.705809103624	161.84324021865
1	2867	1099705.503703900146	0
1	2875	1100671.483528872678	0
1	2909	1111405.562700546266	0
1	2917	1113082.583973156273	0
1	2942	1119698.149727986657	0
2	531	201300.522492925104	1
2	533	201300.522492925104	0
2	536	201781.073452406317	1
2	541	202148.222753050323	0
2	565	214480.799530043409	1
2	567	214480.799530043409	0
2	573	215492.187650914605	1
2	575	215492.187650914605	0
2	599	222133.419560528961	1
2	601	222133.419560528961	0
2	604	222550.901694899374	1
2	609	223095.504533822313	0
2	632	228070.609461667044	1
2	634	228070.609461667044	0
2	649	239680.319501485628	1
2	651	239680.319501485628	0
2	655	240053.839205494777	1
2	660	240620.494804553269	0
2	683	249002.211767480781	1
2	685	249002.211767480781	0
2	700	252696.102270324516	1
2	702	252696.102270324516	0
2	708	253767.678380868433	1
2	710	253767.678380868433	0
2	733	258195.113999584664	1
2	735	258195.113999584664	0
2	738	258325.741468860804	1
2	743	258966.001408684947	0
2	766	264410.4533569482	1
2	768	264410.4533569482	0
2	782	268554.667980510478	1
2	784	268554.667980510478	0
2	787	268664.537231133645	1
2	792	269501.35521641567	0
2	815	272929.09372287764	1
2	817	272929.09372287764	0
2	820	273037.645189559525	1
2	825	273921.913329142008	0
2	828	274849.971411071169	1
2	833	274874.048198068424	0
2	864	279825.737883073497	1
2	866	279825.737883073497	0
2	881	286276.962762156517	1
2	883	286276.962762156517	0
2	899	294821.762290893303	1
2	901	294821.762290893303	0
2	916	301857.864138356949	1
2	918	301857.864138356949	0
2	932	305372.548428256128	1
2	934	305372.548428256128	0
2	953	332213.77297345674	1
2	955	332213.77297345674	0
2	971	345206.557829099228	1
2	973	345206.557829099228	0
2	979	347852.791333252663	1
2	981	347852.791333252663	0
2	1004	353918.588732151123	1
2	1006	353918.588732151123	0
2	1022	365366.190762101215	1
2	1024	365366.190762101215	0
2	1041	380689.392545093883	1
2	1043	380689.392545093883	0
2	1061	403324.941802418483	1
2	1063	403324.941802418483	0
2	1077	407359.186289979419	1
2	1079	407359.186289979419	0
2	1086	408710.248762827108	1
2	1088	408710.248762827108	0
2	1099	410023.911669946969	1
2	1104	410172.478025574269	0
2	1127	415679.858026616019	1
2	1129	415679.858026616019	0
2	1144	420170.005893805529	1
2	1146	420170.005893805529	0
2	1161	430666.818053141571	1
2	1163	430666.818053141571	0
2	1169	431738.538666529579	1
2	1171	431738.538666529579	0
2	1194	435655.152362192973	1
2	1196	435655.152362192973	0
2	1211	440263.652061691053	1
2	1213	440263.652061691053	0
2	1216	440367.350088054499	1
2	1221	441002.819226325576	0
2	1244	444787.4667271829	1
2	1246	444787.4667271829	0
2	1262	460288.57455397023	1
2	1264	460288.57455397023	0
2	1270	461248.652733193217	1
2	1272	461248.652733193217	0
2	1295	466333.639968781129	1
2	1297	466333.639968781129	0
2	1312	472424.254692645499	1
2	1314	472424.254692645499	0
2	1330	483637.979193883489	1
2	1332	483637.979193883489	0
2	1338	485480.995791547683	1
2	1340	485480.995791547683	0
2	1364	497302.985988409205	1
2	1366	497302.985988409205	0
2	1382	506488.546964211597	1
2	1384	506488.546964211597	0
2	1399	510455.633829750338	1
2	1401	510455.633829750338	0
2	1415	513519.73496426963	1
2	1417	513519.73496426963	0
2	1432	516960.628718494293	1
2	1434	516960.628718494293	0
2	1450	533303.055974475997	1
2	1452	533303.055974475997	0
2	1459	535534.86447630911	1
2	1461	535534.86447630911	0
2	1485	551524.455813416602	1
2	1487	551524.455813416602	0
2	1503	559793.192148009088	1
2	1505	559793.192148009088	0
2	1521	573766.276552661276	1
2	1523	573766.276552661276	0
2	1538	581451.688632281166	1
2	1540	581451.688632281166	0
2	1559	607278.838911116734	1
2	1561	607278.838911116734	0
2	1575	611416.49391238621	1
2	1577	611416.49391238621	0
2	1593	620994.19434634862	1
2	1595	620994.19434634862	0
2	1601	622062.459905111234	1
2	1603	622062.459905111234	0
2	1627	633333.977970264092	1
2	1629	633333.977970264092	0
2	1645	642819.988611821534	1
2	1647	642819.988611821534	0
2	1661	646022.009142311208	1
2	1663	646022.009142311208	0
2	1666	646860.584632052428	1
2	1671	646964.709160196901	0
2	1695	655644.169300532572	1
2	1697	655644.169300532572	0
2	1711	659765.813295561591	1
2	1713	659765.813295561591	0
2	1729	671105.357024252763	1
2	1731	671105.357024252763	0
2	1738	672644.146528886131	1
2	1740	672644.146528886131	0
2	1763	678435.766767440387	1
2	1765	678435.766767440387	0
2	1781	695260.876386926817	1
2	1783	695260.876386926817	0
2	1799	703318.146328882711	1
2	1801	703318.146328882711	0
2	1816	708665.778061128313	1
2	1818	708665.778061128313	0
2	1832	712300.700713677936	1
2	1834	712300.700713677936	0
2	1849	717989.273896968478	1
2	1851	717989.273896968478	0
2	1866	721948.932373020156	1
2	1868	721948.932373020156	0
2	1871	722699.30092884823	1
2	1876	722786.97943095755	0
2	1899	727636.561311011726	1
2	1901	727636.561311011726	0
2	1916	736937.576793267552	1
2	1918	736937.576793267552	0
2	1934	749207.033635122148	1
2	1936	749207.033635122148	0
2	1943	750110.949489332917	1
2	1945	750110.949489332917	0
2	1951	751244.81101264663	1
2	1953	751244.81101264663	0
2	1983	755825.824672233166	1
2	1985	755825.824672233166	0
2	2002	770568.388538348906	1
2	2004	770568.388538348906	0
2	2018	773993.544685954133	1
2	2020	773993.544685954133	0
2	2037	786081.440692914231	1
2	2039	786081.440692914231	0
2	2054	793691.490207964861	1
2	2056	793691.490207964861	0
2	2071	801617.985154653185	1
2	2073	801617.985154653185	0
2	2088	805842.538676582962	1
2	2090	805842.538676582962	0
2	2096	807642.469687717381	1
2	2098	807642.469687717381	0
2	2101	808199.887178000736	1
2	2109	808720.280680957938	0
2	2121	810133.491421800451	1
2	2123	810133.491421800451	0
2	2142	811833.941052446306	1
2	2147	812005.74394918944	0
2	2171	827983.444303444642	1
2	2173	827983.444303444642	0
2	2180	829946.544082521891	1
2	2182	829946.544082521891	0
2	2196	831185.693706017709	1
2	2198	831185.693706017709	0
2	2212	833369.228107219892	1
2	2214	833369.228107219892	0
2	2240	852295.019466038868	1
2	2242	852295.019466038868	0
2	2253	854766.570372035522	1
2	2258	855016.951580466688	0
2	2261	855209.548287278552	1
2	2266	856088.328163966314	0
2	2281	858823.983860386569	1
2	2283	858823.983860386569	0
2	2306	868058.544331175813	1
2	2308	868058.544331175813	0
2	2311	868259.608886967315	1
2	2316	868759.478198027591	0
2	2340	876931.313210828285	1
2	2342	876931.313210828285	0
2	2358	892854.777686377637	1
2	2360	892854.777686377637	0
2	2376	901460.479856536591	1
2	2378	901460.479856536591	0
2	2381	901856.612718430686	1
2	2386	902300.564673823706	0
2	2409	910223.82486131975	1
2	2411	910223.82486131975	0
2	2427	921301.074686046152	1
2	2429	921301.074686046152	0
2	2435	923742.20716545714	1
2	2437	923742.20716545714	0
2	2468	972031.973109608884	1
2	2470	972031.973109608884	0
2	2484	975490.379067730403	1
2	2486	975490.379067730403	0
2	2492	977412.378553983731	1
2	2494	977412.378553983731	0
2	2509	978752.656980858754	1
2	2511	978752.656980858754	0
2	2522	980328.503832392436	1
2	2527	980447.775077973181	0
2	2551	995494.442475646236	1
2	2553	995494.442475646236	0
2	2569	1003408.98057264085	1
2	2571	1003408.98057264085	0
2	2577	1004863.633815213504	1
2	2579	1004863.633815213504	0
2	2605	1029488.392602976304	1
2	2607	1029488.392602976304	0
2	2613	1031607.425219835083	1
2	2615	1031607.425219835083	0
2	2638	1034814.082922985708	1
2	2640	1034814.082922985708	0
2	2655	1040696.351171933108	1
2	2657	1040696.351171933108	0
2	2672	1045670.761657869896	1
2	2674	1045670.761657869896	0
2	2689	1052562.812226486616	1
2	2691	1052562.812226486616	0
2	2706	1056470.218108496005	1
2	2708	1056470.218108496005	0
2	2722	1061986.043120252813	1
2	2724	1061986.043120252813	0
2	2728	1062714.735240846281	1
2	2733	1062820.437350028467	0
2	2756	1073964.625438723831	1
2	2758	1073964.625438723831	0
2	2774	1083376.684345124089	1
2	2776	1083376.684345124089	0
2	2782	1085785.035937808394	1
2	2784	1085785.035937808394	0
2	2799	1088024.384619009889	1
2	2801	1088024.384619009889	0
2	2824	1095860.864651223717	1
2	2826	1095860.864651223717	0
2	2829	1095968.699266616383	1
2	2834	1096624.835088698174	0
2	2846	1098390.862568884972	1
2	2851	1098552.705809103624	0
2	2865	1099705.503703900146	1
2	2867	1099705.503703900146	0
2	2873	1100671.483528872678	1
2	2875	1100671.483528872678	0
2	2907	1111405.562700546266	1
2	2909	1111405.562700546266	0
2	2915	1113082.583973156273	1
2	2917	1113082.583973156273	0
2	2940	1119698.149727986657	1
2	2942	1119698.149727986657	0
3	549	203601.799602358937	0
3	558	204870.809347043367	0
3	584	217454.035906810592	0
3	592	218099.363842434599	0
3	617	224754.563411737184	0
3	625	225801.796573826316	0
3	642	230526.602086342415	0
3	668	242399.158331797058	0
3	676	243438.815200373926	0
3	693	251908.874396602388	0
3	718	255654.444855515349	0
3	726	256422.941093517538	0
3	751	260891.591881718199	0
3	759	261634.601710648933	0
3	776	267159.596430526465	0
3	801	271486.213689876506	0
3	809	272287.637218824179	0
3	842	276014.13040325006	482.85707713705
3	850	276532.507928677917	0
3	858	277879.239709174216	0
3	875	282626.042203189101	0
3	892	288958.317613298293	0
3	909	297669.72135808138	0
3	926	304634.620733477007	0
3	943	308084.707268083083	0
3	963	335000.41880200344	0
3	990	348704.614308214777	568.2998738905
3	998	350567.497752771995	0
3	1015	356587.772736222396	0
3	1033	368284.853622524436	0
3	1051	383325.646339483253	0
3	1071	405943.183495384762	0
3	1096	409882.33563609951	217.85980458194
3	1112	411634.632640563116	0
3	1120	412905.724541673124	0
3	1137	418708.586851004567	0
3	1154	423356.292617903467	0
3	1180	433544.594189792407	0
3	1188	434324.270095803175	0
3	1205	438461.365096807606	0
3	1229	442746.740895284972	0
3	1237	443767.097276902602	0
3	1254	447689.734425361531	0
3	1281	462904.073834578386	0
3	1289	463685.544166451267	0
3	1306	469138.461706865871	0
3	1323	475218.496548596722	0
3	1349	486581.582071798305	341.73511235639
3	1357	488348.704998645662	0
3	1375	499940.776738943546	0
3	1392	509050.125401309569	0
3	1409	512754.415613594603	0
3	1426	516280.612449319682	0
3	1442	519546.3770567491	0
3	1469	536458.637213121209	650.37847279165
3	1477	538273.768140455397	0
3	1496	554177.374603392327	0
3	1513	562207.261900214494	0
3	1532	576833.659085258191	0
3	1549	584402.80327143508	0
3	1569	609660.287025588526	0
3	1586	613953.179402250156	0
3	1611	623628.263588401468	0
3	1620	624383.655993713623	0
3	1637	635882.421936208161	0
3	1655	645413.590289349772	0
3	1680	648864.614402101167	0
3	1688	649877.753566847657	0
3	1705	658108.005143040207	0
3	1722	662158.240935519703	0
3	1748	673988.320889808116	0
3	1756	675188.007857289968	0
3	1773	681218.75502523338	0
3	1792	697896.746296166122	0
3	1809	706066.629068024503	0
3	1826	711266.065124213823	0
3	1843	714910.329188868953	0
3	1860	720673.590952230493	0
3	1884	724072.655625184414	0
3	1892	725271.374356279778	0
3	1909	730606.579152773523	0
3	1927	739537.679100431705	0
3	1961	752023.621782759459	27.935222507684
3	1969	752763.531761135212	0
3	1977	753830.338019687709	0
3	1994	758691.897181864642	0
3	2012	773443.642288269615	0
3	2029	776961.695601100098	0
3	2047	788599.646820662885	0
3	2064	796327.582304181535	0
3	2082	804003.502660345526	0
3	2114	809708.755744918516	1135.1917835132
3	2131	811064.546123913617	648.09586112645
3	2139	811719.382489902741	0
3	2155	812835.335006543901	26.452876284524
3	2163	814569.643363773497	0
3	2190	830827.857804673149	188.69971564266
3	2206	832520.647502214324	0
3	2223	834138.423958233634	60.263540813257
3	2231	836155.877727380564	0
3	2250	854736.691623214026	0
3	2274	857744.936443744572	0
3	2291	859762.100849580977	899.93157526206
3	2299	861900.898962898972	0
3	2325	870466.239687517378	0
3	2333	871488.039162827934	0
3	2350	879683.680194096492	0
3	2369	895574.104773318562	0
3	2394	903910.671508960304	0
3	2402	904995.015337295715	0
3	2420	912922.54451714248	0
3	2446	924579.212184840247	351.55843604103
3	2454	926372.709534862403	0
3	2478	974964.99290847886	0
3	2503	978296.669742390531	0
3	2519	980138.844740346943	0
3	2535	981414.321010711744	0
3	2543	982994.057845713035	0
3	2562	998239.388356466693	0
3	2587	1006185.79222867403	0
3	2595	1007387.131296076572	0
3	2624	1032394.73650736457	191.23369813147
3	2632	1034491.777627391797	0
3	2648	1037475.40943047482	0
3	2665	1043709.906287386486	0
3	2682	1048530.691122792142	0
3	2699	1055246.357249086164	0
3	2716	1058990.126636351533	0
3	2741	1064329.015794674981	0
3	2749	1065599.343768847951	0
3	2767	1076347.151487660406	0
3	2793	1086653.976558066544	480.85640414205
3	2809	1088918.329947239834	360.74760067051
3	2817	1090906.03684284168	0
3	2843	1098238.658293279789	0
3	2859	1099403.567964469394	127.23138599892
3	2883	1101584.126435575489	493.35647529397
3	2891	1102153.243628984482	0
3	2899	1103446.659936753274	0
3	2925	1113926.600972763841	0
3	2933	1115797.777128883957	0
3	2951	1122147.111403967048	0
4	547	203601.799602358937	1
4	549	203601.799602358937	0
4	556	204870.809347043367	1
4	558	204870.809347043367	0
4	582	217454.035906810592	1
4	584	217454.035906810592	0
4	590	218099.363842434599	1
4	592	218099.363842434599	0
4	615	224754.563411737184	1
4	617	224754.563411737184	0
4	623	225801.796573826316	1
4	625	225801.796573826316	0
4	640	230526.602086342415	1
4	642	230526.602086342415	0
4	666	242399.158331797058	1
4	668	242399.158331797058	0
4	674	243438.815200373926	1
4	676	243438.815200373926	0
4	691	251908.874396602388	1
4	693	251908.874396602388	0
4	716	255654.444855515349	1
4	718	255654.444855515349	0
4	724	256422.941093517538	1
4	726	256422.941093517538	0
4	749	260891.591881718199	1
4	751	260891.591881718199	0
4	757	261634.601710648933	1
4	759	261634.601710648933	0
4	774	267159.596430526465	1
4	776	267159.596430526465	0
4	799	271486.213689876506	1
4	801	271486.213689876506	0
4	807	272287.637218824179	1
4	809	272287.637218824179	0
4	836	275531.273326113014	1
4	842	276014.13040325006	0
4	848	276532.507928677917	1
4	850	276532.507928677917	0
4	856	277879.239709174216	1
4	858	277879.239709174216	0
4	873	282626.042203189101	1
4	875	282626.042203189101	0
4	890	288958.317613298293	1
4	892	288958.317613298293	0
4	907	297669.72135808138	1
4	909	297669.72135808138	0
4	924	304634.620733477007	1
4	926	304634.620733477007	0
4	941	308084.707268083083	1
4	943	308084.707268083083	0
4	961	335000.41880200344	1
4	963	335000.41880200344	0
4	985	348136.314434324276	1
4	990	348704.614308214777	0
4	996	350567.497752771995	1
4	998	350567.497752771995	0
4	1013	356587.772736222396	1
4	1015	356587.772736222396	0
4	1031	368284.853622524436	1
4	1033	368284.853622524436	0
4	1049	383325.646339483253	1
4	1051	383325.646339483253	0
4	1069	405943.183495384762	1
4	1071	405943.183495384762	0
4	1091	409664.475831517574	1
4	1096	409882.33563609951	0
4	1110	411634.632640563116	1
4	1112	411634.632640563116	0
4	1118	412905.724541673124	1
4	1120	412905.724541673124	0
4	1135	418708.586851004567	1
4	1137	418708.586851004567	0
4	1152	423356.292617903467	1
4	1154	423356.292617903467	0
4	1178	433544.594189792407	1
4	1180	433544.594189792407	0
4	1186	434324.270095803175	1
4	1188	434324.270095803175	0
4	1203	438461.365096807606	1
4	1205	438461.365096807606	0
4	1227	442746.740895284972	1
4	1229	442746.740895284972	0
4	1235	443767.097276902602	1
4	1237	443767.097276902602	0
4	1252	447689.734425361531	1
4	1254	447689.734425361531	0
4	1279	462904.073834578386	1
4	1281	462904.073834578386	0
4	1287	463685.544166451267	1
4	1289	463685.544166451267	0
4	1304	469138.461706865871	1
4	1306	469138.461706865871	0
4	1321	475218.496548596722	1
4	1323	475218.496548596722	0
4	1344	486239.846959441919	1
4	1349	486581.582071798305	0
4	1355	488348.704998645662	1
4	1357	488348.704998645662	0
4	1373	499940.776738943546	1
4	1375	499940.776738943546	0
4	1390	509050.125401309569	1
4	1392	509050.125401309569	0
4	1407	512754.415613594603	1
4	1409	512754.415613594603	0
4	1424	516280.612449319682	1
4	1426	516280.612449319682	0
4	1440	519546.3770567491	1
4	1442	519546.3770567491	0
4	1464	535808.258740329556	1
4	1469	536458.637213121209	0
4	1475	538273.768140455397	1
4	1477	538273.768140455397	0
4	1494	554177.374603392327	1
4	1496	554177.374603392327	0
4	1511	562207.261900214494	1
4	1513	562207.261900214494	0
4	1530	576833.659085258191	1
4	1532	576833.659085258191	0
4	1547	584402.80327143508	1
4	1549	584402.80327143508	0
4	1567	609660.287025588526	1
4	1569	609660.287025588526	0
4	1584	613953.179402250156	1
4	1586	613953.179402250156	0
4	1609	623628.263588401468	1
4	1611	623628.263588401468	0
4	1618	624383.655993713623	1
4	1620	624383.655993713623	0
4	1635	635882.421936208161	1
4	1637	635882.421936208161	0
4	1653	645413.590289349772	1
4	1655	645413.590289349772	0
4	1678	648864.614402101167	1
4	1680	648864.614402101167	0
4	1686	649877.753566847657	1
4	1688	649877.753566847657	0
4	1703	658108.005143040207	1
4	1705	658108.005143040207	0
4	1720	662158.240935519703	1
4	1722	662158.240935519703	0
4	1746	673988.320889808116	1
4	1748	673988.320889808116	0
4	1754	675188.007857289968	1
4	1756	675188.007857289968	0
4	1771	681218.75502523338	1
4	1773	681218.75502523338	0
4	1790	697896.746296166122	1
4	1792	697896.746296166122	0
4	1807	706066.629068024503	1
4	1809	706066.629068024503	0
4	1824	711266.065124213823	1
4	1826	711266.065124213823	0
4	1841	714910.329188868953	1
4	1843	714910.329188868953	0
4	1858	720673.590952230493	1
4	1860	720673.590952230493	0
4	1882	724072.655625184414	1
4	1884	724072.655625184414	0
4	1890	725271.374356279778	1
4	1892	725271.374356279778	0
4	1907	730606.579152773523	1
4	1909	730606.579152773523	0
4	1925	739537.679100431705	1
4	1927	739537.679100431705	0
4	1956	751995.686560251775	1
4	1961	752023.621782759459	0
4	1967	752763.531761135212	1
4	1969	752763.531761135212	0
4	1975	753830.338019687709	1
4	1977	753830.338019687709	0
4	1992	758691.897181864642	1
4	1994	758691.897181864642	0
4	2010	773443.642288269615	1
4	2012	773443.642288269615	0
4	2027	776961.695601100098	1
4	2029	776961.695601100098	0
4	2045	788599.646820662885	1
4	2047	788599.646820662885	0
4	2062	796327.582304181535	1
4	2064	796327.582304181535	0
4	2080	804003.502660345526	1
4	2082	804003.502660345526	0
4	2104	808573.56396140531	1
4	2114	809708.755744918516	0
4	2126	810416.450262787164	1
4	2131	811064.546123913617	0
4	2137	811719.382489902741	1
4	2139	811719.382489902741	0
4	2150	812808.882130259377	1
4	2155	812835.335006543901	0
4	2161	814569.643363773497	1
4	2163	814569.643363773497	0
4	2185	830639.15808903049	1
4	2190	830827.857804673149	0
4	2204	832520.647502214324	1
4	2206	832520.647502214324	0
4	2218	834078.160417420377	1
4	2223	834138.423958233634	0
4	2229	836155.877727380564	1
4	2231	836155.877727380564	0
4	2248	854736.691623214026	1
4	2250	854736.691623214026	0
4	2272	857744.936443744572	1
4	2274	857744.936443744572	0
4	2286	858862.169274318912	1
4	2291	859762.100849580977	0
4	2297	861900.898962898972	1
4	2299	861900.898962898972	0
4	2323	870466.239687517378	1
4	2325	870466.239687517378	0
4	2331	871488.039162827934	1
4	2333	871488.039162827934	0
4	2348	879683.680194096492	1
4	2350	879683.680194096492	0
4	2367	895574.104773318562	1
4	2369	895574.104773318562	0
4	2392	903910.671508960304	1
4	2394	903910.671508960304	0
4	2400	904995.015337295715	1
4	2402	904995.015337295715	0
4	2418	912922.54451714248	1
4	2420	912922.54451714248	0
4	2441	924227.653748799218	1
4	2446	924579.212184840247	0
4	2452	926372.709534862403	1
4	2454	926372.709534862403	0
4	2476	974964.99290847886	1
4	2478	974964.99290847886	0
4	2501	978296.669742390531	1
4	2503	978296.669742390531	0
4	2517	980138.844740346943	1
4	2519	980138.844740346943	0
4	2533	981414.321010711744	1
4	2535	981414.321010711744	0
4	2541	982994.057845713035	1
4	2543	982994.057845713035	0
4	2560	998239.388356466693	1
4	2562	998239.388356466693	0
4	2585	1006185.79222867403	1
4	2587	1006185.79222867403	0
4	2593	1007387.131296076572	1
4	2595	1007387.131296076572	0
4	2619	1032203.502809233101	1
4	2624	1032394.73650736457	0
4	2630	1034491.777627391797	1
4	2632	1034491.777627391797	0
4	2646	1037475.40943047482	1
4	2648	1037475.40943047482	0
4	2663	1043709.906287386486	1
4	2665	1043709.906287386486	0
4	2680	1048530.691122792142	1
4	2682	1048530.691122792142	0
4	2697	1055246.357249086164	1
4	2699	1055246.357249086164	0
4	2714	1058990.126636351533	1
4	2716	1058990.126636351533	0
4	2739	1064329.015794674981	1
4	2741	1064329.015794674981	0
4	2747	1065599.343768847951	1
4	2749	1065599.343768847951	0
4	2765	1076347.151487660406	1
4	2767	1076347.151487660406	0
4	2788	1086173.120153924492	1
4	2793	1086653.976558066544	0
4	2804	1088557.582346569323	1
4	2809	1088918.329947239834	0
4	2815	1090906.03684284168	1
4	2817	1090906.03684284168	0
4	2841	1098238.658293279789	1
4	2843	1098238.658293279789	0
4	2854	1099276.336578470475	1
4	2859	1099403.567964469394	0
4	2878	1101090.76996028152	1
4	2883	1101584.126435575489	0
4	2889	1102153.243628984482	1
4	2891	1102153.243628984482	0
4	2897	1103446.659936753274	1
4	2899	1103446.659936753274	0
4	2923	1113926.600972763841	1
4	2925	1113926.600972763841	0
4	2931	1115797.777128883957	1
4	2933	1115797.777128883957	0
4	2949	1122147.111403967048	1
4	2951	1122147.111403967048	0
5	554	204000	2
5	563	210000	0
5	577	216000	1
5	597	222000	1
5	630	228000	2
5	647	234000	1
5	653	240000	0
5	681	246000	2
5	695	252000	1
5	731	258000	2
5	764	264000	2
5	794	270000	2
5	838	276000	3
5	871	282000	2
5	888	288000	1
5	897	294000	0
5	914	300000	1
5	936	306000	1
5	948	312000	1
5	949	318000	0
5	950	324000	0
5	951	330000	0
5	968	336000	1
5	969	342000	0
5	983	348000	1
5	1008	354000	1
5	1020	360000	1
5	1026	366000	0
5	1038	372000	1
5	1039	378000	0
5	1056	384000	1
5	1057	390000	0
5	1058	396000	0
5	1059	402000	0
5	1081	408000	1
5	1125	414000	3
5	1142	420000	1
5	1159	426000	1
5	1173	432000	1
5	1201	438000	2
5	1239	444000	2
5	1259	450000	1
5	1260	456000	0
5	1274	462000	1
5	1302	468000	2
5	1319	474000	1
5	1328	480000	0
5	1342	486000	1
5	1362	492000	1
5	1368	498000	0
5	1380	504000	1
5	1397	510000	1
5	1422	516000	2
5	1447	522000	1
5	1448	528000	0
5	1454	534000	0
5	1482	540000	2
5	1483	546000	0
5	1489	552000	0
5	1501	558000	1
5	1518	564000	1
5	1519	570000	0
5	1528	576000	1
5	1542	582000	0
5	1554	588000	1
5	1555	594000	0
5	1556	600000	0
5	1557	606000	0
5	1579	612000	1
5	1591	618000	1
5	1616	624000	2
5	1625	630000	0
5	1639	636000	1
5	1643	642000	0
5	1676	648000	3
5	1693	654000	0
5	1715	660000	1
5	1727	666000	1
5	1733	672000	0
5	1761	678000	2
5	1778	684000	1
5	1779	690000	0
5	1785	696000	0
5	1797	702000	1
5	1814	708000	1
5	1839	714000	2
5	1856	720000	1
5	1897	726000	2
5	1914	732000	1
5	1923	738000	1
5	1932	744000	0
5	1938	750000	0
5	1987	756000	3
5	1999	762000	1
5	2000	768000	0
5	2022	774000	1
5	2034	780000	1
5	2035	786000	0
5	2052	792000	1
5	2069	798000	1
5	2078	804000	1
5	2116	810000	3
5	2168	816000	2
5	2169	822000	0
5	2175	828000	0
5	2216	834000	3
5	2236	840000	1
5	2237	846000	0
5	2238	852000	0
5	2276	858000	3
5	2304	864000	1
5	2321	870000	2
5	2338	876000	0
5	2355	882000	1
5	2356	888000	0
5	2365	894000	1
5	2374	900000	0
5	2407	906000	2
5	2416	912000	1
5	2425	918000	0
5	2439	924000	1
5	2459	930000	1
5	2460	936000	0
5	2461	942000	0
5	2462	948000	0
5	2463	954000	0
5	2464	960000	0
5	2465	966000	0
5	2466	972000	0
5	2496	978000	2
5	2548	984000	3
5	2549	990000	0
5	2555	996000	0
5	2567	1002000	1
5	2600	1008000	2
5	2601	1014000	0
5	2602	1020000	0
5	2603	1026000	0
5	2617	1032000	1
5	2653	1038000	2
5	2667	1044000	1
5	2687	1050000	1
5	2704	1056000	1
5	2726	1062000	1
5	2754	1068000	2
5	2760	1074000	0
5	2772	1080000	1
5	2786	1086000	1
5	2822	1092000	2
5	2839	1098000	2
5	2904	1104000	3
5	2905	1110000	0
5	2935	1116000	2
5	2947	1122000	1
6	554	204000	1
6	563	210000	1
6	577	216000	0
6	597	222000	2
6	630	228000	2
6	647	234000	1
6	653	240000	0
6	681	246000	2
6	695	252000	0
6	731	258000	3
6	764	264000	2
6	794	270000	1
6	838	276000	2
6	871	282000	3
6	888	288000	1
6	897	294000	1
6	914	300000	1
6	936	306000	1
6	948	312000	1
6	949	318000	0
6	950	324000	0
6	951	330000	0
6	968	336000	1
6	969	342000	0
6	983	348000	0
6	1008	354000	2
6	1020	360000	1
6	1026	366000	0
6	1038	372000	1
6	1039	378000	0
6	1056	384000	1
6	1057	390000	0
6	1058	396000	0
6	1059	402000	0
6	1081	408000	1
6	1125	414000	3
6	1142	420000	1
6	1159	426000	1
6	1173	432000	0
6	1201	438000	2
6	1239	444000	2
6	1259	450000	2
6	1260	456000	0
6	1274	462000	0
6	1302	468000	2
6	1319	474000	1
6	1328	480000	1
6	1342	486000	0
6	1362	492000	2
6	1368	498000	0
6	1380	504000	1
6	1397	510000	1
6	1422	516000	1
6	1447	522000	2
6	1448	528000	0
6	1454	534000	0
6	1482	540000	2
6	1483	546000	0
6	1489	552000	0
6	1501	558000	1
6	1518	564000	1
6	1519	570000	0
6	1528	576000	0
6	1542	582000	1
6	1554	588000	1
6	1555	594000	0
6	1556	600000	0
6	1557	606000	0
6	1579	612000	1
6	1591	618000	1
6	1616	624000	1
6	1625	630000	1
6	1639	636000	0
6	1643	642000	1
6	1676	648000	1
6	1693	654000	2
6	1715	660000	1
6	1727	666000	1
6	1733	672000	0
6	1761	678000	2
6	1778	684000	1
6	1779	690000	0
6	1785	696000	0
6	1797	702000	1
6	1814	708000	1
6	1839	714000	1
6	1856	720000	1
6	1897	726000	3
6	1914	732000	1
6	1923	738000	0
6	1932	744000	1
6	1938	750000	0
6	1987	756000	3
6	1999	762000	1
6	2000	768000	0
6	2022	774000	1
6	2034	780000	1
6	2035	786000	0
6	2052	792000	1
6	2069	798000	1
6	2078	804000	0
6	2116	810000	1
6	2168	816000	5
6	2169	822000	0
6	2175	828000	0
6	2216	834000	2
6	2236	840000	2
6	2237	846000	0
6	2238	852000	0
6	2276	858000	1
6	2304	864000	3
6	2321	870000	0
6	2338	876000	2
6	2355	882000	1
6	2356	888000	0
6	2365	894000	0
6	2374	900000	1
6	2407	906000	2
6	2416	912000	0
6	2425	918000	1
6	2439	924000	0
6	2459	930000	2
6	2460	936000	0
6	2461	942000	0
6	2462	948000	0
6	2463	954000	0
6	2464	960000	0
6	2465	966000	0
6	2466	972000	0
6	2496	978000	1
6	2548	984000	4
6	2549	990000	0
6	2555	996000	0
6	2567	1002000	1
6	2600	1008000	2
6	2601	1014000	0
6	2602	1020000	0
6	2603	1026000	0
6	2617	1032000	0
6	2653	1038000	3
6	2667	1044000	0
6	2687	1050000	2
6	2704	1056000	1
6	2726	1062000	1
6	2754	1068000	2
6	2760	1074000	0
6	2772	1080000	1
6	2786	1086000	0
6	2822	1092000	3
6	2839	1098000	0
6	2904	1104000	5
6	2905	1110000	0
6	2935	1116000	1
6	2947	1122000	1
7	539	202148.222753050323	1
7	544	203131.71642923324	2
7	546	203601.799602358937	1
7	555	204870.809347043367	0
7	570	215378.804305397504	1
7	579	216256.380035464226	2
7	581	217454.035906810592	1
7	589	218099.363842434599	0
7	607	223095.504533822313	1
7	612	223903.467247256601	2
7	614	224754.563411737184	1
7	622	225801.796573826316	0
7	637	228741.472916380696	1
7	639	230526.602086342415	0
7	658	240620.494804553269	1
7	663	241552.400836313511	2
7	665	242399.158331797058	1
7	673	243438.815200373926	0
7	688	250051.751815479753	1
7	690	251908.874396602388	0
7	705	253591.909775028157	1
7	713	254700.278317458492	2
7	715	255654.444855515349	1
7	723	256422.941093517538	0
7	741	258966.001408684947	1
7	746	259984.869365387695	2
7	748	260891.591881718199	1
7	756	261634.601710648933	0
7	771	265336.014086725291	1
7	773	267159.596430526465	0
7	790	269501.35521641567	1
7	796	270503.110150335504	2
7	798	271486.213689876506	1
7	806	272287.637218824179	0
7	823	273921.913329142008	1
7	831	274874.048198068424	2
7	835	275531.273326113014	1
7	840	276014.13040325006	2
7	847	276532.507928677917	1
7	855	277879.239709174216	0
7	869	280828.39829239182	1
7	872	282626.042203189101	0
7	886	287162.050823419301	1
7	889	288958.317613298293	0
7	904	295701.541679686529	1
7	906	297669.72135808138	0
7	921	302773.783577166022	1
7	923	304634.620733477007	0
7	938	306427.452526176743	1
7	940	308084.707268083083	0
7	958	333089.710092321366	1
7	960	335000.41880200344	0
7	976	346175.803344320529	1
7	984	348136.314434324276	0
7	988	348704.614308214777	1
7	995	350567.497752771995	0
7	1010	354719.479981164542	1
7	1012	356587.772736222396	0
7	1028	366140.759070893307	1
7	1030	368284.853622524436	0
7	1046	381619.591712906144	1
7	1048	383325.646339483253	0
7	1066	404378.247466645974	1
7	1068	405943.183495384762	0
7	1083	408154.166640145396	1
7	1090	409664.475831517574	0
7	1094	409882.33563609951	1
7	1107	411103.935610125155	2
7	1109	411634.632640563116	1
7	1117	412905.724541673124	0
7	1132	416697.805891519564	1
7	1134	418708.586851004567	0
7	1149	421254.725082777671	1
7	1151	423356.292617903467	0
7	1166	431573.74701321103	1
7	1175	432481.166874678538	2
7	1177	433544.594189792407	1
7	1185	434324.270095803175	0
7	1199	436490.888807200996	1
7	1202	438461.365096807606	0
7	1219	441002.819226325576	1
7	1224	441928.417668648828	2
7	1226	442746.740895284972	1
7	1234	443767.097276902602	0
7	1249	445746.880494421386	1
7	1251	447689.734425361531	0
7	1267	461112.489281127902	1
7	1276	462176.70545038666	2
7	1278	462904.073834578386	1
7	1286	463685.544166451267	0
7	1300	467169.023510140807	1
7	1303	469138.461706865871	0
7	1317	473443.72302570255	1
7	1320	475218.496548596722	0
7	1335	484496.854913521517	1
7	1343	486239.846959441919	0
7	1347	486581.582071798305	1
7	1354	488348.704998645662	0
7	1370	498135.975802160425	1
7	1372	499940.776738943546	0
7	1387	507212.487867548249	1
7	1389	509050.125401309569	0
7	1404	511332.57022192294	1
7	1406	512754.415613594603	0
7	1420	514470.365490868885	1
7	1423	516280.612449319682	0
7	1437	517806.907977648546	1
7	1439	519546.3770567491	0
7	1456	534074.490801338482	1
7	1463	535808.258740329556	0
7	1467	536458.637213121209	1
7	1474	538273.768140455397	0
7	1491	552307.305576094643	1
7	1493	554177.374603392327	0
7	1508	560564.886028136451	1
7	1510	562207.261900214494	0
7	1526	574922.633120716718	1
7	1529	576833.659085258191	0
7	1544	582409.054606972339	1
7	1546	584402.80327143508	0
7	1564	608213.662432142844	1
7	1566	609660.287025588526	0
7	1581	612258.288137045468	1
7	1583	613953.179402250156	0
7	1598	621882.441734973962	1
7	1606	622948.047030170961	2
7	1608	623628.263588401468	1
7	1617	624383.655993713623	0
7	1632	634155.436015585523	1
7	1634	635882.421936208161	0
7	1650	643821.76158985105	1
7	1652	645413.590289349772	0
7	1669	646964.709160196901	1
7	1674	647953.463097155236	2
7	1677	648864.614402101167	1
7	1685	649877.753566847657	0
7	1700	656415.2971657368	1
7	1702	658108.005143040207	0
7	1717	660654.38746364815	1
7	1719	662158.240935519703	0
7	1735	672027.70158167919	1
7	1743	673491.021223149115	2
7	1745	673988.320889808116	1
7	1753	675188.007857289968	0
7	1768	679363.728793959395	1
7	1770	681218.75502523338	0
7	1787	696270.03227044349	1
7	1789	697896.746296166122	0
7	1804	704167.152890118714	1
7	1806	706066.629068024503	0
7	1821	709646.718025071265	1
7	1823	711266.065124213823	0
7	1837	713303.679749617114	1
7	1840	714910.329188868953	0
7	1854	719021.74157622379	1
7	1857	720673.590952230493	0
7	1874	722786.97943095755	1
7	1879	723551.763003194843	2
7	1881	724072.655625184414	1
7	1889	725271.374356279778	0
7	1904	728417.890194958153	1
7	1906	730606.579152773523	0
7	1921	737766.400770508541	1
7	1924	739537.679100431705	0
7	1940	750044.056398538879	1
7	1948	750989.822038079074	2
7	1955	751995.686560251775	1
7	1959	752023.621782759459	2
7	1966	752763.531761135212	1
7	1974	753830.338019687709	0
7	1989	756872.745786491613	1
7	1991	758691.897181864642	0
7	2007	771479.872373451066	1
7	2009	773443.642288269615	0
7	2024	774959.962168852115	1
7	2026	776961.695601100098	0
7	2042	786922.031381560254	1
7	2044	788599.646820662885	0
7	2059	794481.636909375072	1
7	2061	796327.582304181535	0
7	2076	802524.131344455346	1
7	2079	804003.502660345526	0
7	2093	806611.903689830018	1
7	2103	808573.56396140531	0
7	2107	808720.280680957938	1
7	2112	809708.755744918516	2
7	2125	810416.450262787164	1
7	2129	811064.546123913617	2
7	2136	811719.382489902741	1
7	2149	812808.882130259377	0
7	2153	812835.335006543901	1
7	2160	814569.643363773497	0
7	2177	828913.96411307305	1
7	2184	830639.15808903049	0
7	2188	830827.857804673149	1
7	2201	832290.449159220008	2
7	2203	832520.647502214324	1
7	2217	834078.160417420377	0
7	2221	834138.423958233634	1
7	2228	836155.877727380564	0
7	2245	853203.10574578492	1
7	2247	854736.691623214026	0
7	2264	856088.328163966314	1
7	2269	857051.263668328492	2
7	2271	857744.936443744572	1
7	2285	858862.169274318912	0
7	2289	859762.100849580977	1
7	2296	861900.898962898972	0
7	2314	868759.478198027591	1
7	2319	869721.828807007024	2
7	2322	870466.239687517378	1
7	2330	871488.039162827934	0
7	2345	877909.829516227891	1
7	2347	879683.680194096492	0
7	2363	893849.152356509553	1
7	2366	895574.104773318562	0
7	2384	902300.564673823706	1
7	2389	903355.328383569456	2
7	2391	903910.671508960304	1
7	2399	904995.015337295715	0
7	2414	911086.813657015433	1
7	2417	912922.54451714248	0
7	2432	922226.457364809719	1
7	2440	924227.653748799218	0
7	2444	924579.212184840247	1
7	2451	926372.709534862403	0
7	2473	973061.0649513069	1
7	2475	974964.99290847886	0
7	2489	976423.800641706463	1
7	2498	978238.136270094796	2
7	2500	978296.669742390531	1
7	2514	979714.591998848641	2
7	2516	980138.844740346943	1
7	2530	981396.326279294196	2
7	2532	981414.321010711744	1
7	2540	982994.057845713035	0
7	2557	996446.731288100936	1
7	2559	998239.388356466693	0
7	2574	1004319.075552878249	1
7	2582	1005701.620029575953	2
7	2584	1006185.79222867403	1
7	2592	1007387.131296076572	0
7	2610	1030447.426295007479	1
7	2618	1032203.502809233101	0
7	2622	1032394.73650736457	1
7	2629	1034491.777627391797	0
7	2643	1035649.727105163897	1
7	2645	1037475.40943047482	0
7	2660	1041875.417167225107	1
7	2662	1043709.906287386486	0
7	2677	1046792.854896340831	1
7	2679	1048530.691122792142	0
7	2694	1053414.01144070207	1
7	2696	1055246.357249086164	0
7	2711	1057321.760064604153	1
7	2713	1058990.126636351533	0
7	2731	1062820.437350028467	1
7	2736	1063635.418609013912	2
7	2738	1064329.015794674981	1
7	2746	1065599.343768847951	0
7	2762	1074865.601056216518	1
7	2764	1076347.151487660406	0
7	2779	1084305.432740736657	1
7	2787	1086173.120153924492	0
7	2791	1086653.976558066544	1
7	2803	1088557.582346569323	0
7	2807	1088918.329947239834	1
7	2814	1090906.03684284168	0
7	2832	1096624.835088698174	1
7	2837	1097404.558993758872	2
7	2840	1098238.658293279789	1
7	2853	1099276.336578470475	0
7	2857	1099403.567964469394	1
7	2870	1100644.077261698041	2
7	2877	1101090.76996028152	1
7	2881	1101584.126435575489	2
7	2888	1102153.243628984482	1
7	2896	1103446.659936753274	0
7	2912	1112230.459497592594	1
7	2920	1113921.273882785412	2
7	2922	1113926.600972763841	1
7	2930	1115797.777128883957	0
7	2945	1120648.094587060761	1
7	2948	1122147.111403967048	0
