file 44688 1483893152                                           
version 2
run ParkingMeasurement-138-20170108-17:32:32-6253
attr configname ParkingMeasurement
attr datetime 20170108-17:32:32
attr experiment ParkingMeasurement
attr inifile parkingStudy.ini
attr iterationvars ""
attr iterationvars2 $repetition=138
attr measurement ""
attr network controltower.SimNetwork
attr processid 6253
attr repetition 138
attr replication #138
attr resultdir results
attr runnumber 138
attr seedset 138
param SimNetwork.a.parkingLot.parkingDelay "truncnormal(30min, 3min)"
param SimNetwork.a.runway.landingTime "truncnormal(15min, 1.5min)"
param SimNetwork.a.runway.takeoffTime "truncnormal(5min, 0.5min)"
param SimNetwork.a.runway.throughputCheckInterval 100min
param SimNetwork.wg.interArrivalTime exponential(100min)

vector 2  SimNetwork.a.landingQueue  queueLength:vector  ETV
attr source  queueLengthSignal
vector 1  SimNetwork.a.landingQueue  queueTime:vector  ETV
attr source  queueTimeSignal
vector 7  SimNetwork.a.parkingLot  parkingOccupancy:vector  ETV
attr source  parkingOccupancy
vector 5  SimNetwork.a.runway  landedThroughput:vector  ETV
attr source  landedThroughputSignal
vector 6  SimNetwork.a.runway  tookoffThroughput:vector  ETV
attr source  tookoffThroughputSignal
vector 4  SimNetwork.a.takeoffQueue  queueLength:vector  ETV
attr source  queueLengthSignal
vector 3  SimNetwork.a.takeoffQueue  queueTime:vector  ETV
attr source  queueTimeSignal
vector 0  SimNetwork.wg  responseTime:vector  ETV
attr source  responseTimeSignal
0	1476 5864 577 2909 204619.672043502033 1122689.947998556275 137 3747.2780454058 48612.868305407 1361159.8938047 20013832920.109
1	7340 4430 565 2911 201810.246916152702 1122689.947998556275 138 0 986.76689809005 12027.384408266 7501972.2209402
2	11770 7973 563 2911 201810.246916152702 1122689.947998556275 276 0 2 142 146
3	19743 4226 574 2903 204357.599566917913 1122388.071265775061 137 0 1752.1852863758 11158.225304813 10997350.338943
4	23969 7919 572 2903 204357.599566917913 1122388.071265775061 274 0 2 141 145
5	31888 2444 570 2899 204000 1122000 154 0 5 137 251
6	34332 2444 570 2899 204000 1122000 154 0 4 136 256
7	36776 7912 568 2900 202690.807611729098 1122388.071265775061 274 0 3 207 281
