version 2
run ParkingMeasurement-107-20170108-17:32:24-6201
attr configname ParkingMeasurement
attr datetime 20170108-17:32:24
attr experiment ParkingMeasurement
attr inifile parkingStudy.ini
attr iterationvars ""
attr iterationvars2 $repetition=107
attr measurement ""
attr network controltower.SimNetwork
attr processid 6201
attr repetition 107
attr replication #107
attr resultdir results
attr runnumber 107
attr seedset 107
param SimNetwork.a.parkingLot.parkingDelay "truncnormal(30min, 3min)"
param SimNetwork.a.runway.landingTime "truncnormal(15min, 1.5min)"
param SimNetwork.a.runway.takeoffTime "truncnormal(5min, 0.5min)"
param SimNetwork.a.runway.throughputCheckInterval 100min
param SimNetwork.wg.interArrivalTime exponential(100min)

statistic SimNetwork.wg 	responseTime:stats
field count 156
field mean 9050.7238345981
field stddev 5386.7638190893
field sum 1411912.9181973
field sqrsum 17276503689.716
field min 3484.3995215421
field max 33871.420181517
attr source  responseTimeSignal
scalar SimNetwork.a.landingQueue 	queueLength:timeavg 	0.014796938003362
attr source  queueLengthSignal
statistic SimNetwork.a.landingQueue 	queueLength:stats
field count 312
field mean 0.50641025641026
field stddev 0.50714248803883
field sum 158
field sqrsum 160
field min 0
field max 2
attr source  queueLengthSignal
statistic SimNetwork.a.landingQueue 	queueTime:stats
field count 156
field mean 87.521886467222
field stddev 241.10308879217
field sum 13653.414288887
field sqrsum 10205230.986176
field min 0
field max 1491.1720477672
attr source  queueTimeSignal
scalar SimNetwork.a.takeoffQueue 	queueLength:timeavg 	0.017849189798917
attr source  queueLengthSignal
statistic SimNetwork.a.takeoffQueue 	queueLength:stats
field count 312
field mean 0.51282051282051
field stddev 0.51332319331951
field sum 160
field sqrsum 164
field min 0
field max 2
attr source  queueLengthSignal
statistic SimNetwork.a.takeoffQueue 	queueTime:stats
field count 156
field mean 105.54340666273
field stddev 354.13687268546
field sum 16464.771439386
field sqrsum 21176751.379928
field min 0
field max 3353.9605340859
attr source  queueTimeSignal
scalar SimNetwork.a.parkingLot 	parkingOccupancy:timeavg 	0.30035255826902
attr source  parkingOccupancy
statistic SimNetwork.a.parkingLot 	parkingOccupancy:stats
field count 311
field mean 0.7620578778135
field stddev 0.69651733405519
field sum 237
field sqrsum 331
field min 0
field max 3
attr source  parkingOccupancy
