version 2
run ParkingMeasurement-0-20170106-02:04:23-11791
attr configname ParkingMeasurement
attr datetime 20170106-02:04:23
attr experiment ParkingMeasurement
attr inifile parkingStudy.ini
attr iterationvars ""
attr iterationvars2 $repetition=0
attr measurement ""
attr network SimNetwork
attr processid 11791
attr repetition 0
attr replication #0
attr resultdir results
attr runnumber 0
attr seedset 0
param SimNetwork.a.parkingLot.parkingDelay "truncnormal(30min, 3min)"
param SimNetwork.a.runway.landingTime "truncnormal(15min, 1.5min)"
param SimNetwork.a.runway.takeoffTime "truncnormal(5min, 0.5min)"
param SimNetwork.a.runway.throughputCheckInterval 100min
param SimNetwork.wg.interArrivalTime exponential(100min)

vector 5  SimNetwork.a.runway  landedThroughput:vector  ETV
attr source  landedThroughputSignal
vector 6  SimNetwork.a.runway  tookoffThroughput:vector  ETV
attr source  tookoffThroughputSignal
vector 2  SimNetwork.a.landingQueue  queueLength:vector  ETV
attr source  queueLengthSignal
vector 1  SimNetwork.a.landingQueue  queueTime:vector  ETV
attr source  queueTimeSignal
vector 7  SimNetwork.a.parkingLot  parkingOccupancy:vector  ETV
attr source  parkingOccupancy
vector 4  SimNetwork.a.takeoffQueue  queueLength:vector  ETV
attr source  queueLengthSignal
vector 3  SimNetwork.a.takeoffQueue  queueTime:vector  ETV
attr source  queueTimeSignal
vector 0  SimNetwork.wg  responseTime:vector  ETV
attr source  responseTimeSignal
0	593	208886.733107032451	12809.179198673
0	610	214247.794587690133	8084.7074520548
0	627	220589.90787259404	9099.6522743383
0	644	224602.247259783687	6915.2095976556
0	669	229973.333194056424	8475.5292381433
0	677	230830.657989788136	3558.6036992489
0	702	236715.895389619654	8862.3045716193
0	710	237158.895071236743	3942.9297834034
0	765	244385.613307653497	10255.886268293
0	770	244656.70442292163	7092.2080749914
0	775	245002.305965655934	4831.7356820629
0	783	245336.989498606071	4195.1986947392
0	800	246522.240387153164	5150.7521059777
0	808	248475.766539045298	6311.1760001817
0	828	270351.697552473413	25007.08974479
0	853	278954.719314809283	11350.347955703
0	861	280423.265373465086	4501.1459022316
0	886	284307.827306994849	7046.8725871565
0	894	285054.523685163732	4057.9849014549
0	911	288131.156764069877	6940.4771524893
0	927	292998.632013513594	7648.7537847077
0	944	297606.717560096592	7654.3614038567
0	963	315220.412648159662	20420.176171524
0	988	322368.478641270942	10233.788613242
0	997	324148.656699456086	5167.1392542711
0	1014	330103.806061154646	8880.2698496029
0	1030	333795.298236878696	6803.1245958997
0	1055	337500.948967395878	6881.2880164054
0	1063	338206.551244548913	3783.3101771938
0	1081	350419.266099633836	15870.821720618
0	1099	362232.740024065632	14882.9159202
0	1116	369538.063148189721	9823.311599039
0	1135	387110.749939828547	20561.652486641
0	1154	405799.704796884011	21583.725679156
0	1187	409660.125883965913	6501.5735177447
0	1198	410628.510812352032	4152.92822222
0	1230	413769.876537003569	6056.1459852418
0	1236	414027.908577001443	5563.9824856988
0	1244	414690.883414755647	4281.7626425341
0	1252	415720.865784578015	4372.8903900501
0	1297	426018.055170857044	13870.036036693
0	1305	426355.744415269905	5510.3966225405
0	1310	426634.192169811203	3759.9160880152
0	1318	427584.501580124057	4610.8289317986
0	1335	432272.723535397045	9243.3527408036
0	1351	436442.182665881951	6762.3533460045
0	1369	446057.507249075982	12734.002197482
0	1395	457881.133337848724	14924.875707847
0	1403	459873.096011256897	5748.2485233633
0	1431	484830.585429792153	28146.52306968
0	1448	486259.31333073131	4364.0944131324
0	1456	488180.104213543703	5401.5350720664
0	1477	499707.251573176282	14807.102980121
0	1498	502979.021751794426	6187.5311120858
0	1507	504178.038144923948	4715.6514687771
0	1534	522552.962216643939	21504.952755683
0	1542	523232.855167620069	3855.687032616
0	1559	529789.054619396858	9914.7128468817
0	1576	537208.927434781454	10546.31305664
0	1593	541206.823306381593	6753.5351146116
0	1610	548444.195153058391	10107.85873703
0	1628	558825.16297574783	13590.378233221
0	1656	566188.621139469744	10431.548526802
0	1669	567370.933364699203	4449.7805284596
0	1677	568887.288253574095	4787.3641019532
0	1704	584806.908838619824	18795.481599725
0	1720	586639.399598011117	5073.2807064155
0	1728	587844.691535491617	4079.8648929005
0	1753	592783.553390731943	7870.95047275
0	1770	594402.938290156654	5210.0296753697
0	1778	596049.000144177009	4491.7460977082
0	1796	610167.568732751603	17367.203592776
0	1815	624469.355338390674	17184.891615367
0	1848	632598.02994923099	11250.348381416
0	1856	633112.205875502937	4206.6772839454
0	1864	634527.797504072979	4572.2986232063
0	1882	646448.077882845618	14902.020393538
0	1903	675372.394680864241	32126.475720476
0	1920	678626.624347584704	6079.7114451253
0	1945	687238.90731667494	11642.677689899
0	1953	688879.971536885684	5478.71734535
0	1970	693536.906779211147	7501.1906741488
0	1997	711406.750776966609	20817.246026413
0	2005	711844.028751032413	3819.0063785446
0	2038	717528.820747228469	8960.7535538509
0	2046	718363.419138459846	4076.6167154859
0	2054	718906.598060681866	4421.7717273698
0	2074	743342.029147348247	27105.526383663
0	2099	749688.774728577919	9466.891104573
0	2116	751480.281595114921	5149.0924982679
0	2124	753127.187564252168	4545.6268086925
0	2143	768718.532070453859	18479.140157329
0	2163	776101.55699832701	10168.319490669
0	2184	779709.401293129062	6419.3705120698
0	2201	782687.172671865877	6689.7090998624
0	2209	784562.53044778556	5994.021250703
0	2233	813419.434245893048	31965.655702992
0	2247	816311.466024859534	5879.365994143
0	2276	829385.311206064912	16293.204799341
0	2289	831122.958163634136	5222.637389664
0	2300	832139.976224560352	3886.6877128548
0	2314	835240.07712633223	5855.4002691199
0	2340	847020.007199577046	15033.341210122
0	2348	848197.255089575409	4093.0820808045
0	2369	879374.115988031256	34303.087506307
0	2386	886314.876495023394	10133.071475102
0	2412	899925.37594875923	16597.682208458
0	2421	900593.309654912546	3720.7551700733
0	2445	903916.811623188217	6079.8768949442
0	2453	904472.346725403679	3502.7441706941
0	2486	909769.107765769631	8644.5369445052
0	2505	911593.053230947911	6238.7864814293
0	2510	911868.477627673404	4115.4392432903
0	2519	913249.867232860702	5197.3352339198
0	2536	920424.450347333014	9969.6291596357
0	2572	925680.730250979654	8379.6490577623
0	2577	925963.370342948811	3893.0521333377
0	2585	927239.983682907157	4985.454835229
0	2620	942984.208902473862	18592.685365414
0	2631	943330.608132601988	3624.2256342576
0	2644	944392.506533115869	4634.8359229013
0	2652	946443.348478723723	5273.2426694818
0	2669	951560.078780684819	8336.9248217469
0	2686	955076.487578483089	6349.7028380732
0	2706	964582.834911665172	12369.998238498
0	2723	967742.573717204244	6141.7977398524
0	2739	970173.326827205318	5674.2327042737
0	2753	973047.045540967924	5379.0874737058
0	2769	977714.114505075782	7658.4660699206
0	2809	984908.31756141274	10661.04772458
0	2819	986117.909556244159	5020.9465782855
0	2827	986452.762471111832	5135.6050714658
0	2835	987844.256986789444	4244.0338957711
0	2860	993179.941303426917	8530.2566518335
0	2868	994723.169949343183	4855.7931327274
0	2885	998759.345687612538	7186.6504098266
0	2910	1005367.189148221286	9420.4535421489
0	2921	1006692.018160611338	4046.1711131937
0	2943	1009568.691399644784	6904.2182113753
0	2951	1010800.282165212056	4319.1882507452
0	2968	1014420.89687845632	6598.2086139807
0	2994	1030527.301505182996	18808.148879941
0	3002	1031442.710012318775	3918.7690114183
0	3022	1037528.306740319552	9145.0261105321
0	3044	1040673.580241472269	5869.8046739169
0	3052	1042226.77606672668	4820.8036767676
0	3078	1050873.699271624311	11606.550142079
0	3094	1052682.491920102418	4737.4973576235
0	3110	1055008.691164670926	6932.1323180536
0	3119	1057062.745801952336	5589.4096451613
0	3145	1068235.775961364918	14403.136082629
0	3153	1069675.87051686162	4534.0429528989
0	3173	1076195.165627871968	9627.3428372705
0	3194	1079061.697021968513	6077.8878811587
0	3211	1081274.710066023705	5399.0256678511
0	3219	1083056.724125029637	6819.1315841894
0	3248	1094767.581743712	14684.496663696
0	3261	1095949.884215353149	4192.0916318032
0	3272	1097633.054156292804	5511.2157716937
0	3286	1100629.182445224861	5971.2053322235
0	3303	1108190.597912499195	10714.972606727
0	3321	1117114.876941326848	11863.984736562
1	582	206163.087135635322	0
1	599	211490.255598255722	0
1	616	217687.037662128108	0
1	632	221497.803955913089	0
1	649	227272.054290539195	0
1	658	228100.946025985781	247.35520798543
1	682	233215.965287833357	0
1	691	234186.52627667977	56.79923731962
1	715	237564.49634793028	0
1	724	240170.570283593043	0
1	735	241202.456992277556	60.666188410732
1	743	242164.55718439391	793.06890321847
1	754	243128.022576966867	963.43203810327
1	788	245344.607807683752	0
1	816	267604.371359106376	0
1	833	275922.119471233452	0
1	842	277260.954719838341	0
1	866	280996.538783708877	0
1	874	281976.962173923433	786.28256234287
1	899	285349.878228805911	0
1	916	289952.356156239859	0
1	933	294800.236476635719	0
1	952	312134.690028028681	0
1	969	318981.517445184969	0
1	977	321223.536211551761	0
1	1002	326992.173640979011	0
1	1019	330619.660950990485	0
1	1035	334423.241067355097	0
1	1043	335326.658428439543	778.21404942348
1	1069	347349.824103865546	0
1	1087	359714.751549150702	0
1	1105	366549.09745318774	0
1	1124	384215.979117727522	0
1	1143	403158.552366221226	0
1	1159	406475.582590132072	0
1	1167	407713.73055176173	0
1	1176	408479.626460464939	15.700369162317
1	1200	410628.510812352032	219.39004013052
1	1211	411474.621783081036	126.64638855308
1	1219	412584.482872812269	436.46373864857
1	1258	420845.347792729357	0
1	1266	422874.276081795961	0
1	1280	423877.853376613351	904.1807282879
1	1285	424726.465066149408	1697.0942715559
1	1323	429679.829319877463	0
1	1340	433323.50505159426	0
1	1357	442956.257630001304	0
1	1375	454124.847487893626	0
1	1384	456684.062360112619	0
1	1412	481895.218917598867	0
1	1420	482836.879302888638	58.310161411296
1	1436	484900.148593055241	0
1	1462	496791.490639708601	0
1	1479	499707.251573176282	244.86489702941
1	1487	501048.00946096134	0
1	1514	519377.168135004052	0
1	1522	520334.982622239774	460.64084972466
1	1547	526662.614378141787	0
1	1565	534453.288191769945	0
1	1581	538336.336416028465	0
1	1598	545234.784742527189	0
1	1616	555757.072612668239	0
1	1633	562921.152836239615	0
1	1642	564099.924151620904	0
1	1658	566188.621139469744	177.19390057448
1	1684	581566.118891595647	0
1	1693	583764.826642591158	0
1	1709	584912.602917981914	0
1	1734	589192.908614787002	0
1	1742	591557.25404646876	0
1	1758	592800.36513997599	0
1	1785	607284.463723023766	0
1	1803	621347.68156781509	0
1	1820	628905.528591557556	0
1	1828	629955.498880866666	0
1	1837	631546.057489307661	0
1	1871	643245.918960388115	0
1	1892	672546.912902459387	0
1	1908	675596.229626776109	0
1	1925	683401.254191535661	0
1	1934	686035.716105062349	0
1	1959	690589.504750554103	0
1	1978	708025.022372487837	0
1	1986	708930.29651687636	362.22932349878
1	2011	714286.802422973942	0
1	2019	715131.069342069993	646.24300875797
1	2027	716236.502763684782	0
1	2063	740221.883624004902	0
1	2080	746331.189096847032	0
1	2088	748581.560755559718	0
1	2105	750239.39191312489	0
1	2131	765933.237507657874	0
1	2148	773290.030781059252	0
1	2165	776101.55699832701	104.0934263235
1	2173	778568.509197082521	0
1	2190	781453.778542900711	0
1	2219	810432.100030716543	0
1	2235	813419.434245893048	327.32783916876
1	2253	825900.320773970157	0
1	2262	828253.2885117056	0
1	2278	829385.311206064912	0.634348852595
1	2302	832139.976224560352	153.31023510506
1	2320	844104.173008770862	0
1	2328	845163.781019284246	92.752537560213
1	2358	876181.805019921153	0
1	2375	883327.693740301017	0
1	2393	896872.554484839253	0
1	2401	897836.934728244006	0
1	2426	900969.60255470955	0
1	2434	901921.473153978541	796.90233271406
1	2458	905354.266749518592	0
1	2467	907753.038384383134	0
1	2478	908648.604197250585	596.07219830971
1	2491	910454.821187697329	0
1	2524	917301.081193217335	0
1	2541	922070.318209611095	0
1	2549	922938.800600576254	684.27175289813
1	2558	924391.52353705953	0
1	2592	939706.382498344344	0
1	2600	940677.800352978176	920.1297427636
1	2608	941541.357550971986	371.25174173002
1	2633	943330.608132601988	107.45417366405
1	2658	948726.784740409928	0
1	2674	952212.836673166771	0
1	2692	961600.775977351861	0
1	2708	964582.834911665172	83.740788733599
1	2725	967742.573717204244	74.615649942085
1	2741	970173.326827205318	117.67839205019
1	2758	974247.269836833054	0
1	2775	981096.96297795866	0
1	2783	982016.401228687181	699.24382904115
1	2791	983600.223091018344	0
1	2811	984908.31756141274	258.63290981932
1	2840	989867.376816615806	0
1	2849	991572.695277785911	0
1	2873	995946.735606072379	0
1	2891	1002645.847047417649	0
1	2899	1003475.953735426639	811.48054715711
1	2923	1006692.018160611338	210.92424614452
1	2931	1007822.688264475621	0
1	2956	1011719.152625241947	0
1	2975	1027523.941000900519	0
1	2983	1028493.048762584126	109.76813279663
1	3008	1034803.775567555392	0
1	3024	1037528.306740319552	122.33435036051
1	3033	1039267.149129544818	0
1	3058	1047944.994562478918	0
1	3066	1048888.574808692306	812.01596207494
1	3083	1051473.336156791014	0
1	3099	1053832.639878735552	0
1	3125	1065141.827563962724	0
1	3133	1066567.822790601496	0
1	3158	1072983.809140809824	0
1	3175	1076195.165627871968	319.48122969934
1	3183	1077024.806214984465	787.21367414418
1	3200	1080083.085080016494	0
1	3225	1091757.792583549944	0
1	3234	1092753.422555710738	631.58417111161
1	3250	1094767.581743712	109.60463071061
1	3274	1097633.054156292804	157.42885052019
1	3292	1105250.892204764451	0
1	3309	1114222.278913538537	0
1	3327	1122241.689417475057	0
2	580	206163.087135635322	1
2	582	206163.087135635322	0
2	597	211490.255598255722	1
2	599	211490.255598255722	0
2	614	217687.037662128108	1
2	616	217687.037662128108	0
2	630	221497.803955913089	1
2	632	221497.803955913089	0
2	647	227272.054290539195	1
2	649	227272.054290539195	0
2	652	227853.590818000353	1
2	658	228100.946025985781	0
2	680	233215.965287833357	1
2	682	233215.965287833357	0
2	686	234129.72703936015	1
2	691	234186.52627667977	0
2	713	237564.49634793028	1
2	715	237564.49634793028	0
2	722	240170.570283593043	1
2	724	240170.570283593043	0
2	730	241141.790803866824	1
2	735	241202.456992277556	0
2	738	241371.488281175444	1
2	743	242164.55718439391	0
2	746	242164.5905388636	1
2	754	243128.022576966867	0
2	786	245344.607807683752	1
2	788	245344.607807683752	0
2	814	267604.371359106376	1
2	816	267604.371359106376	0
2	831	275922.119471233452	1
2	833	275922.119471233452	0
2	840	277260.954719838341	1
2	842	277260.954719838341	0
2	864	280996.538783708877	1
2	866	280996.538783708877	0
2	869	281190.679611580561	1
2	874	281976.962173923433	0
2	897	285349.878228805911	1
2	899	285349.878228805911	0
2	914	289952.356156239859	1
2	916	289952.356156239859	0
2	931	294800.236476635719	1
2	933	294800.236476635719	0
2	950	312134.690028028681	1
2	952	312134.690028028681	0
2	967	318981.517445184969	1
2	969	318981.517445184969	0
2	975	321223.536211551761	1
2	977	321223.536211551761	0
2	1000	326992.173640979011	1
2	1002	326992.173640979011	0
2	1017	330619.660950990485	1
2	1019	330619.660950990485	0
2	1033	334423.241067355097	1
2	1035	334423.241067355097	0
2	1038	334548.44437901606	1
2	1043	335326.658428439543	0
2	1067	347349.824103865546	1
2	1069	347349.824103865546	0
2	1085	359714.751549150702	1
2	1087	359714.751549150702	0
2	1103	366549.09745318774	1
2	1105	366549.09745318774	0
2	1122	384215.979117727522	1
2	1124	384215.979117727522	0
2	1141	403158.552366221226	1
2	1143	403158.552366221226	0
2	1157	406475.582590132072	1
2	1159	406475.582590132072	0
2	1165	407713.73055176173	1
2	1167	407713.73055176173	0
2	1171	408463.926091302622	1
2	1176	408479.626460464939	0
2	1195	410409.120772221514	1
2	1200	410628.510812352032	0
2	1206	411347.975394527958	1
2	1211	411474.621783081036	0
2	1214	412148.019134163695	1
2	1219	412584.482872812269	0
2	1256	420845.347792729357	1
2	1258	420845.347792729357	0
2	1264	422874.276081795961	1
2	1266	422874.276081795961	0
2	1269	422973.672648325451	1
2	1272	423029.370794593489	2
2	1280	423877.853376613351	1
2	1285	424726.465066149408	0
2	1321	429679.829319877463	1
2	1323	429679.829319877463	0
2	1338	433323.50505159426	1
2	1340	433323.50505159426	0
2	1355	442956.257630001304	1
2	1357	442956.257630001304	0
2	1373	454124.847487893626	1
2	1375	454124.847487893626	0
2	1382	456684.062360112619	1
2	1384	456684.062360112619	0
2	1410	481895.218917598867	1
2	1412	481895.218917598867	0
2	1415	482778.569141477342	1
2	1420	482836.879302888638	0
2	1434	484900.148593055241	1
2	1436	484900.148593055241	0
2	1460	496791.490639708601	1
2	1462	496791.490639708601	0
2	1474	499462.38667614687	1
2	1479	499707.251573176282	0
2	1485	501048.00946096134	1
2	1487	501048.00946096134	0
2	1512	519377.168135004052	1
2	1514	519377.168135004052	0
2	1517	519874.341772515117	1
2	1522	520334.982622239774	0
2	1545	526662.614378141787	1
2	1547	526662.614378141787	0
2	1563	534453.288191769945	1
2	1565	534453.288191769945	0
2	1579	538336.336416028465	1
2	1581	538336.336416028465	0
2	1596	545234.784742527189	1
2	1598	545234.784742527189	0
2	1614	555757.072612668239	1
2	1616	555757.072612668239	0
2	1631	562921.152836239615	1
2	1633	562921.152836239615	0
2	1640	564099.924151620904	1
2	1642	564099.924151620904	0
2	1653	566011.427238895265	1
2	1658	566188.621139469744	0
2	1682	581566.118891595647	1
2	1684	581566.118891595647	0
2	1691	583764.826642591158	1
2	1693	583764.826642591158	0
2	1707	584912.602917981914	1
2	1709	584912.602917981914	0
2	1732	589192.908614787002	1
2	1734	589192.908614787002	0
2	1740	591557.25404646876	1
2	1742	591557.25404646876	0
2	1756	592800.36513997599	1
2	1758	592800.36513997599	0
2	1783	607284.463723023766	1
2	1785	607284.463723023766	0
2	1801	621347.68156781509	1
2	1803	621347.68156781509	0
2	1818	628905.528591557556	1
2	1820	628905.528591557556	0
2	1826	629955.498880866666	1
2	1828	629955.498880866666	0
2	1835	631546.057489307661	1
2	1837	631546.057489307661	0
2	1869	643245.918960388115	1
2	1871	643245.918960388115	0
2	1890	672546.912902459387	1
2	1892	672546.912902459387	0
2	1906	675596.229626776109	1
2	1908	675596.229626776109	0
2	1923	683401.254191535661	1
2	1925	683401.254191535661	0
2	1932	686035.716105062349	1
2	1934	686035.716105062349	0
2	1957	690589.504750554103	1
2	1959	690589.504750554103	0
2	1976	708025.022372487837	1
2	1978	708025.022372487837	0
2	1981	708568.067193377576	1
2	1986	708930.29651687636	0
2	2009	714286.802422973942	1
2	2011	714286.802422973942	0
2	2014	714484.826333312019	1
2	2019	715131.069342069993	0
2	2025	716236.502763684782	1
2	2027	716236.502763684782	0
2	2061	740221.883624004902	1
2	2063	740221.883624004902	0
2	2078	746331.189096847032	1
2	2080	746331.189096847032	0
2	2086	748581.560755559718	1
2	2088	748581.560755559718	0
2	2103	750239.39191312489	1
2	2105	750239.39191312489	0
2	2129	765933.237507657874	1
2	2131	765933.237507657874	0
2	2146	773290.030781059252	1
2	2148	773290.030781059252	0
2	2160	775997.463572003511	1
2	2165	776101.55699832701	0
2	2171	778568.509197082521	1
2	2173	778568.509197082521	0
2	2188	781453.778542900711	1
2	2190	781453.778542900711	0
2	2217	810432.100030716543	1
2	2219	810432.100030716543	0
2	2230	813092.106406724291	1
2	2235	813419.434245893048	0
2	2251	825900.320773970157	1
2	2253	825900.320773970157	0
2	2260	828253.2885117056	1
2	2262	828253.2885117056	0
2	2273	829384.676857212317	1
2	2278	829385.311206064912	0
2	2297	831986.665989455296	1
2	2302	832139.976224560352	0
2	2318	844104.173008770862	1
2	2320	844104.173008770862	0
2	2323	845071.028481724033	1
2	2328	845163.781019284246	0
2	2356	876181.805019921153	1
2	2358	876181.805019921153	0
2	2373	883327.693740301017	1
2	2375	883327.693740301017	0
2	2391	896872.554484839253	1
2	2393	896872.554484839253	0
2	2399	897836.934728244006	1
2	2401	897836.934728244006	0
2	2424	900969.60255470955	1
2	2426	900969.60255470955	0
2	2429	901124.570821264478	1
2	2434	901921.473153978541	0
2	2456	905354.266749518592	1
2	2458	905354.266749518592	0
2	2465	907753.038384383134	1
2	2467	907753.038384383134	0
2	2470	908052.531998940871	1
2	2478	908648.604197250585	0
2	2489	910454.821187697329	1
2	2491	910454.821187697329	0
2	2522	917301.081193217335	1
2	2524	917301.081193217335	0
2	2539	922070.318209611095	1
2	2541	922070.318209611095	0
2	2544	922254.528847678124	1
2	2549	922938.800600576254	0
2	2556	924391.52353705953	1
2	2558	924391.52353705953	0
2	2590	939706.382498344344	1
2	2592	939706.382498344344	0
2	2595	939757.670610214579	1
2	2600	940677.800352978176	0
2	2603	941170.105809241965	1
2	2608	941541.357550971986	0
2	2628	943223.15395893794	1
2	2633	943330.608132601988	0
2	2656	948726.784740409928	1
2	2658	948726.784740409928	0
2	2672	952212.836673166771	1
2	2674	952212.836673166771	0
2	2690	961600.775977351861	1
2	2692	961600.775977351861	0
2	2703	964499.094122931573	1
2	2708	964582.834911665172	0
2	2720	967667.958067262159	1
2	2725	967742.573717204244	0
2	2736	970055.648435155132	1
2	2741	970173.326827205318	0
2	2756	974247.269836833054	1
2	2758	974247.269836833054	0
2	2773	981096.96297795866	1
2	2775	981096.96297795866	0
2	2778	981317.157399646026	1
2	2783	982016.401228687181	0
2	2789	983600.223091018344	1
2	2791	983600.223091018344	0
2	2806	984649.68465159342	1
2	2811	984908.31756141274	0
2	2838	989867.376816615806	1
2	2840	989867.376816615806	0
2	2847	991572.695277785911	1
2	2849	991572.695277785911	0
2	2871	995946.735606072379	1
2	2873	995946.735606072379	0
2	2889	1002645.847047417649	1
2	2891	1002645.847047417649	0
2	2894	1002664.473188269525	1
2	2899	1003475.953735426639	0
2	2918	1006481.093914466822	1
2	2923	1006692.018160611338	0
2	2929	1007822.688264475621	1
2	2931	1007822.688264475621	0
2	2954	1011719.152625241947	1
2	2956	1011719.152625241947	0
2	2973	1027523.941000900519	1
2	2975	1027523.941000900519	0
2	2978	1028383.280629787498	1
2	2983	1028493.048762584126	0
2	3006	1034803.775567555392	1
2	3008	1034803.775567555392	0
2	3019	1037405.972389959044	1
2	3024	1037528.306740319552	0
2	3031	1039267.149129544818	1
2	3033	1039267.149129544818	0
2	3056	1047944.994562478918	1
2	3058	1047944.994562478918	0
2	3061	1048076.55884661737	1
2	3066	1048888.574808692306	0
2	3081	1051473.336156791014	1
2	3083	1051473.336156791014	0
2	3097	1053832.639878735552	1
2	3099	1053832.639878735552	0
2	3123	1065141.827563962724	1
2	3125	1065141.827563962724	0
2	3131	1066567.822790601496	1
2	3133	1066567.822790601496	0
2	3156	1072983.809140809824	1
2	3158	1072983.809140809824	0
2	3170	1075875.684398172628	1
2	3175	1076195.165627871968	0
2	3178	1076237.592540840283	1
2	3183	1077024.806214984465	0
2	3198	1080083.085080016494	1
2	3200	1080083.085080016494	0
2	3223	1091757.792583549944	1
2	3225	1091757.792583549944	0
2	3229	1092121.838384599127	1
2	3234	1092753.422555710738	0
2	3245	1094657.977113001388	1
2	3250	1094767.581743712	0
2	3269	1097475.625305772609	1
2	3274	1097633.054156292804	0
2	3290	1105250.892204764451	1
2	3292	1105250.892204764451	0
2	3307	1114222.278913538537	1
2	3309	1114222.278913538537	0
2	3325	1122241.689417475057	1
2	3327	1122241.689417475057	0
3	590	208577.581681655024	0
3	607	213913.992087105211	0
3	624	220308.375860485029	0
3	641	224306.422980255634	0
3	666	229697.317691998423	0
3	674	230513.767966867926	0
3	699	236389.467438383477	0
3	707	236846.876208716718	0
3	759	244118.059991723536	3634.5887822382
3	767	244385.613307653497	1490.2047084669
3	772	244656.70442292163	511.47601891604
3	780	245076.935253616825	0
3	797	246254.775002254377	268.97201833668
3	805	248184.801993525117	0
3	825	270057.016864137928	0
3	850	278708.234564835719	0
3	858	280161.728565785243	0
3	883	284015.403671511755	0
3	891	284772.361228155771	0
3	907	287860.56983839959	0
3	924	292694.874954297375	0
3	941	297295.468527034207	0
3	960	314952.347532082328	0
3	985	322068.912184648652	803.20789390225
3	993	323893.4982004084	0
3	1010	329756.379723339062	0
3	1027	333480.034794768867	0
3	1052	337257.089994389818	0
3	1060	337864.305445806823	0
3	1078	350094.698551605125	0
3	1096	361927.702423297158	0
3	1113	369232.115721816803	0
3	1132	386799.112200378058	0
3	1151	405503.309162047766	0
3	1184	409339.284866464942	127.94664705999
3	1192	410323.169429036967	0
3	1227	413517.116957415431	2553.7771135494
3	1232	413769.876537003569	524.70576377427
3	1241	414381.977119358778	0
3	1249	415426.244961749048	0
3	1290	425678.90972165251	2086.694504696
3	1299	426018.055170857044	265.58836377235
3	1307	426355.744415269905	69.590112826845
3	1315	427264.051968579065	0
3	1331	431988.065197306279	0
3	1348	436151.589302963081	0
3	1366	445752.67367310861	0
3	1392	457586.365095109928	343.0929617282
3	1400	459597.433576639054	0
3	1428	484541.898961345962	0
3	1444	485915.263444676378	172.8229671548
3	1453	487875.455298737777	0
3	1471	499402.410118846383	0
3	1495	502696.331988750028	0
3	1503	503865.502388695281	0
3	1531	522234.594092284465	0
3	1539	522976.016366736734	0
3	1556	529451.294311461957	0
3	1573	536941.643601846749	0
3	1590	540930.125518636878	0
3	1607	548149.692722214547	0
3	1625	558527.847614367609	0
3	1650	565939.113636305981	0
3	1666	567082.719469591418	382.06798398237
3	1674	568560.416809499439	0
3	1701	584536.758093745443	182.46900422009
3	1717	586346.893809554485	0
3	1725	587518.932260487778	0
3	1750	592496.272414453959	307.44298312219
3	1767	594068.438973765058	0
3	1775	595723.796891373324	0
3	1793	609886.112727308031	0
3	1812	624166.990772301836	0
3	1845	632335.209335278684	576.57070526907
3	1853	632786.475674904958	0
3	1861	634213.029905550862	0
3	1879	646176.288442732974	0
3	1900	675074.176571010922	0
3	1917	678271.278960808413	0
3	1942	686968.203236171235	748.97523747263
3	1950	688590.606076542541	0
3	1967	693241.625865756195	0
3	1994	711067.205493930971	0
3	2002	711544.487626205724	0
3	2035	717141.16398551019	0
3	2043	718074.758863842162	0
3	2051	718597.828491397466	0
3	2071	743015.670554066213	0
3	2096	749410.226808772773	194.50694610256
3	2113	751214.585262450968	0
3	2121	752816.322296082467	0
3	2140	768381.040592630798	0
3	2157	775822.280655637641	0
3	2181	779391.173303396243	367.30114567158
3	2198	782354.022412850234	851.2007294919
3	2206	784255.955332339411	0
3	2227	813082.744202512749	0
3	2244	816031.915586358691	0
3	2270	829052.08300684625	477.92298923082
3	2286	830801.447737061652	0
3	2294	831880.549760624538	0
3	2311	834942.164094288576	0
3	2337	846694.220037526451	0
3	2345	847925.64074864063	0
3	2366	879045.557515221283	0
3	2383	886027.876505235082	0
3	2409	899648.399786491158	0
3	2418	900358.105692079871	0
3	2442	903616.785617667454	0
3	2450	904193.41363250868	0
3	2483	909506.421013756715	1076.6077201824
3	2502	911275.333816954016	676.5670881875
3	2507	911593.053230947911	452.88304954128
3	2516	912969.011607826123	0
3	2533	920109.303733065049	0
3	2566	925363.604825617079	646.74807751699
3	2574	925680.730250979654	162.83522981725
3	2582	926986.927787255242	0
3	2617	942683.892173430387	0
3	2625	943072.182964384934	0
3	2641	944026.301305797604	142.88063181644
3	2649	946158.033882267125	0
3	2666	951233.48256952043	0
3	2683	954867.999895291745	0
3	2700	964272.82310989388	0
3	2717	967487.927865308141	0
3	2733	969917.20679702983	0
3	2750	972733.549035820886	0
3	2766	977363.873167512254	0
3	2800	984589.799681435189	769.50771085698
3	2816	985840.686640821808	1202.6752241569
3	2824	986160.466373916142	0
3	2832	987504.988791406851	0
3	2857	992925.096039620436	0
3	2865	994398.655392177279	0
3	2882	998432.971922447854	0
3	2907	1005088.038130444461	0
3	2915	1006402.608584463611	0
3	2940	1009331.546595327525	0
3	2948	1010521.840516680162	0
3	2965	1014187.378982343123	0
3	2991	1030197.951132189691	0
3	2999	1031029.135298432249	0
3	3016	1037211.019794057069	0
3	3041	1040366.137963029383	0
3	3049	1041879.604520814271	0
3	3075	1050550.027657463057	0
3	3091	1052336.263944018649	611.94734155423
3	3107	1054759.829478896411	402.19031418282
3	3116	1056800.930632869607	0
3	3141	1067948.821532125674	0
3	3150	1069412.263522575069	0
3	3167	1075847.835777104113	0
3	3191	1078736.210751717766	0
3	3208	1081002.040440412265	883.81338436082
3	3216	1082774.485193110392	0
3	3242	1094473.333340734761	0
3	3258	1095602.057124998725	349.12184214211
3	3266	1097353.661154680154	0
3	3283	1100376.158572224945	0
3	3300	1107897.449321296368	0
3	3318	1116818.545809421168	0
4	588	208577.581681655024	1
4	590	208577.581681655024	0
4	605	213913.992087105211	1
4	607	213913.992087105211	0
4	622	220308.375860485029	1
4	624	220308.375860485029	0
4	639	224306.422980255634	1
4	641	224306.422980255634	0
4	664	229697.317691998423	1
4	666	229697.317691998423	0
4	672	230513.767966867926	1
4	674	230513.767966867926	0
4	697	236389.467438383477	1
4	699	236389.467438383477	0
4	705	236846.876208716718	1
4	707	236846.876208716718	0
4	727	240483.47120948537	1
4	749	242895.408599186563	2
4	759	244118.059991723536	1
4	762	244145.228404005592	2
4	767	244385.613307653497	1
4	772	244656.70442292163	0
4	778	245076.935253616825	1
4	780	245076.935253616825	0
4	791	245985.802983917692	1
4	797	246254.775002254377	0
4	803	248184.801993525117	1
4	805	248184.801993525117	0
4	823	270057.016864137928	1
4	825	270057.016864137928	0
4	848	278708.234564835719	1
4	850	278708.234564835719	0
4	856	280161.728565785243	1
4	858	280161.728565785243	0
4	881	284015.403671511755	1
4	883	284015.403671511755	0
4	889	284772.361228155771	1
4	891	284772.361228155771	0
4	905	287860.56983839959	1
4	907	287860.56983839959	0
4	922	292694.874954297375	1
4	924	292694.874954297375	0
4	939	297295.468527034207	1
4	941	297295.468527034207	0
4	958	314952.347532082328	1
4	960	314952.347532082328	0
4	980	321265.704290746402	1
4	985	322068.912184648652	0
4	991	323893.4982004084	1
4	993	323893.4982004084	0
4	1008	329756.379723339062	1
4	1010	329756.379723339062	0
4	1025	333480.034794768867	1
4	1027	333480.034794768867	0
4	1050	337257.089994389818	1
4	1052	337257.089994389818	0
4	1058	337864.305445806823	1
4	1060	337864.305445806823	0
4	1076	350094.698551605125	1
4	1078	350094.698551605125	0
4	1094	361927.702423297158	1
4	1096	361927.702423297158	0
4	1111	369232.115721816803	1
4	1113	369232.115721816803	0
4	1130	386799.112200378058	1
4	1132	386799.112200378058	0
4	1149	405503.309162047766	1
4	1151	405503.309162047766	0
4	1179	409211.33821940495	1
4	1184	409339.284866464942	0
4	1190	410323.169429036967	1
4	1192	410323.169429036967	0
4	1203	410963.339843866031	1
4	1222	413245.1707732293	2
4	1227	413517.116957415431	1
4	1232	413769.876537003569	0
4	1239	414381.977119358778	1
4	1241	414381.977119358778	0
4	1247	415426.244961749048	1
4	1249	415426.244961749048	0
4	1275	423592.215216956555	1
4	1290	425678.90972165251	0
4	1293	425752.466807084694	1
4	1299	426018.055170857044	0
4	1302	426286.15430244306	1
4	1307	426355.744415269905	0
4	1313	427264.051968579065	1
4	1315	427264.051968579065	0
4	1329	431988.065197306279	1
4	1331	431988.065197306279	0
4	1346	436151.589302963081	1
4	1348	436151.589302963081	0
4	1364	445752.67367310861	1
4	1366	445752.67367310861	0
4	1387	457243.272133381729	1
4	1392	457586.365095109928	0
4	1398	459597.433576639054	1
4	1400	459597.433576639054	0
4	1426	484541.898961345962	1
4	1428	484541.898961345962	0
4	1439	485742.440477521581	1
4	1444	485915.263444676378	0
4	1451	487875.455298737777	1
4	1453	487875.455298737777	0
4	1469	499402.410118846383	1
4	1471	499402.410118846383	0
4	1493	502696.331988750028	1
4	1495	502696.331988750028	0
4	1501	503865.502388695281	1
4	1503	503865.502388695281	0
4	1529	522234.594092284465	1
4	1531	522234.594092284465	0
4	1537	522976.016366736734	1
4	1539	522976.016366736734	0
4	1554	529451.294311461957	1
4	1556	529451.294311461957	0
4	1571	536941.643601846749	1
4	1573	536941.643601846749	0
4	1588	540930.125518636878	1
4	1590	540930.125518636878	0
4	1605	548149.692722214547	1
4	1607	548149.692722214547	0
4	1623	558527.847614367609	1
4	1625	558527.847614367609	0
4	1648	565939.113636305981	1
4	1650	565939.113636305981	0
4	1661	566700.651485609049	1
4	1666	567082.719469591418	0
4	1672	568560.416809499439	1
4	1674	568560.416809499439	0
4	1696	584354.289089525357	1
4	1701	584536.758093745443	0
4	1715	586346.893809554485	1
4	1717	586346.893809554485	0
4	1723	587518.932260487778	1
4	1725	587518.932260487778	0
4	1745	592188.829431331772	1
4	1750	592496.272414453959	0
4	1765	594068.438973765058	1
4	1767	594068.438973765058	0
4	1773	595723.796891373324	1
4	1775	595723.796891373324	0
4	1791	609886.112727308031	1
4	1793	609886.112727308031	0
4	1810	624166.990772301836	1
4	1812	624166.990772301836	0
4	1840	631758.638630009611	1
4	1845	632335.209335278684	0
4	1851	632786.475674904958	1
4	1853	632786.475674904958	0
4	1859	634213.029905550862	1
4	1861	634213.029905550862	0
4	1877	646176.288442732974	1
4	1879	646176.288442732974	0
4	1898	675074.176571010922	1
4	1900	675074.176571010922	0
4	1915	678271.278960808413	1
4	1917	678271.278960808413	0
4	1937	686219.227998698607	1
4	1942	686968.203236171235	0
4	1948	688590.606076542541	1
4	1950	688590.606076542541	0
4	1965	693241.625865756195	1
4	1967	693241.625865756195	0
4	1992	711067.205493930971	1
4	1994	711067.205493930971	0
4	2000	711544.487626205724	1
4	2002	711544.487626205724	0
4	2033	717141.16398551019	1
4	2035	717141.16398551019	0
4	2041	718074.758863842162	1
4	2043	718074.758863842162	0
4	2049	718597.828491397466	1
4	2051	718597.828491397466	0
4	2069	743015.670554066213	1
4	2071	743015.670554066213	0
4	2091	749215.719862670217	1
4	2096	749410.226808772773	0
4	2111	751214.585262450968	1
4	2113	751214.585262450968	0
4	2119	752816.322296082467	1
4	2121	752816.322296082467	0
4	2138	768381.040592630798	1
4	2140	768381.040592630798	0
4	2155	775822.280655637641	1
4	2157	775822.280655637641	0
4	2176	779023.872157724662	1
4	2181	779391.173303396243	0
4	2193	781502.821683358333	1
4	2198	782354.022412850234	0
4	2204	784255.955332339411	1
4	2206	784255.955332339411	0
4	2225	813082.744202512749	1
4	2227	813082.744202512749	0
4	2242	816031.915586358691	1
4	2244	816031.915586358691	0
4	2265	828574.160017615434	1
4	2270	829052.08300684625	0
4	2284	830801.447737061652	1
4	2286	830801.447737061652	0
4	2292	831880.549760624538	1
4	2294	831880.549760624538	0
4	2309	834942.164094288576	1
4	2311	834942.164094288576	0
4	2335	846694.220037526451	1
4	2337	846694.220037526451	0
4	2343	847925.64074864063	1
4	2345	847925.64074864063	0
4	2364	879045.557515221283	1
4	2366	879045.557515221283	0
4	2381	886027.876505235082	1
4	2383	886027.876505235082	0
4	2407	899648.399786491158	1
4	2409	899648.399786491158	0
4	2416	900358.105692079871	1
4	2418	900358.105692079871	0
4	2440	903616.785617667454	1
4	2442	903616.785617667454	0
4	2448	904193.41363250868	1
4	2450	904193.41363250868	0
4	2473	908429.813293574357	1
4	2483	909506.421013756715	0
4	2494	910598.766728766513	1
4	2497	911140.170181406635	2
4	2502	911275.333816954016	1
4	2507	911593.053230947911	0
4	2514	912969.011607826123	1
4	2516	912969.011607826123	0
4	2531	920109.303733065049	1
4	2533	920109.303733065049	0
4	2561	924716.856748100084	1
4	2566	925363.604825617079	0
4	2569	925517.895021162403	1
4	2574	925680.730250979654	0
4	2580	926986.927787255242	1
4	2582	926986.927787255242	0
4	2615	942683.892173430387	1
4	2617	942683.892173430387	0
4	2623	943072.182964384934	1
4	2625	943072.182964384934	0
4	2636	943883.42067398116	1
4	2641	944026.301305797604	0
4	2647	946158.033882267125	1
4	2649	946158.033882267125	0
4	2664	951233.48256952043	1
4	2666	951233.48256952043	0
4	2681	954867.999895291745	1
4	2683	954867.999895291745	0
4	2698	964272.82310989388	1
4	2700	964272.82310989388	0
4	2715	967487.927865308141	1
4	2717	967487.927865308141	0
4	2731	969917.20679702983	1
4	2733	969917.20679702983	0
4	2748	972733.549035820886	1
4	2750	972733.549035820886	0
4	2764	977363.873167512254	1
4	2766	977363.873167512254	0
4	2794	983820.291970578205	1
4	2800	984589.799681435189	0
4	2803	984638.011416664865	1
4	2816	985840.686640821808	0
4	2822	986160.466373916142	1
4	2824	986160.466373916142	0
4	2830	987504.988791406851	1
4	2832	987504.988791406851	0
4	2855	992925.096039620436	1
4	2857	992925.096039620436	0
4	2863	994398.655392177279	1
4	2865	994398.655392177279	0
4	2880	998432.971922447854	1
4	2882	998432.971922447854	0
4	2905	1005088.038130444461	1
4	2907	1005088.038130444461	0
4	2913	1006402.608584463611	1
4	2915	1006402.608584463611	0
4	2938	1009331.546595327525	1
4	2940	1009331.546595327525	0
4	2946	1010521.840516680162	1
4	2948	1010521.840516680162	0
4	2963	1014187.378982343123	1
4	2965	1014187.378982343123	0
4	2989	1030197.951132189691	1
4	2991	1030197.951132189691	0
4	2997	1031029.135298432249	1
4	2999	1031029.135298432249	0
4	3014	1037211.019794057069	1
4	3016	1037211.019794057069	0
4	3039	1040366.137963029383	1
4	3041	1040366.137963029383	0
4	3047	1041879.604520814271	1
4	3049	1041879.604520814271	0
4	3073	1050550.027657463057	1
4	3075	1050550.027657463057	0
4	3086	1051724.316602464421	1
4	3091	1052336.263944018649	0
4	3102	1054357.639164713594	1
4	3107	1054759.829478896411	0
4	3114	1056800.930632869607	1
4	3116	1056800.930632869607	0
4	3139	1067948.821532125674	1
4	3141	1067948.821532125674	0
4	3148	1069412.263522575069	1
4	3150	1069412.263522575069	0
4	3165	1075847.835777104113	1
4	3167	1075847.835777104113	0
4	3189	1078736.210751717766	1
4	3191	1078736.210751717766	0
4	3203	1080118.227056051448	1
4	3208	1081002.040440412265	0
4	3214	1082774.485193110392	1
4	3216	1082774.485193110392	0
4	3240	1094473.333340734761	1
4	3242	1094473.333340734761	0
4	3253	1095252.935282856613	1
4	3258	1095602.057124998725	0
4	3264	1097353.661154680154	1
4	3266	1097353.661154680154	0
4	3281	1100376.158572224945	1
4	3283	1100376.158572224945	0
4	3298	1107897.449321296368	1
4	3300	1107897.449321296368	0
4	3316	1116818.545809421168	1
4	3318	1116818.545809421168	0
5	578	204000	0
5	595	210000	1
5	612	216000	1
5	634	222000	1
5	654	228000	1
5	684	234000	2
5	720	240000	3
5	793	246000	4
5	810	252000	1
5	811	258000	0
5	812	264000	0
5	821	270000	1
5	835	276000	0
5	876	282000	3
5	909	288000	2
5	929	294000	1
5	946	300000	1
5	947	306000	0
5	948	312000	0
5	965	318000	1
5	995	324000	2
5	1012	330000	1
5	1045	336000	2
5	1065	342000	1
5	1071	348000	0
5	1083	354000	1
5	1089	360000	0
5	1101	366000	1
5	1118	372000	1
5	1119	378000	0
5	1120	384000	0
5	1137	390000	1
5	1138	396000	0
5	1139	402000	0
5	1169	408000	2
5	1234	414000	5
5	1254	420000	0
5	1295	426000	4
5	1333	432000	1
5	1353	438000	1
5	1362	444000	1
5	1371	450000	0
5	1380	456000	1
5	1405	462000	1
5	1406	468000	0
5	1407	474000	0
5	1408	480000	0
5	1446	486000	3
5	1458	492000	0
5	1467	498000	1
5	1505	504000	2
5	1509	510000	0
5	1510	516000	0
5	1527	522000	2
5	1552	528000	1
5	1561	534000	0
5	1586	540000	2
5	1600	546000	0
5	1612	552000	1
5	1621	558000	1
5	1638	564000	1
5	1679	570000	2
5	1680	576000	0
5	1686	582000	0
5	1730	588000	3
5	1763	594000	3
5	1780	600000	0
5	1781	606000	0
5	1798	612000	1
5	1799	618000	0
5	1808	624000	1
5	1830	630000	1
5	1866	636000	2
5	1867	642000	0
5	1884	648000	1
5	1885	654000	0
5	1886	660000	0
5	1887	666000	0
5	1888	672000	0
5	1913	678000	2
5	1927	684000	0
5	1955	690000	2
5	1972	696000	1
5	1973	702000	0
5	1974	708000	0
5	2007	714000	2
5	2056	720000	3
5	2057	726000	0
5	2058	732000	0
5	2059	738000	0
5	2076	744000	1
5	2101	750000	2
5	2126	756000	1
5	2127	762000	0
5	2136	768000	1
5	2150	774000	0
5	2186	780000	3
5	2211	786000	1
5	2212	792000	0
5	2213	798000	0
5	2214	804000	0
5	2215	810000	0
5	2240	816000	2
5	2249	822000	0
5	2258	828000	1
5	2307	834000	3
5	2316	840000	0
5	2330	846000	1
5	2350	852000	1
5	2351	858000	0
5	2352	864000	0
5	2353	870000	0
5	2354	876000	0
5	2371	882000	1
5	2388	888000	1
5	2389	894000	0
5	2414	900000	2
5	2460	906000	2
5	2512	912000	4
5	2526	918000	0
5	2554	924000	3
5	2587	930000	1
5	2588	936000	0
5	2610	942000	2
5	2654	948000	2
5	2679	954000	2
5	2688	960000	0
5	2713	966000	2
5	2746	972000	2
5	2771	978000	1
5	2796	984000	2
5	2842	990000	2
5	2875	996000	2
5	2887	1002000	1
5	2933	1008000	3
5	2961	1014000	2
5	2970	1020000	0
5	2971	1026000	0
5	3004	1032000	2
5	3026	1038000	1
5	3054	1044000	2
5	3071	1050000	2
5	3112	1056000	2
5	3121	1062000	0
5	3143	1068000	2
5	3163	1074000	1
5	3196	1080000	2
5	3221	1086000	1
5	3227	1092000	0
5	3276	1098000	3
5	3288	1104000	1
5	3305	1110000	1
5	3314	1116000	1
5	3323	1122000	0
6	578	204000	2
6	595	210000	1
6	612	216000	1
6	634	222000	1
6	654	228000	1
6	684	234000	2
6	720	240000	2
6	793	246000	4
6	810	252000	2
6	811	258000	0
6	812	264000	0
6	821	270000	0
6	835	276000	1
6	876	282000	2
6	909	288000	2
6	929	294000	2
6	946	300000	1
6	947	306000	0
6	948	312000	0
6	965	318000	1
6	995	324000	1
6	1012	330000	1
6	1045	336000	2
6	1065	342000	2
6	1071	348000	0
6	1083	354000	1
6	1089	360000	0
6	1101	366000	1
6	1118	372000	1
6	1119	378000	0
6	1120	384000	0
6	1137	390000	1
6	1138	396000	0
6	1139	402000	0
6	1169	408000	1
6	1234	414000	3
6	1254	420000	3
6	1295	426000	0
6	1333	432000	4
6	1353	438000	2
6	1362	444000	0
6	1371	450000	1
6	1380	456000	0
6	1405	462000	2
6	1406	468000	0
6	1407	474000	0
6	1408	480000	0
6	1446	486000	1
6	1458	492000	2
6	1467	498000	0
6	1505	504000	2
6	1509	510000	1
6	1510	516000	0
6	1527	522000	0
6	1552	528000	2
6	1561	534000	1
6	1586	540000	1
6	1600	546000	1
6	1612	552000	1
6	1621	558000	0
6	1638	564000	1
6	1679	570000	3
6	1680	576000	0
6	1686	582000	0
6	1730	588000	3
6	1763	594000	1
6	1780	600000	2
6	1781	606000	0
6	1798	612000	1
6	1799	618000	0
6	1808	624000	0
6	1830	630000	1
6	1866	636000	3
6	1867	642000	0
6	1884	648000	1
6	1885	654000	0
6	1886	660000	0
6	1887	666000	0
6	1888	672000	0
6	1913	678000	1
6	1927	684000	1
6	1955	690000	2
6	1972	696000	1
6	1973	702000	0
6	1974	708000	0
6	2007	714000	2
6	2056	720000	3
6	2057	726000	0
6	2058	732000	0
6	2059	738000	0
6	2076	744000	1
6	2101	750000	1
6	2126	756000	2
6	2127	762000	0
6	2136	768000	0
6	2150	774000	1
6	2186	780000	2
6	2211	786000	2
6	2212	792000	0
6	2213	798000	0
6	2214	804000	0
6	2215	810000	0
6	2240	816000	1
6	2249	822000	1
6	2258	828000	0
6	2307	834000	3
6	2316	840000	1
6	2330	846000	0
6	2350	852000	2
6	2351	858000	0
6	2352	864000	0
6	2353	870000	0
6	2354	876000	0
6	2371	882000	1
6	2388	888000	1
6	2389	894000	0
6	2414	900000	1
6	2460	906000	3
6	2512	912000	3
6	2526	918000	1
6	2554	924000	1
6	2587	930000	3
6	2588	936000	0
6	2610	942000	0
6	2654	948000	4
6	2679	954000	1
6	2688	960000	1
6	2713	966000	1
6	2746	972000	2
6	2771	978000	2
6	2796	984000	0
6	2842	990000	4
6	2875	996000	2
6	2887	1002000	1
6	2933	1008000	2
6	2961	1014000	2
6	2970	1020000	1
6	2971	1026000	0
6	3004	1032000	2
6	3026	1038000	1
6	3054	1044000	2
6	3071	1050000	0
6	3112	1056000	3
6	3121	1062000	1
6	3143	1068000	0
6	3163	1074000	2
6	3196	1080000	2
6	3221	1086000	2
6	3227	1092000	0
6	3276	1098000	3
6	3288	1104000	1
6	3305	1110000	1
6	3314	1116000	0
6	3323	1122000	1
7	585	206985.315644195171	1
7	587	208577.581681655024	0
7	602	212310.176615674107	1
7	604	213913.992087105211	0
7	619	218570.906243934482	1
7	621	220308.375860485029	0
7	636	222262.866058595933	1
7	638	224306.422980255634	0
7	656	228100.946025985781	1
7	661	228987.495778189695	2
7	663	229697.317691998423	1
7	671	230513.767966867926	0
7	689	234186.52627667977	1
7	694	235110.695190859747	2
7	696	236389.467438383477	1
7	704	236846.876208716718	0
7	718	238324.696185224607	1
7	726	240483.47120948537	0
7	733	241202.456992277556	1
7	741	242164.55718439391	2
7	748	242895.408599186563	1
7	752	243128.022576966867	2
7	757	244118.059991723536	3
7	761	244145.228404005592	2
7	777	245076.935253616825	1
7	790	245985.802983917692	0
7	795	246254.775002254377	1
7	802	248184.801993525117	0
7	819	268474.952409794194	1
7	822	270057.016864137928	0
7	837	276878.347839486665	1
7	845	278206.147386161837	2
7	847	278708.234564835719	1
7	855	280161.728565785243	0
7	872	281976.962173923433	1
7	878	282839.83220758371	2
7	880	284015.403671511755	1
7	888	284772.361228155771	0
7	902	286097.952199503622	1
7	904	287860.56983839959	0
7	919	290873.591516593285	1
7	921	292694.874954297375	0
7	936	295692.56962901267	1
7	938	297295.468527034207	0
7	955	313093.977405228007	1
7	957	314952.347532082328	0
7	972	319820.090957010148	1
7	979	321265.704290746402	0
7	983	322068.912184648652	1
7	990	323893.4982004084	0
7	1005	327760.411057263826	1
7	1007	329756.379723339062	0
7	1022	331459.114617429655	1
7	1024	333480.034794768867	0
7	1041	335326.658428439543	1
7	1047	336172.752284331901	2
7	1049	337257.089994389818	1
7	1057	337864.305445806823	0
7	1073	348238.355916392401	1
7	1075	350094.698551605125	0
7	1091	360400.74753285034	1
7	1093	361927.702423297158	0
7	1108	367441.300096775163	1
7	1110	369232.115721816803	0
7	1127	385008.923442243538	1
7	1129	386799.112200378058	0
7	1146	403956.043247023798	1
7	1148	405503.309162047766	0
7	1162	407417.934078698746	1
7	1174	408479.626460464939	2
7	1178	409211.33821940495	1
7	1182	409339.284866464942	2
7	1189	410323.169429036967	1
7	1202	410963.339843866031	0
7	1209	411474.621783081036	1
7	1217	412584.482872812269	2
7	1221	413245.1707732293	1
7	1225	413517.116957415431	2
7	1238	414381.977119358778	1
7	1246	415426.244961749048	0
7	1261	421715.866339855887	1
7	1274	423592.215216956555	0
7	1278	423877.853376613351	1
7	1283	424726.465066149408	2
7	1288	425678.90972165251	3
7	1292	425752.466807084694	2
7	1301	426286.15430244306	1
7	1312	427264.051968579065	0
7	1326	430627.144797998442	1
7	1328	431988.065197306279	0
7	1343	434152.622181057233	1
7	1345	436151.589302963081	0
7	1360	443916.211526326957	1
7	1363	445752.67367310861	0
7	1378	455131.878039581191	1
7	1386	457243.272133381729	0
7	1390	457586.365095109928	1
7	1397	459597.433576639054	0
7	1418	482836.879302888638	1
7	1423	483815.086385418391	2
7	1425	484541.898961345962	1
7	1438	485742.440477521581	0
7	1442	485915.263444676378	1
7	1450	487875.455298737777	0
7	1465	497626.095724913895	1
7	1468	499402.410118846383	0
7	1482	500745.5612532759	1
7	1490	502092.191641162685	2
7	1492	502696.331988750028	1
7	1500	503865.502388695281	0
7	1520	520334.982622239774	1
7	1525	521173.494545352713	2
7	1528	522234.594092284465	1
7	1536	522976.016366736734	0
7	1550	527557.448377597591	1
7	1553	529451.294311461957	0
7	1568	535277.249930225995	1
7	1570	536941.643601846749	0
7	1584	539203.764490370828	1
7	1587	540930.125518636878	0
7	1602	546077.982301251396	1
7	1604	548149.692722214547	0
7	1619	556668.052438163421	1
7	1622	558527.847614367609	0
7	1636	563899.980057806209	1
7	1645	564869.187772109137	2
7	1647	565939.113636305981	1
7	1660	566700.651485609049	0
7	1664	567082.719469591418	1
7	1671	568560.416809499439	0
7	1688	582374.04318048587	1
7	1695	584354.289089525357	0
7	1699	584536.758093745443	1
7	1712	585760.847285616888	2
7	1714	586346.893809554485	1
7	1722	587518.932260487778	0
7	1737	590147.095009343561	1
7	1744	592188.829431331772	0
7	1748	592496.272414453959	1
7	1761	593861.727194687959	2
7	1764	594068.438973765058	1
7	1772	595723.796891373324	0
7	1788	608149.550981379065	1
7	1790	609886.112727308031	0
7	1806	622396.8362849495	1
7	1809	624166.990772301836	0
7	1823	629809.152196217129	1
7	1832	630755.890279900314	2
7	1839	631758.638630009611	1
7	1843	632335.209335278684	2
7	1850	632786.475674904958	1
7	1858	634213.029905550862	0
7	1874	644288.349240750016	1
7	1876	646176.288442732974	0
7	1895	673649.853753708153	1
7	1897	675074.176571010922	0
7	1911	676487.697550184915	1
7	1914	678271.278960808413	0
7	1929	684240.674870793567	1
7	1936	686219.227998698607	0
7	1940	686968.203236171235	1
7	1947	688590.606076542541	0
7	1962	691517.462236616208	1
7	1964	693241.625865756195	0
7	1984	708930.29651687636	1
7	1989	709939.18075367174	2
7	1991	711067.205493930971	1
7	1999	711544.487626205724	0
7	2017	715131.069342069993	1
7	2022	716118.260152907996	2
7	2030	717140.700757316703	3
7	2032	717141.16398551019	2
7	2040	718074.758863842162	1
7	2048	718597.828491397466	0
7	2066	740958.932087031184	1
7	2068	743015.670554066213	0
7	2083	747281.54607523371	1
7	2090	749215.719862670217	0
7	2094	749410.226808772773	1
7	2108	751205.396796921477	2
7	2110	751214.585262450968	1
7	2118	752816.322296082467	0
7	2134	766706.473368078636	1
7	2137	768381.040592630798	0
7	2152	774026.205774702198	1
7	2154	775822.280655637641	0
7	2168	777085.632826465934	1
7	2175	779023.872157724662	0
7	2179	779391.173303396243	1
7	2192	781502.821683358333	0
7	2196	782354.022412850234	1
7	2203	784255.955332339411	0
7	2222	811228.674636987769	1
7	2224	813082.744202512749	0
7	2238	814301.574578076467	1
7	2241	816031.915586358691	0
7	2256	826736.723217947322	1
7	2264	828574.160017615434	0
7	2268	829052.08300684625	1
7	2281	830280.478029753792	2
7	2283	830801.447737061652	1
7	2291	831880.549760624538	0
7	2305	833141.362907179366	1
7	2308	834942.164094288576	0
7	2326	845163.781019284246	1
7	2332	846191.417696613078	2
7	2334	846694.220037526451	1
7	2342	847925.64074864063	0
7	2361	877047.342394016095	1
7	2363	879045.557515221283	0
7	2378	884261.88302689444	1
7	2380	886027.876505235082	0
7	2396	897765.966313178162	1
7	2404	898624.690813007719	2
7	2406	899648.399786491158	1
7	2415	900358.105692079871	0
7	2432	901921.473153978541	1
7	2437	902770.770195019112	2
7	2439	903616.785617667454	1
7	2447	904193.41363250868	0
7	2462	906454.326093182674	1
7	2472	908429.813293574357	0
7	2476	908648.604197250585	1
7	2481	909506.421013756715	2
7	2493	910598.766728766513	1
7	2496	911140.170181406635	0
7	2500	911275.333816954016	1
7	2513	912969.011607826123	0
7	2528	918174.795967018275	1
7	2530	920109.303733065049	0
7	2547	922938.800600576254	1
7	2552	923924.684360453235	2
7	2560	924716.856748100084	1
7	2564	925363.604825617079	2
7	2568	925517.895021162403	1
7	2579	926986.927787255242	0
7	2598	940677.800352978176	1
7	2606	941541.357550971986	2
7	2612	942419.626323441871	3
7	2614	942683.892173430387	2
7	2622	943072.182964384934	1
7	2635	943883.42067398116	0
7	2639	944026.301305797604	1
7	2646	946158.033882267125	0
7	2661	949561.348197064118	1
7	2663	951233.48256952043	0
7	2677	953278.327202360263	1
7	2680	954867.999895291745	0
7	2695	962549.054118160355	1
7	2697	964272.82310989388	0
7	2711	965402.779809897671	1
7	2714	967487.927865308141	0
7	2728	968602.828937219273	1
7	2730	969917.20679702983	0
7	2744	971150.97529466332	1
7	2747	972733.549035820886	0
7	2761	975108.118657897875	1
7	2763	977363.873167512254	0
7	2781	982016.401228687181	1
7	2786	982711.542078390172	2
7	2793	983820.291970578205	1
7	2798	984589.799681435189	2
7	2802	984638.011416664865	1
7	2814	985840.686640821808	2
7	2821	986160.466373916142	1
7	2829	987504.988791406851	0
7	2844	990946.468377811201	1
7	2852	992441.146391122213	2
7	2854	992925.096039620436	1
7	2862	994398.655392177279	0
7	2877	996706.443929701553	1
7	2879	998432.971922447854	0
7	2897	1003475.953735426639	1
7	2902	1004385.058879444707	2
7	2904	1005088.038130444461	1
7	2912	1006402.608584463611	0
7	2926	1007621.061370533621	1
7	2935	1008703.300928984592	2
7	2937	1009331.546595327525	1
7	2945	1010521.840516680162	0
7	2959	1012535.939196027316	1
7	2962	1014187.378982343123	0
7	2981	1028493.048762584126	1
7	2986	1029445.464866549444	2
7	2988	1030197.951132189691	1
7	2996	1031029.135298432249	0
7	3011	1035686.239711614343	1
7	3013	1037211.019794057069	0
7	3028	1038201.859832190028	1
7	3036	1040153.036807009873	2
7	3038	1040366.137963029383	1
7	3046	1041879.604520814271	0
7	3064	1048888.574808692306	1
7	3069	1049814.904340382583	2
7	3072	1050550.027657463057	1
7	3085	1051724.316602464421	0
7	3089	1052336.263944018649	1
7	3101	1054357.639164713594	0
7	3105	1054759.829478896411	1
7	3113	1056800.930632869607	0
7	3128	1066046.616172732618	1
7	3136	1067592.515962154573	2
7	3138	1067948.821532125674	1
7	3147	1069412.263522575069	0
7	3161	1073938.790335704074	1
7	3164	1075847.835777104113	0
7	3181	1077024.806214984465	1
7	3186	1077825.474725293211	2
7	3188	1078736.210751717766	1
7	3202	1080118.227056051448	0
7	3206	1081002.040440412265	1
7	3213	1082774.485193110392	0
7	3232	1092753.422555710738	1
7	3237	1093595.110999319009	2
7	3239	1094473.333340734761	1
7	3252	1095252.935282856613	0
7	3256	1095602.057124998725	1
7	3263	1097353.661154680154	0
7	3278	1098455.53086159407	1
7	3280	1100376.158572224945	0
7	3295	1106133.044298210213	1
7	3297	1107897.449321296368	0
7	3312	1115192.411346868926	1
7	3315	1116818.545809421168	0
