version 2
run ResponseMeasurement-85-20170110-19:46:55-22814
attr configname ResponseMeasurement
attr datetime 20170110-19:46:55
attr experiment ResponseMeasurement
attr inifile responseStudy.ini
attr iterationvars ""
attr iterationvars2 $repetition=85
attr measurement ""
attr network controltower.SimNetwork
attr processid 22814
attr repetition 85
attr replication #85
attr resultdir results
attr runnumber 85
attr seedset 85
param SimNetwork.a.parkingLot.parkingDelay "truncnormal(30min, 3min)"
param SimNetwork.a.runway.landingTime "truncnormal(15min, 1.5min)"
param SimNetwork.a.runway.takeoffTime "truncnormal(15min, 1.5min)"
param SimNetwork.a.runway.throughputCheckInterval 150min
param SimNetwork.wg.interArrivalTime exponential(150min)

vector 2  SimNetwork.a.landingQueue  queueLength:vector  ETV
attr source  queueLengthSignal
vector 1  SimNetwork.a.landingQueue  queueTime:vector  ETV
attr source  queueTimeSignal
vector 7  SimNetwork.a.parkingLot  parkingOccupancy:vector  ETV
attr source  parkingOccupancy
vector 5  SimNetwork.a.runway  landedThroughput:vector  ETV
attr source  landedThroughputSignal
vector 6  SimNetwork.a.runway  tookoffThroughput:vector  ETV
attr source  tookoffThroughputSignal
vector 4  SimNetwork.a.takeoffQueue  queueLength:vector  ETV
attr source  queueLengthSignal
vector 3  SimNetwork.a.takeoffQueue  queueTime:vector  ETV
attr source  queueTimeSignal
vector 0  SimNetwork.wg  responseTime:vector  ETV
attr source  responseTimeSignal
0	721	308236.140515606468	12075.323101579
0	739	324280.891099084791	19816.711872482
0	758	351561.058868566329	30885.780941418
0	786	363867.438512594438	16107.674785875
0	802	365503.810802085956	5418.1284968103
0	815	367291.762595233112	6156.3319636759
0	823	368993.941382655872	5774.8945513189
0	841	383726.074334429835	18424.184551707
0	858	395000.929678756833	15565.856711539
0	884	406997.003151711807	15441.259743075
0	892	408189.564959248067	4670.8455171233
0	911	432344.095352637948	27419.055879609
0	927	438390.516196482806	9794.5713694117
0	947	443761.435931274566	9082.4064885297
0	971	447342.651281371859	7025.1900168854
0	976	448214.661636083126	4685.6472701959
0	1005	459036.685731467479	15049.273289459
0	1018	460988.359211651391	5746.5813603878
0	1026	462575.885416146749	5208.9923544706
0	1044	479371.658581471866	20942.837256771
0	1069	494603.612393833749	18768.148959982
0	1081	496716.593138262582	6146.4797951634
0	1094	500090.979664559586	7244.9832562302
0	1111	509362.540146044313	13028.590230248
0	1131	515965.859629368927	10215.86617892
0	1144	519506.403643641498	7182.9866878783
0	1161	526189.805900522295	10699.009715349
0	1178	534869.387270402948	12346.000652235
0	1195	547473.853404144347	16207.819313392
0	1213	564583.045933742494	20655.010666009
0	1230	570335.292473734758	9295.1973486502
0	1247	580675.120346666394	14017.437374229
0	1263	584645.81682238035	7851.6252254893
0	1281	601184.873841519038	19898.241690759
0	1298	606088.778754866809	8291.1785716136
0	1315	620644.673903580828	17942.440249067
0	1332	625557.877143568857	8651.9526669546
0	1349	637357.375660986215	15015.295962404
0	1366	647861.903641647007	13763.343329907
0	1383	653375.501147240471	9345.558769004
0	1402	677554.411197302031	27903.849752899
0	1425	711299.171980172147	37474.147609678
0	1438	715171.342501162242	7732.4881006436
0	1455	720153.033414417826	8909.4853570718
0	1473	742917.94978368984	25925.856442942
0	1491	756289.239197002399	17170.080971817
0	1507	763433.230429296756	10704.396124663
0	1524	769030.318044696292	8969.4787013289
0	1550	784808.315137351224	19109.94420484
0	1558	786823.309838194805	5937.6907020632
0	1584	808171.240386854445	25089.648290424
0	1592	809365.738035920772	4663.7182295181
0	1609	817841.936191479242	11742.207578745
0	1627	828662.725107048227	14365.999638169
0	1654	855729.763341305053	30641.254742836
0	1665	856688.757299283522	4657.402442915
0	1678	859904.543768568127	7196.7954293836
0	1695	864782.713240333019	8239.8671323759
0	1725	918311.997741339582	57171.320339533
0	1733	920195.502957392527	6095.0840272868
0	1750	927431.032835604663	10776.648566363
0	1775	936032.770971824846	11975.529733117
0	1791	938232.722865440438	6276.8335554024
0	1799	939792.011805862705	5452.9737377622
0	1816	946808.003857370591	10609.307777229
0	1842	964876.750510044969	21667.54466314
0	1850	966072.973795326583	4637.0102769812
0	1886	980085.062837541329	18595.345185652
0	1894	980955.98858508743	4570.3391459335
0	1900	981919.346598548571	5084.8783891444
0	1918	1005018.512519215182	28056.783302751
0	1939	1024321.272238013592	22684.989665563
0	1964	1028104.95460093182	7589.557396095
0	1972	1029043.964121643188	5084.2500875243
0	1985	1032584.242115129026	8262.0284775366
0	2004	1056109.251637225182	27644.890743141
0	2023	1060515.856795971008	7740.3839864382
0	2037	1063790.875002889796	7124.7035020493
0	2054	1074132.51754960195	13957.241905758
0	2071	1083211.547435528005	12699.49903089
0	2088	1094480.676663014735	14932.379376342
0	2122	1109476.877238716827	18282.806267692
0	2133	1110678.624415564687	5701.4225603192
0	2141	1111618.172824161654	4863.4768786606
0	2154	1114993.26381840428	8228.6261322354
0	2171	1120167.565563488476	8998.435890099
0	2188	1129674.462374500452	12877.532600173
0	2220	1146123.645607994917	20289.021326142
0	2230	1147720.609539240521	5183.3744054104
0	2238	1149435.166390109838	5904.7922541296
0	2258	1154523.436176537798	8703.1095327277
0	2271	1158046.523923476696	7316.1930521115
1	709	304464.179226603215	0
1	727	320675.277927147933	0
1	746	347759.763726719485	0
1	764	360085.682305275659	0
1	772	361135.430631557256	0
1	788	363867.438512594438	648.39168125748
1	804	365503.810802085956	201.92101936271
1	830	379435.072967218031	0
1	847	391555.743408637163	0
1	864	403518.719442124771	0
1	872	404925.039473029085	0
1	899	428595.944827071081	0
1	916	434679.029442744907	0
1	932	440317.461264486443	0
1	949	443761.435931274566	232.42156538729
1	957	444631.292279602202	643.87983759392
1	982	455241.777851263564	0
1	990	457366.893061676134	0
1	1007	459036.685731467479	607.86440676709
1	1032	475835.463433851381	0
1	1050	490570.113343099199	0
1	1058	492845.996408329409	0
1	1083	496716.593138262582	382.64322246615
1	1100	505749.993450448996	0
1	1116	512323.416955763156	0
1	1133	515965.859629368927	475.063444196
1	1150	522523.386618167959	0
1	1167	531266.034090752027	0
1	1184	543928.035267733523	0
1	1202	561040.095125084555	0
1	1218	566657.682972437795	0
1	1236	576794.191596891063	0
1	1252	581286.632150759612	0
1	1270	597797.600183253254	0
1	1286	602702.23365451348	0
1	1304	616905.924476614208	0
1	1321	622342.079698582264	0
1	1338	634098.560311740264	0
1	1355	644029.942378236444	0
1	1372	649650.56144440348	0
1	1390	673825.02437049422	0
1	1410	707438.854400518688	0
1	1427	711299.171980172147	55.623922826121
1	1443	716992.09334074764	0
1	1462	739119.158225185736	0
1	1479	752728.834304633912	0
1	1496	760060.839343367382	0
1	1513	765698.370932511652	0
1	1530	780885.619136131634	0
1	1539	783081.592096430337	0
1	1565	804702.019806402653	0
1	1573	806099.72861273464	0
1	1598	814296.725468879514	0
1	1615	825088.5085984694	0
1	1634	852031.354856368508	0
1	1642	852940.700012462219	232.95167327766
1	1667	856688.757299283522	145.91119132636
1	1683	861140.677401806993	0
1	1705	914100.418930105713	0
1	1713	916654.384269241664	0
1	1738	924057.241238707746	0
1	1755	931955.889310037998	0
1	1763	934339.038068100461	0
1	1780	936198.696080141581	0
1	1804	943209.205846904639	0
1	1822	961435.963518345363	0
1	1830	962356.177178499419	866.45952661042
1	1856	976385.649439153979	0
1	1867	977336.150091153161	501.68188174903
1	1872	978237.616849988687	1275.8876335246
1	1907	1001636.282572450929	0
1	1925	1020515.397204836781	0
1	1941	1024321.272238013592	361.5582038947
1	1949	1025164.371136388116	842.15749879572
1	1974	1029043.964121643188	579.6032275594
1	1992	1052775.472809532801	0
1	2009	1056666.171500840468	0
1	2025	1060515.856795971008	340.58115212695
1	2042	1070512.048404637586	0
1	2059	1079548.297286673192	0
1	2077	1091194.070971024856	0
1	2094	1104977.201855245452	0
1	2102	1106754.695945501064	0
1	2111	1107727.849377740862	963.211691572
1	2143	1111618.172824161654	449.04315077218
1	2160	1116796.929774327351	0
1	2177	1125834.624281853339	0
1	2194	1142537.235133830141	0
1	2203	1143530.374135980247	0
1	2222	1146123.645607994917	303.31896418478
1	2243	1150730.330871365238	0
1	2260	1154523.436176537798	176.38604582098
2	707	304464.179226603215	1
2	709	304464.179226603215	0
2	725	320675.277927147933	1
2	727	320675.277927147933	0
2	744	347759.763726719485	1
2	746	347759.763726719485	0
2	762	360085.682305275659	1
2	764	360085.682305275659	0
2	770	361135.430631557256	1
2	772	361135.430631557256	0
2	783	363219.046831336956	1
2	788	363867.438512594438	0
2	799	365301.889782723241	1
2	804	365503.810802085956	0
2	828	379435.072967218031	1
2	830	379435.072967218031	0
2	845	391555.743408637163	1
2	847	391555.743408637163	0
2	862	403518.719442124771	1
2	864	403518.719442124771	0
2	870	404925.039473029085	1
2	872	404925.039473029085	0
2	897	428595.944827071081	1
2	899	428595.944827071081	0
2	914	434679.029442744907	1
2	916	434679.029442744907	0
2	930	440317.461264486443	1
2	932	440317.461264486443	0
2	944	443529.014365887272	1
2	949	443761.435931274566	0
2	952	443987.412442008282	1
2	957	444631.292279602202	0
2	980	455241.777851263564	1
2	982	455241.777851263564	0
2	988	457366.893061676134	1
2	990	457366.893061676134	0
2	1001	458428.821324700387	1
2	1007	459036.685731467479	0
2	1030	475835.463433851381	1
2	1032	475835.463433851381	0
2	1048	490570.113343099199	1
2	1050	490570.113343099199	0
2	1056	492845.996408329409	1
2	1058	492845.996408329409	0
2	1078	496333.949915796428	1
2	1083	496716.593138262582	0
2	1098	505749.993450448996	1
2	1100	505749.993450448996	0
2	1114	512323.416955763156	1
2	1116	512323.416955763156	0
2	1128	515490.796185172925	1
2	1133	515965.859629368927	0
2	1148	522523.386618167959	1
2	1150	522523.386618167959	0
2	1165	531266.034090752027	1
2	1167	531266.034090752027	0
2	1182	543928.035267733523	1
2	1184	543928.035267733523	0
2	1200	561040.095125084555	1
2	1202	561040.095125084555	0
2	1216	566657.682972437795	1
2	1218	566657.682972437795	0
2	1234	576794.191596891063	1
2	1236	576794.191596891063	0
2	1250	581286.632150759612	1
2	1252	581286.632150759612	0
2	1268	597797.600183253254	1
2	1270	597797.600183253254	0
2	1284	602702.23365451348	1
2	1286	602702.23365451348	0
2	1302	616905.924476614208	1
2	1304	616905.924476614208	0
2	1319	622342.079698582264	1
2	1321	622342.079698582264	0
2	1336	634098.560311740264	1
2	1338	634098.560311740264	0
2	1353	644029.942378236444	1
2	1355	644029.942378236444	0
2	1370	649650.56144440348	1
2	1372	649650.56144440348	0
2	1388	673825.02437049422	1
2	1390	673825.02437049422	0
2	1408	707438.854400518688	1
2	1410	707438.854400518688	0
2	1422	711243.548057346026	1
2	1427	711299.171980172147	0
2	1441	716992.09334074764	1
2	1443	716992.09334074764	0
2	1460	739119.158225185736	1
2	1462	739119.158225185736	0
2	1477	752728.834304633912	1
2	1479	752728.834304633912	0
2	1494	760060.839343367382	1
2	1496	760060.839343367382	0
2	1511	765698.370932511652	1
2	1513	765698.370932511652	0
2	1528	780885.619136131634	1
2	1530	780885.619136131634	0
2	1537	783081.592096430337	1
2	1539	783081.592096430337	0
2	1563	804702.019806402653	1
2	1565	804702.019806402653	0
2	1571	806099.72861273464	1
2	1573	806099.72861273464	0
2	1596	814296.725468879514	1
2	1598	814296.725468879514	0
2	1613	825088.5085984694	1
2	1615	825088.5085984694	0
2	1632	852031.354856368508	1
2	1634	852031.354856368508	0
2	1637	852707.748339184559	1
2	1642	852940.700012462219	0
2	1662	856542.846107957161	1
2	1667	856688.757299283522	0
2	1681	861140.677401806993	1
2	1683	861140.677401806993	0
2	1703	914100.418930105713	1
2	1705	914100.418930105713	0
2	1711	916654.384269241664	1
2	1713	916654.384269241664	0
2	1736	924057.241238707746	1
2	1738	924057.241238707746	0
2	1753	931955.889310037998	1
2	1755	931955.889310037998	0
2	1761	934339.038068100461	1
2	1763	934339.038068100461	0
2	1778	936198.696080141581	1
2	1780	936198.696080141581	0
2	1802	943209.205846904639	1
2	1804	943209.205846904639	0
2	1820	961435.963518345363	1
2	1822	961435.963518345363	0
2	1825	961489.717651889003	1
2	1830	962356.177178499419	0
2	1854	976385.649439153979	1
2	1856	976385.649439153979	0
2	1859	976834.468209404127	1
2	1862	976961.729216464109	2
2	1867	977336.150091153161	1
2	1872	978237.616849988687	0
2	1905	1001636.282572450929	1
2	1907	1001636.282572450929	0
2	1923	1020515.397204836781	1
2	1925	1020515.397204836781	0
2	1936	1023959.714034118896	1
2	1941	1024321.272238013592	0
2	1944	1024322.213637592396	1
2	1949	1025164.371136388116	0
2	1969	1028464.360894083785	1
2	1974	1029043.964121643188	0
2	1990	1052775.472809532801	1
2	1992	1052775.472809532801	0
2	2007	1056666.171500840468	1
2	2009	1056666.171500840468	0
2	2020	1060175.275643844058	1
2	2025	1060515.856795971008	0
2	2040	1070512.048404637586	1
2	2042	1070512.048404637586	0
2	2057	1079548.297286673192	1
2	2059	1079548.297286673192	0
2	2075	1091194.070971024856	1
2	2077	1091194.070971024856	0
2	2092	1104977.201855245452	1
2	2094	1104977.201855245452	0
2	2100	1106754.695945501064	1
2	2102	1106754.695945501064	0
2	2105	1106764.637686168863	1
2	2111	1107727.849377740862	0
2	2138	1111169.129673389479	1
2	2143	1111618.172824161654	0
2	2158	1116796.929774327351	1
2	2160	1116796.929774327351	0
2	2175	1125834.624281853339	1
2	2177	1125834.624281853339	0
2	2192	1142537.235133830141	1
2	2194	1142537.235133830141	0
2	2201	1143530.374135980247	1
2	2203	1143530.374135980247	0
2	2214	1145820.326643810136	1
2	2222	1146123.645607994917	0
2	2241	1150730.330871365238	1
2	2243	1150730.330871365238	0
2	2255	1154347.050130716821	1
2	2260	1154523.436176537798	0
3	718	307177.937699218322	0
3	735	323209.079725480628	0
3	754	350626.497153314077	0
3	780	362901.350933959352	0
3	796	364610.734985229747	710.60155622398
3	812	366348.589936732204	236.26131914302
3	820	368075.617515031212	0
3	838	382677.277334925171	0
3	855	394141.716813918422	0
3	881	406067.037953142618	0
3	889	407313.661516184921	0
3	907	431423.072185411556	0
3	924	437609.322508222659	0
3	941	442982.463924703149	0
3	965	446403.444119739138	0
3	973	447342.651281371859	146.9649458018
3	998	458192.333815306808	368.66254698079
3	1015	460173.836356792179	426.64302994164
3	1023	461620.203749217002	0
3	1041	478655.607828037477	0
3	1066	493776.113615753268	487.09628572958
3	1075	495737.182593190323	0
3	1091	499347.744089534694	0
3	1108	508585.982635807384	0
3	1125	514991.385133564034	0
3	1141	518668.46705271154	0
3	1158	525285.498972539099	0
3	1175	534011.239606602045	0
3	1192	546688.023397746889	0
3	1210	563681.699816420633	0
3	1227	569417.477306913586	0
3	1244	579749.000031199846	0
3	1260	583774.9144989192	0
3	1278	600421.220851692577	0
3	1295	605135.420644854081	0
3	1312	619672.997939636916	0
3	1329	624910.941633569749	0
3	1346	636525.046826081682	0
3	1363	647063.617777227053	0
3	1380	652502.526926647302	0
3	1399	676591.739238403859	0
3	1418	710372.388309081226	0
3	1435	714232.108149012608	0
3	1451	719554.151411533142	0
3	1470	741979.83820589086	0
3	1487	755322.53575615539	0
3	1504	762556.738290094174	0
3	1521	768275.182378811875	0
3	1547	784022.989519628092	535.35949096493
3	1555	786008.540526249007	0
3	1581	807198.029992568287	0
3	1589	808508.426237624768	0
3	1606	817089.477965035141	0
3	1623	827728.645583096682	0
3	1650	854708.395190723059	0
3	1659	855740.30608460405	0
3	1675	859111.360022571391	0
3	1691	863845.056239860639	0
3	1721	917490.963932141348	600.8096779486
3	1730	919244.406699086081	0
3	1746	926473.713465196881	0
3	1771	935235.421116608295	557.8803575854
3	1788	937279.606644335863	0
3	1796	938902.568720362045	0
3	1813	945884.583685271952	0
3	1839	964166.262509958715	0
3	1847	965135.145106249817	0
3	1880	979160.596655482303	0
3	1888	980085.062837541329	370.77897969204
3	1896	980955.98858508743	266.1859784993
3	1915	1004102.126279377378	0
3	1933	1023379.288991779662	0
3	1958	1027251.979869275085	0
3	1966	1028104.95460093182	282.21984842182
3	1982	1031748.606808108542	0
3	2001	1055201.011901252981	0
3	2017	1059496.217777144031	0
3	2034	1062976.844546948081	0
3	2051	1073286.237234549732	0
3	2068	1082389.086402642241	0
3	2085	1093622.399876391121	0
3	2119	1108599.468332048661	833.01926672773
3	2127	1109734.000715963705	0
3	2135	1110678.624415564687	303.61150228755
3	2151	1114213.073588588316	0
3	2168	1119330.654936571385	0
3	2185	1128746.11879521947	0
3	2211	1145244.990234329122	0
3	2227	1146947.051363843969	1021.0368735451
3	2235	1148488.687039643319	0
3	2252	1153661.212904997726	0
3	2268	1157312.122917686191	0
4	716	307177.937699218322	1
4	718	307177.937699218322	0
4	733	323209.079725480628	1
4	735	323209.079725480628	0
4	752	350626.497153314077	1
4	754	350626.497153314077	0
4	778	362901.350933959352	1
4	780	362901.350933959352	0
4	791	363900.133429005771	1
4	796	364610.734985229747	0
4	807	366112.328617589186	1
4	812	366348.589936732204	0
4	818	368075.617515031212	1
4	820	368075.617515031212	0
4	836	382677.277334925171	1
4	838	382677.277334925171	0
4	853	394141.716813918422	1
4	855	394141.716813918422	0
4	879	406067.037953142618	1
4	881	406067.037953142618	0
4	887	407313.661516184921	1
4	889	407313.661516184921	0
4	905	431423.072185411556	1
4	907	431423.072185411556	0
4	922	437609.322508222659	1
4	924	437609.322508222659	0
4	939	442982.463924703149	1
4	941	442982.463924703149	0
4	963	446403.444119739138	1
4	965	446403.444119739138	0
4	968	447195.686335570056	1
4	973	447342.651281371859	0
4	993	457823.671268326015	1
4	998	458192.333815306808	0
4	1010	459747.193326850538	1
4	1015	460173.836356792179	0
4	1021	461620.203749217002	1
4	1023	461620.203749217002	0
4	1039	478655.607828037477	1
4	1041	478655.607828037477	0
4	1061	493289.017330023693	1
4	1066	493776.113615753268	0
4	1073	495737.182593190323	1
4	1075	495737.182593190323	0
4	1089	499347.744089534694	1
4	1091	499347.744089534694	0
4	1106	508585.982635807384	1
4	1108	508585.982635807384	0
4	1123	514991.385133564034	1
4	1125	514991.385133564034	0
4	1139	518668.46705271154	1
4	1141	518668.46705271154	0
4	1156	525285.498972539099	1
4	1158	525285.498972539099	0
4	1173	534011.239606602045	1
4	1175	534011.239606602045	0
4	1190	546688.023397746889	1
4	1192	546688.023397746889	0
4	1208	563681.699816420633	1
4	1210	563681.699816420633	0
4	1225	569417.477306913586	1
4	1227	569417.477306913586	0
4	1242	579749.000031199846	1
4	1244	579749.000031199846	0
4	1258	583774.9144989192	1
4	1260	583774.9144989192	0
4	1276	600421.220851692577	1
4	1278	600421.220851692577	0
4	1293	605135.420644854081	1
4	1295	605135.420644854081	0
4	1310	619672.997939636916	1
4	1312	619672.997939636916	0
4	1327	624910.941633569749	1
4	1329	624910.941633569749	0
4	1344	636525.046826081682	1
4	1346	636525.046826081682	0
4	1361	647063.617777227053	1
4	1363	647063.617777227053	0
4	1378	652502.526926647302	1
4	1380	652502.526926647302	0
4	1397	676591.739238403859	1
4	1399	676591.739238403859	0
4	1416	710372.388309081226	1
4	1418	710372.388309081226	0
4	1433	714232.108149012608	1
4	1435	714232.108149012608	0
4	1449	719554.151411533142	1
4	1451	719554.151411533142	0
4	1468	741979.83820589086	1
4	1470	741979.83820589086	0
4	1485	755322.53575615539	1
4	1487	755322.53575615539	0
4	1502	762556.738290094174	1
4	1504	762556.738290094174	0
4	1519	768275.182378811875	1
4	1521	768275.182378811875	0
4	1542	783487.630028663157	1
4	1547	784022.989519628092	0
4	1553	786008.540526249007	1
4	1555	786008.540526249007	0
4	1579	807198.029992568287	1
4	1581	807198.029992568287	0
4	1587	808508.426237624768	1
4	1589	808508.426237624768	0
4	1604	817089.477965035141	1
4	1606	817089.477965035141	0
4	1621	827728.645583096682	1
4	1623	827728.645583096682	0
4	1648	854708.395190723059	1
4	1650	854708.395190723059	0
4	1657	855740.30608460405	1
4	1659	855740.30608460405	0
4	1673	859111.360022571391	1
4	1675	859111.360022571391	0
4	1689	863845.056239860639	1
4	1691	863845.056239860639	0
4	1716	916890.154254192743	1
4	1721	917490.963932141348	0
4	1728	919244.406699086081	1
4	1730	919244.406699086081	0
4	1744	926473.713465196881	1
4	1746	926473.713465196881	0
4	1766	934677.540759022899	1
4	1771	935235.421116608295	0
4	1786	937279.606644335863	1
4	1788	937279.606644335863	0
4	1794	938902.568720362045	1
4	1796	938902.568720362045	0
4	1811	945884.583685271952	1
4	1813	945884.583685271952	0
4	1837	964166.262509958715	1
4	1839	964166.262509958715	0
4	1845	965135.145106249817	1
4	1847	965135.145106249817	0
4	1878	979160.596655482303	1
4	1880	979160.596655482303	0
4	1883	979714.283857849293	1
4	1888	980085.062837541329	0
4	1891	980689.80260658813	1
4	1896	980955.98858508743	0
4	1913	1004102.126279377378	1
4	1915	1004102.126279377378	0
4	1931	1023379.288991779662	1
4	1933	1023379.288991779662	0
4	1956	1027251.979869275085	1
4	1958	1027251.979869275085	0
4	1961	1027822.734752509997	1
4	1966	1028104.95460093182	0
4	1980	1031748.606808108542	1
4	1982	1031748.606808108542	0
4	1999	1055201.011901252981	1
4	2001	1055201.011901252981	0
4	2015	1059496.217777144031	1
4	2017	1059496.217777144031	0
4	2032	1062976.844546948081	1
4	2034	1062976.844546948081	0
4	2049	1073286.237234549732	1
4	2051	1073286.237234549732	0
4	2066	1082389.086402642241	1
4	2068	1082389.086402642241	0
4	2083	1093622.399876391121	1
4	2085	1093622.399876391121	0
4	2114	1107766.449065320932	1
4	2119	1108599.468332048661	0
4	2125	1109734.000715963705	1
4	2127	1109734.000715963705	0
4	2130	1110375.012913277133	1
4	2135	1110678.624415564687	0
4	2149	1114213.073588588316	1
4	2151	1114213.073588588316	0
4	2166	1119330.654936571385	1
4	2168	1119330.654936571385	0
4	2183	1128746.11879521947	1
4	2185	1128746.11879521947	0
4	2209	1145244.990234329122	1
4	2211	1145244.990234329122	0
4	2217	1145926.014490298837	1
4	2227	1146947.051363843969	0
4	2233	1148488.687039643319	1
4	2235	1148488.687039643319	0
4	2250	1153661.212904997726	1
4	2252	1153661.212904997726	0
4	2266	1157312.122917686191	1
4	2268	1157312.122917686191	0
5	714	306000	2
5	723	315000	0
5	737	324000	1
5	741	333000	0
5	742	342000	0
5	756	351000	1
5	760	360000	0
5	825	369000	4
5	826	378000	0
5	843	387000	1
5	860	396000	1
5	874	405000	1
5	894	414000	1
5	895	423000	0
5	909	432000	1
5	934	441000	1
5	978	450000	3
5	1003	459000	2
5	1028	468000	1
5	1037	477000	1
5	1046	486000	0
5	1071	495000	2
5	1096	504000	1
5	1118	513000	1
5	1146	522000	2
5	1163	531000	1
5	1180	540000	1
5	1197	549000	1
5	1198	558000	0
5	1220	567000	1
5	1232	576000	1
5	1265	585000	2
5	1266	594000	0
5	1288	603000	1
5	1300	612000	1
5	1317	621000	1
5	1334	630000	1
5	1351	639000	1
5	1368	648000	1
5	1385	657000	1
5	1386	666000	0
5	1395	675000	1
5	1404	684000	0
5	1405	693000	0
5	1406	702000	0
5	1420	711000	1
5	1453	720000	2
5	1457	729000	0
5	1458	738000	0
5	1475	747000	1
5	1489	756000	1
5	1509	765000	1
5	1526	774000	1
5	1535	783000	1
5	1560	792000	1
5	1561	801000	0
5	1594	810000	2
5	1611	819000	1
5	1625	828000	1
5	1629	837000	0
5	1630	846000	0
5	1652	855000	2
5	1693	864000	2
5	1697	873000	0
5	1698	882000	0
5	1699	891000	0
5	1700	900000	0
5	1701	909000	0
5	1723	918000	2
5	1748	927000	1
5	1773	936000	2
5	1809	945000	2
5	1818	954000	0
5	1832	963000	1
5	1852	972000	1
5	1898	981000	3
5	1902	990000	0
5	1903	999000	0
5	1920	1008000	1
5	1921	1017000	0
5	1954	1026000	3
5	1987	1035000	1
5	1988	1044000	0
5	1994	1053000	0
5	2030	1062000	3
5	2044	1071000	0
5	2061	1080000	1
5	2073	1089000	1
5	2090	1098000	1
5	2107	1107000	1
5	2156	1116000	3
5	2173	1125000	1
5	2190	1134000	1
5	2196	1143000	0
5	2248	1152000	4
5	2273	1161000	1
6	714	306000	1
6	723	315000	1
6	737	324000	0
6	741	333000	1
6	742	342000	0
6	756	351000	0
6	760	360000	1
6	825	369000	4
6	826	378000	0
6	843	387000	1
6	860	396000	1
6	874	405000	0
6	894	414000	2
6	895	423000	0
6	909	432000	0
6	934	441000	2
6	978	450000	3
6	1003	459000	0
6	1028	468000	3
6	1037	477000	0
6	1046	486000	1
6	1071	495000	1
6	1096	504000	2
6	1118	513000	1
6	1146	522000	2
6	1163	531000	1
6	1180	540000	1
6	1197	549000	1
6	1198	558000	0
6	1220	567000	1
6	1232	576000	1
6	1265	585000	2
6	1266	594000	0
6	1288	603000	1
6	1300	612000	1
6	1317	621000	1
6	1334	630000	1
6	1351	639000	1
6	1368	648000	1
6	1385	657000	1
6	1386	666000	0
6	1395	675000	0
6	1404	684000	1
6	1405	693000	0
6	1406	702000	0
6	1420	711000	0
6	1453	720000	2
6	1457	729000	1
6	1458	738000	0
6	1475	747000	1
6	1489	756000	0
6	1509	765000	2
6	1526	774000	1
6	1535	783000	0
6	1560	792000	2
6	1561	801000	0
6	1594	810000	2
6	1611	819000	1
6	1625	828000	0
6	1629	837000	1
6	1630	846000	0
6	1652	855000	0
6	1693	864000	3
6	1697	873000	1
6	1698	882000	0
6	1699	891000	0
6	1700	900000	0
6	1701	909000	0
6	1723	918000	0
6	1748	927000	2
6	1773	936000	1
6	1809	945000	3
6	1818	954000	1
6	1832	963000	0
6	1852	972000	2
6	1898	981000	2
6	1902	990000	1
6	1903	999000	0
6	1920	1008000	1
6	1921	1017000	0
6	1954	1026000	1
6	1987	1035000	3
6	1988	1044000	0
6	1994	1053000	0
6	2030	1062000	2
6	2044	1071000	1
6	2061	1080000	1
6	2073	1089000	1
6	2090	1098000	1
6	2107	1107000	0
6	2156	1116000	4
6	2173	1125000	1
6	2190	1134000	1
6	2196	1143000	0
6	2248	1152000	3
6	2273	1161000	2
7	712	305389.445827005643	1
7	715	307177.937699218322	0
7	730	321616.84940091343	1
7	732	323209.079725480628	0
7	749	348647.69632648099	1
7	751	350626.497153314077	0
7	767	361103.357165415144	1
7	775	362167.6427659886	2
7	777	362901.350933959352	1
7	790	363900.133429005771	0
7	794	364610.734985229747	1
7	806	366112.328617589186	0
7	810	366348.589936732204	1
7	817	368075.617515031212	0
7	833	380683.637751438145	1
7	835	382677.277334925171	0
7	850	392461.722036448564	1
7	852	394141.716813918422	0
7	867	404404.629801545841	1
7	876	405710.46843668206	2
7	878	406067.037953142618	1
7	886	407313.661516184921	0
7	902	429583.676114080519	1
7	904	431423.072185411556	0
7	919	435587.459635623083	1
7	921	437609.322508222659	0
7	936	441143.879571795845	1
7	938	442982.463924703149	0
7	955	444631.292279602202	1
7	960	445570.09861444076	2
7	962	446403.444119739138	1
7	967	447195.686335570056	0
7	985	456093.922947189584	1
7	992	457823.671268326015	0
7	996	458192.333815306808	1
7	1009	459747.193326850538	0
7	1013	460173.836356792179	1
7	1020	461620.203749217002	0
7	1035	476612.204551706636	1
7	1038	478655.607828037477	0
7	1053	491528.074823359075	1
7	1060	493289.017330023693	0
7	1064	493776.113615753268	1
7	1072	495737.182593190323	0
7	1086	497730.701847463774	1
7	1088	499347.744089534694	0
7	1103	506558.015852345689	1
7	1105	508585.982635807384	0
7	1120	513091.760177365201	1
7	1122	514991.385133564034	0
7	1136	516834.426905917285	1
7	1138	518668.46705271154	0
7	1153	523386.222674789682	1
7	1155	525285.498972539099	0
7	1170	532137.890401671719	1
7	1172	534011.239606602045	0
7	1187	544849.968030398885	1
7	1189	546688.023397746889	0
7	1205	561946.003882954674	1
7	1207	563681.699816420633	0
7	1222	567485.744612315487	1
7	1224	569417.477306913586	0
7	1239	577740.489049215757	1
7	1241	579749.000031199846	0
7	1255	582150.144843441537	1
7	1257	583774.9144989192	0
7	1273	598745.226424702098	1
7	1275	600421.220851692577	0
7	1290	603515.134572392414	1
7	1292	605135.420644854081	0
7	1307	617814.065215529906	1
7	1309	619672.997939636916	0
7	1324	623245.5366242832	1
7	1326	624910.941633569749	0
7	1341	634997.923723360111	1
7	1343	636525.046826081682	0
7	1358	645073.779242232251	1
7	1360	647063.617777227053	0
7	1375	650650.706008361581	1
7	1377	652502.526926647302	0
7	1393	674727.606647125253	1
7	1396	676591.739238403859	0
7	1413	708169.379482213137	1
7	1415	710372.388309081226	0
7	1430	712373.519698197381	1
7	1432	714232.108149012608	0
7	1446	717861.834163438316	1
7	1448	719554.151411533142	0
7	1465	739977.708045042039	1
7	1467	741979.83820589086	0
7	1482	753611.259350775339	1
7	1484	755322.53575615539	0
7	1499	760926.687420742677	1
7	1501	762556.738290094174	0
7	1516	766439.362312840373	1
7	1518	768275.182378811875	0
7	1533	781721.790011315968	1
7	1541	783487.630028663157	0
7	1545	784022.989519628092	1
7	1552	786008.540526249007	0
7	1568	805527.712849778403	1
7	1576	807034.015891069667	2
7	1578	807198.029992568287	1
7	1586	808508.426237624768	0
7	1601	815209.160854914172	1
7	1603	817089.477965035141	0
7	1618	826032.488885488344	1
7	1620	827728.645583096682	0
7	1640	852940.700012462219	1
7	1645	853901.630994581348	2
7	1647	854708.395190723059	1
7	1656	855740.30608460405	0
7	1670	857521.1455888429	1
7	1672	859111.360022571391	0
7	1686	862164.683815407624	1
7	1688	863845.056239860639	0
7	1708	915131.940907476425	1
7	1715	916890.154254192743	0
7	1719	917490.963932141348	1
7	1727	919244.406699086081	0
7	1741	924915.897968701528	1
7	1743	926473.713465196881	0
7	1758	932885.284701502978	1
7	1765	934677.540759022899	0
7	1769	935235.421116608295	1
7	1783	937128.219497051783	2
7	1785	937279.606644335863	1
7	1793	938902.568720362045	0
7	1807	944199.130243585504	1
7	1810	945884.583685271952	0
7	1828	962356.177178499419	1
7	1834	963388.089507139934	2
7	1836	964166.262509958715	1
7	1844	965135.145106249817	0
7	1865	977336.150091153161	1
7	1870	978237.616849988687	2
7	1875	979124.760025667497	3
7	1877	979160.596655482303	2
7	1882	979714.283857849293	1
7	1890	980689.80260658813	0
7	1910	1002462.930495190919	1
7	1912	1004102.126279377378	0
7	1928	1021502.500423761287	1
7	1930	1023379.288991779662	0
7	1947	1025164.371136388116	1
7	1952	1025970.064436193437	2
7	1955	1027251.979869275085	1
7	1960	1027822.734752509997	0
7	1977	1030069.666040953435	1
7	1979	1031748.606808108542	0
7	1996	1053697.719550699536	1
7	1998	1055201.011901252981	0
7	2012	1057581.564397739922	1
7	2014	1059496.217777144031	0
7	2028	1061405.33411863582	1
7	2031	1062976.844546948081	0
7	2046	1071487.310042700531	1
7	2048	1073286.237234549732	0
7	2063	1080512.214053075384	1
7	2065	1082389.086402642241	0
7	2080	1092088.80173112111	1
7	2082	1093622.399876391121	0
7	2097	1105882.212756016804	1
7	2109	1107727.849377740862	2
7	2113	1107766.449065320932	1
7	2117	1108599.468332048661	2
7	2124	1109734.000715963705	1
7	2129	1110375.012913277133	0
7	2146	1112471.415444875059	1
7	2148	1114213.073588588316	0
7	2163	1117660.762582924681	1
7	2165	1119330.654936571385	0
7	2180	1126690.520011772353	1
7	2182	1128746.11879521947	0
7	2198	1143437.715952141165	1
7	2206	1144352.892553461941	2
7	2208	1145244.990234329122	1
7	2216	1145926.014490298837	0
7	2225	1146947.051363843969	1
7	2232	1148488.687039643319	0
7	2246	1151761.902200572918	1
7	2249	1153661.212904997726	0
7	2263	1155516.078207577829	1
7	2265	1157312.122917686191	0
