version 2
run ResponseMeasurement-146-20170110-19:47:19-22875
attr configname ResponseMeasurement
attr datetime 20170110-19:47:19
attr experiment ResponseMeasurement
attr inifile responseStudy.ini
attr iterationvars ""
attr iterationvars2 $repetition=146
attr measurement ""
attr network controltower.SimNetwork
attr processid 22875
attr repetition 146
attr replication #146
attr resultdir results
attr runnumber 146
attr seedset 146
param SimNetwork.a.parkingLot.parkingDelay "truncnormal(30min, 3min)"
param SimNetwork.a.runway.landingTime "truncnormal(15min, 1.5min)"
param SimNetwork.a.runway.takeoffTime "truncnormal(15min, 1.5min)"
param SimNetwork.a.runway.throughputCheckInterval 150min
param SimNetwork.wg.interArrivalTime exponential(150min)

vector 0  SimNetwork.wg  responseTime:vector  ETV
attr source  responseTimeSignal
vector 5  SimNetwork.a.runway  landedThroughput:vector  ETV
attr source  landedThroughputSignal
vector 6  SimNetwork.a.runway  tookoffThroughput:vector  ETV
attr source  tookoffThroughputSignal
vector 2  SimNetwork.a.landingQueue  queueLength:vector  ETV
attr source  queueLengthSignal
vector 1  SimNetwork.a.landingQueue  queueTime:vector  ETV
attr source  queueTimeSignal
vector 7  SimNetwork.a.parkingLot  parkingOccupancy:vector  ETV
attr source  parkingOccupancy
vector 4  SimNetwork.a.takeoffQueue  queueLength:vector  ETV
attr source  queueLengthSignal
vector 3  SimNetwork.a.takeoffQueue  queueTime:vector  ETV
attr source  queueTimeSignal
0	528	300114.883590254937	18762.608670171
0	549	318271.642298564777	21552.228182945
0	562	321668.581204832945	6994.1753091808
0	580	340352.331201472542	22094.997272638
0	605	350604.249927379301	13997.763435482
0	614	351528.942198374736	4681.2814048134
0	631	364546.781298416646	17232.139903307
0	656	375661.529370627317	14251.028629443
0	672	377705.435260221192	5496.8440543854
0	681	379312.936596072467	5991.512028115
0	706	391847.781735056993	15988.874232193
0	714	393569.180138634947	5553.0018454942
0	735	407661.19296826668	17936.327206693
0	748	411181.744149456255	7112.8025122278
0	775	436730.394211293396	29764.920953793
0	783	437735.045766613621	4945.3650450353
0	802	459584.073827855405	25519.154013293
0	821	486003.407932107426	29928.464450635
0	837	493727.579141008425	11118.122796036
0	856	513459.919986717144	23554.575951217
0	873	528344.191628700221	18712.356520468
0	891	545914.671848369784	21322.76078122
0	911	549477.850919205901	7213.5531624427
0	924	553169.459982330046	7115.4752663259
0	943	583956.28112965113	34913.746359174
0	964	626909.407800041927	46716.215784827
0	989	637429.873237368354	14084.27606883
0	1006	639798.062316347648	5807.3588107606
0	1014	641742.746723708867	6225.8579761407
0	1041	646015.764493870425	8102.9784611096
0	1046	647079.626808041718	4873.9673693853
0	1063	655111.321671837187	12777.508691318
0	1083	687110.682360182088	35673.17019801
0	1104	703732.968674819166	20088.52949402
0	1117	707030.549987091597	7033.1386070325
0	1151	720999.227232043951	18217.155987671
0	1159	721945.339512011825	4701.9340701348
0	1167	722952.400905343637	4910.0991386216
0	1185	740042.397691669251	21801.060242981
0	1205	753104.764189538378	16456.820532151
0	1219	756429.618241372343	7022.7803981767
0	1255	768542.927508525694	15976.687227216
0	1260	769389.198628725299	4861.9675515122
0	1271	770576.39536727972	5954.7937758395
0	1293	774441.93967345465	7551.5501028633
0	1301	775759.100725754323	5450.0417067353
0	1318	784564.562162475271	11855.397116184
0	1336	805891.470672301984	25128.033204167
0	1353	810631.094585167864	8273.3302292207
0	1377	815939.110035777688	8606.560335184
0	1405	819236.865954126776	7159.955255061
0	1410	820070.922852754581	5987.9755218301
0	1418	820972.127233745387	4115.3615342254
0	1436	845388.082264691327	28062.977440544
0	1454	855880.667999459422	14298.292327787
0	1471	864762.915287560822	12556.158408671
0	1499	879959.459238812756	18875.962358815
0	1512	881841.089906547171	6191.0775708717
0	1521	883196.208022599994	5248.6766529913
0	1545	889453.424025298132	9912.88566032
0	1562	891297.693315367026	5890.7062188922
0	1570	893268.569014056299	5640.5010797979
0	1599	914767.533466449791	25167.17242604
0	1612	916459.449185776582	5370.2890143306
0	1629	918783.81746844279	5910.4664909706
0	1637	920716.9819953965	6485.1989226662
0	1654	935121.82933761526	17910.891190565
0	1673	956401.401550663987	24914.83400232
0	1690	969356.451773448803	16843.307537807
0	1717	990986.945990589498	25406.962050631
0	1725	992587.060778218487	4897.287395755
0	1741	998355.745419221653	9353.3827151231
0	1758	1002890.382619999721	8493.2688582822
0	1775	1009618.779516165718	10461.468987107
0	1793	1029260.273229054761	23219.753564755
0	1829	1041718.264367804452	16101.603221516
0	1834	1042646.063434434774	5403.944845622
0	1842	1043789.278706350358	5263.3647562296
0	1859	1051089.576649760563	11298.127312705
0	1884	1058970.568190060752	11409.626607681
0	1892	1060533.957943459974	5227.9413574167
0	1910	1072346.771384673707	15210.931858989
0	1934	1079357.29242812999	10762.380985774
0	1951	1081515.364420142427	5800.5400232313
0	1959	1083080.646147002798	5747.2383683947
0	1976	1096368.585418935048	16769.999111959
0	2003	1120035.564601970294	27170.281858536
0	2011	1121038.414489539524	4596.9718893415
0	2028	1126418.485621938351	8855.4598545644
0	2052	1132956.30775486926	9880.1072038172
0	2061	1134666.873878105533	6105.0330636965
0	2079	1152193.444630114913	21189.633316782
0	2095	1156725.961915619813	8061.9962159562
1	534	314674.405895652159	0
1	551	318271.642298564777	14.308369729991
1	569	336606.48649189737	0
1	586	346847.660793561352	0
1	594	347803.86780298868	489.2264078786
1	620	361410.500741184357	0
1	637	372208.591205835761	0
1	645	373321.424567957453	0
1	661	375858.907502863707	0
1	687	388016.178293140701	0
1	695	389724.865761573597	0
1	720	404068.941637228471	0
1	737	407661.19296826668	695.71971076655
1	756	432789.680721578359	0
1	764	434064.919814562054	0
1	790	456074.943481472498	0
1	809	482609.456344972146	0
1	826	489905.344035499696	0
1	844	509631.835108232112	0
1	862	524591.911067149906	0
1	880	542264.297756763188	0
1	896	546053.984716004119	0
1	913	549477.850919205901	435.31614872852
1	932	580193.192015215181	0
1	953	623345.597168538373	0
1	970	633990.703505587073	0
1	978	635516.888747568205	0
1	994	637912.786032760851	0
1	1019	642205.659438656382	0
1	1027	643095.455485323883	761.64250480451
1	1052	651437.512162172266	0
1	1071	683644.43918079909	0
1	1089	699997.411380059138	0
1	1106	703732.968674819166	950.89743044619
1	1123	717243.405441877052	0
1	1131	718155.311866453825	113.01009973181
1	1139	719173.755111832338	932.41766314398
1	1173	736647.943657386974	0
1	1191	749406.837843195664	0
1	1207	753104.764189538378	538.5239082283
1	1224	764527.231077213109	0
1	1233	765352.729362386239	731.12777094599
1	1241	766890.389570591343	0
1	1273	770576.39536727972	267.3363482607
1	1281	772709.165046291684	0
1	1306	780763.43746813485	0
1	1325	802357.764355947114	0
1	1341	807332.5497005937	0
1	1358	812076.910699065782	0
1	1366	814082.9473309245	0
1	1382	816856.765699519968	0
1	1393	817515.006013719481	189.90118957177
1	1425	841582.375671672126	0
1	1442	852206.756878889824	0
1	1459	861083.49687999752	0
1	1477	875650.012335675456	0
1	1485	877947.53136960873	0
1	1501	879959.459238812756	418.92087383462
1	1526	885406.987096474795	0
1	1534	887628.067934258437	0
1	1550	889600.361040409924	0
1	1577	911089.160171446032	0
1	1585	912873.3509774722	0
1	1601	914767.533466449791	535.75039371949
1	1617	917210.938147050214	0
1	1643	931486.567548344286	0
1	1661	952513.144235641682	0
1	1679	965579.983939958	0
1	1697	987689.773382463444	0
1	1705	989002.362704098563	0
1	1730	994397.113761717485	0
1	1747	999157.310529058221	0
1	1763	1006040.519664300185	0
1	1781	1025616.661146288565	0
1	1799	1037242.118588812801	0
1	1807	1038525.913950120745	0
1	1815	1039791.449337055456	0
1	1848	1047560.941582379564	0
1	1865	1055306.016586043288	0
1	1873	1057135.839525684468	0
1	1898	1068594.91144235565	0
1	1915	1075714.824396911172	0
1	1923	1077333.407778608143	0
1	1939	1079598.586306976121	0
1	1965	1092865.282743433973	0
1	1984	1116441.442600198073	0
1	1992	1117563.025767373908	0
1	2016	1123076.20055105209	0
1	2033	1128561.840814409072	0
1	2041	1131003.811313332579	0
1	2067	1148663.965699663587	0
1	2084	1152836.711444790592	0
2	532	314674.405895652159	1
2	534	314674.405895652159	0
2	546	318257.333928834786	1
2	551	318271.642298564777	0
2	567	336606.48649189737	1
2	569	336606.48649189737	0
2	584	346847.660793561352	1
2	586	346847.660793561352	0
2	589	347314.641395110081	1
2	594	347803.86780298868	0
2	618	361410.500741184357	1
2	620	361410.500741184357	0
2	635	372208.591205835761	1
2	637	372208.591205835761	0
2	643	373321.424567957453	1
2	645	373321.424567957453	0
2	659	375858.907502863707	1
2	661	375858.907502863707	0
2	685	388016.178293140701	1
2	687	388016.178293140701	0
2	693	389724.865761573597	1
2	695	389724.865761573597	0
2	718	404068.941637228471	1
2	720	404068.941637228471	0
2	732	406965.473257500127	1
2	737	407661.19296826668	0
2	754	432789.680721578359	1
2	756	432789.680721578359	0
2	762	434064.919814562054	1
2	764	434064.919814562054	0
2	788	456074.943481472498	1
2	790	456074.943481472498	0
2	807	482609.456344972146	1
2	809	482609.456344972146	0
2	824	489905.344035499696	1
2	826	489905.344035499696	0
2	842	509631.835108232112	1
2	844	509631.835108232112	0
2	860	524591.911067149906	1
2	862	524591.911067149906	0
2	878	542264.297756763188	1
2	880	542264.297756763188	0
2	894	546053.984716004119	1
2	896	546053.984716004119	0
2	908	549042.534770477381	1
2	913	549477.850919205901	0
2	930	580193.192015215181	1
2	932	580193.192015215181	0
2	951	623345.597168538373	1
2	953	623345.597168538373	0
2	968	633990.703505587073	1
2	970	633990.703505587073	0
2	976	635516.888747568205	1
2	978	635516.888747568205	0
2	992	637912.786032760851	1
2	994	637912.786032760851	0
2	1017	642205.659438656382	1
2	1019	642205.659438656382	0
2	1022	642333.812980519372	1
2	1027	643095.455485323883	0
2	1050	651437.512162172266	1
2	1052	651437.512162172266	0
2	1069	683644.43918079909	1
2	1071	683644.43918079909	0
2	1087	699997.411380059138	1
2	1089	699997.411380059138	0
2	1101	702782.071244372974	1
2	1106	703732.968674819166	0
2	1121	717243.405441877052	1
2	1123	717243.405441877052	0
2	1126	718042.301766722018	1
2	1131	718155.311866453825	0
2	1134	718241.337448688362	1
2	1139	719173.755111832338	0
2	1171	736647.943657386974	1
2	1173	736647.943657386974	0
2	1189	749406.837843195664	1
2	1191	749406.837843195664	0
2	1202	752566.240281310075	1
2	1207	753104.764189538378	0
2	1222	764527.231077213109	1
2	1224	764527.231077213109	0
2	1227	764621.601591440249	1
2	1233	765352.729362386239	0
2	1239	766890.389570591343	1
2	1241	766890.389570591343	0
2	1268	770309.059019019015	1
2	1273	770576.39536727972	0
2	1279	772709.165046291684	1
2	1281	772709.165046291684	0
2	1304	780763.43746813485	1
2	1306	780763.43746813485	0
2	1323	802357.764355947114	1
2	1325	802357.764355947114	0
2	1339	807332.5497005937	1
2	1341	807332.5497005937	0
2	1356	812076.910699065782	1
2	1358	812076.910699065782	0
2	1364	814082.9473309245	1
2	1366	814082.9473309245	0
2	1380	816856.765699519968	1
2	1382	816856.765699519968	0
2	1388	817325.10482414771	1
2	1393	817515.006013719481	0
2	1423	841582.375671672126	1
2	1425	841582.375671672126	0
2	1440	852206.756878889824	1
2	1442	852206.756878889824	0
2	1457	861083.49687999752	1
2	1459	861083.49687999752	0
2	1475	875650.012335675456	1
2	1477	875650.012335675456	0
2	1483	877947.53136960873	1
2	1485	877947.53136960873	0
2	1496	879540.538364978135	1
2	1501	879959.459238812756	0
2	1524	885406.987096474795	1
2	1526	885406.987096474795	0
2	1532	887628.067934258437	1
2	1534	887628.067934258437	0
2	1548	889600.361040409924	1
2	1550	889600.361040409924	0
2	1575	911089.160171446032	1
2	1577	911089.160171446032	0
2	1583	912873.3509774722	1
2	1585	912873.3509774722	0
2	1596	914231.783072730306	1
2	1601	914767.533466449791	0
2	1615	917210.938147050214	1
2	1617	917210.938147050214	0
2	1641	931486.567548344286	1
2	1643	931486.567548344286	0
2	1659	952513.144235641682	1
2	1661	952513.144235641682	0
2	1677	965579.983939958	1
2	1679	965579.983939958	0
2	1695	987689.773382463444	1
2	1697	987689.773382463444	0
2	1703	989002.362704098563	1
2	1705	989002.362704098563	0
2	1728	994397.113761717485	1
2	1730	994397.113761717485	0
2	1745	999157.310529058221	1
2	1747	999157.310529058221	0
2	1761	1006040.519664300185	1
2	1763	1006040.519664300185	0
2	1779	1025616.661146288565	1
2	1781	1025616.661146288565	0
2	1797	1037242.118588812801	1
2	1799	1037242.118588812801	0
2	1805	1038525.913950120745	1
2	1807	1038525.913950120745	0
2	1813	1039791.449337055456	1
2	1815	1039791.449337055456	0
2	1846	1047560.941582379564	1
2	1848	1047560.941582379564	0
2	1863	1055306.016586043288	1
2	1865	1055306.016586043288	0
2	1871	1057135.839525684468	1
2	1873	1057135.839525684468	0
2	1896	1068594.91144235565	1
2	1898	1068594.91144235565	0
2	1913	1075714.824396911172	1
2	1915	1075714.824396911172	0
2	1921	1077333.407778608143	1
2	1923	1077333.407778608143	0
2	1937	1079598.586306976121	1
2	1939	1079598.586306976121	0
2	1963	1092865.282743433973	1
2	1965	1092865.282743433973	0
2	1982	1116441.442600198073	1
2	1984	1116441.442600198073	0
2	1990	1117563.025767373908	1
2	1992	1117563.025767373908	0
2	2014	1123076.20055105209	1
2	2016	1123076.20055105209	0
2	2031	1128561.840814409072	1
2	2033	1128561.840814409072	0
2	2039	1131003.811313332579	1
2	2041	1131003.811313332579	0
2	2065	1148663.965699663587	1
2	2067	1148663.965699663587	0
2	2082	1152836.711444790592	1
2	2084	1152836.711444790592	0
3	543	317420.350027108283	0
3	559	320772.403671247407	0
3	577	339412.764960389089	0
3	602	349646.449872923693	0
3	610	350644.584597048227	0
3	628	363720.688857227617	0
3	653	374695.003523656113	0
3	669	376729.239137988937	146.74371225049
3	678	378637.489625018988	0
3	703	390899.876378213632	0
3	711	392603.361496873465	0
3	729	406703.141761545591	0
3	745	410340.625849888901	0
3	772	435726.95478886733	0
3	780	436807.661627126764	0
3	798	458664.627379065563	0
3	817	485198.399869360757	0
3	834	492766.583096063556	0
3	852	512364.69933329678	0
3	870	527479.824696914774	0
3	888	544971.998255140524	0
3	904	548656.469197270944	0
3	921	552353.947259715289	0
3	940	583195.369077670665	0
3	961	625944.859724899419	0
3	986	636636.223293997755	0
3	1002	638909.523190178561	783.85036761165
3	1011	640885.546429810632	0
3	1035	645234.68205526269	0
3	1043	646015.764493870425	544.47576066751
3	1060	654201.78629633701	0
3	1080	686300.964102275339	0
3	1098	702692.215877402741	0
3	1114	706151.780302912265	0
3	1148	720119.793611882478	33.697104793059
3	1156	721006.556150007514	0
3	1164	722162.022490869793	0
3	1182	739319.992649155237	0
3	1199	752136.586383010665	0
3	1215	755677.274449032323	0
3	1249	767714.494877629668	597.42419709845
3	1257	768542.927508525694	358.16862593672
3	1265	769693.055930462209	0
3	1289	773681.546667247727	314.16068536424
3	1298	774896.103772448225	0
3	1315	783580.066228456768	0
3	1333	804954.012817299175	0
3	1349	809706.252639413039	0
3	1374	815031.218312062905	332.28050630499
3	1398	818384.731296140682	1505.6485795608
3	1407	819236.865954126776	36.290433328482
3	1415	820134.020043750852	0
3	1433	844501.972735895257	0
3	1450	854970.620331766062	0
3	1467	863785.90089601019	0
3	1493	878986.318885324502	587.87473074931
3	1509	880816.500386266071	24.125722751516
3	1518	882440.05459595211	0
3	1542	888513.313957040318	493.21694769115
3	1558	890455.32308699077	177.23175623737
3	1567	892303.232755688586	0
3	1593	913839.119322317749	0
3	1609	915682.432783395358	274.15811205383
3	1626	918106.914956366615	616.7876883927
3	1634	919916.414831945487	0
3	1651	934113.773551505151	0
3	1670	955517.678302062476	0
3	1687	968395.40724803558	0
3	1714	990089.723458478689	0
3	1722	991669.261639354919	0
3	1738	997547.126137466572	0
3	1755	1001978.440574673782	0
3	1772	1008622.043354003507	0
3	1790	1028424.463704208952	0
3	1823	1040752.025508921819	907.2909275154
3	1831	1041718.264367804452	244.20754322091
3	1839	1042857.261449807479	0
3	1856	1050219.493560021518	0
3	1881	1058208.300143614656	246.75944691858
3	1889	1059704.063136994302	0
3	1907	1071432.637845384761	0
3	1931	1078572.933470000587	0
3	1948	1080517.700353815272	345.20069171365
3	1956	1082390.863366458136	0
3	1973	1095621.06041535248	0
3	2000	1119017.418715163637	0
3	2008	1120255.850214086271	0
3	2025	1125535.58713722397	0
3	2049	1132017.497109554108	448.29509960531
3	2057	1133765.751042529989	0
3	2075	1151255.715901962275	0
3	2092	1155752.882796705664	0
4	541	317420.350027108283	1
4	543	317420.350027108283	0
4	557	320772.403671247407	1
4	559	320772.403671247407	0
4	575	339412.764960389089	1
4	577	339412.764960389089	0
4	600	349646.449872923693	1
4	602	349646.449872923693	0
4	608	350644.584597048227	1
4	610	350644.584597048227	0
4	626	363720.688857227617	1
4	628	363720.688857227617	0
4	651	374695.003523656113	1
4	653	374695.003523656113	0
4	664	376582.495425738445	1
4	669	376729.239137988937	0
4	676	378637.489625018988	1
4	678	378637.489625018988	0
4	701	390899.876378213632	1
4	703	390899.876378213632	0
4	709	392603.361496873465	1
4	711	392603.361496873465	0
4	727	406703.141761545591	1
4	729	406703.141761545591	0
4	743	410340.625849888901	1
4	745	410340.625849888901	0
4	770	435726.95478886733	1
4	772	435726.95478886733	0
4	778	436807.661627126764	1
4	780	436807.661627126764	0
4	796	458664.627379065563	1
4	798	458664.627379065563	0
4	815	485198.399869360757	1
4	817	485198.399869360757	0
4	832	492766.583096063556	1
4	834	492766.583096063556	0
4	850	512364.69933329678	1
4	852	512364.69933329678	0
4	868	527479.824696914774	1
4	870	527479.824696914774	0
4	886	544971.998255140524	1
4	888	544971.998255140524	0
4	902	548656.469197270944	1
4	904	548656.469197270944	0
4	919	552353.947259715289	1
4	921	552353.947259715289	0
4	938	583195.369077670665	1
4	940	583195.369077670665	0
4	959	625944.859724899419	1
4	961	625944.859724899419	0
4	984	636636.223293997755	1
4	986	636636.223293997755	0
4	997	638125.672822566907	1
4	1002	638909.523190178561	0
4	1009	640885.546429810632	1
4	1011	640885.546429810632	0
4	1033	645234.68205526269	1
4	1035	645234.68205526269	0
4	1038	645471.288733202918	1
4	1043	646015.764493870425	0
4	1058	654201.78629633701	1
4	1060	654201.78629633701	0
4	1078	686300.964102275339	1
4	1080	686300.964102275339	0
4	1096	702692.215877402741	1
4	1098	702692.215877402741	0
4	1112	706151.780302912265	1
4	1114	706151.780302912265	0
4	1143	720086.096507089419	1
4	1148	720119.793611882478	0
4	1154	721006.556150007514	1
4	1156	721006.556150007514	0
4	1162	722162.022490869793	1
4	1164	722162.022490869793	0
4	1180	739319.992649155237	1
4	1182	739319.992649155237	0
4	1197	752136.586383010665	1
4	1199	752136.586383010665	0
4	1213	755677.274449032323	1
4	1215	755677.274449032323	0
4	1244	767117.070680531223	1
4	1249	767714.494877629668	0
4	1252	768184.75888258897	1
4	1257	768542.927508525694	0
4	1263	769693.055930462209	1
4	1265	769693.055930462209	0
4	1284	773367.385981883484	1
4	1289	773681.546667247727	0
4	1296	774896.103772448225	1
4	1298	774896.103772448225	0
4	1313	783580.066228456768	1
4	1315	783580.066228456768	0
4	1331	804954.012817299175	1
4	1333	804954.012817299175	0
4	1347	809706.252639413039	1
4	1349	809706.252639413039	0
4	1369	814698.937805757915	1
4	1374	815031.218312062905	0
4	1385	816879.082716579853	1
4	1398	818384.731296140682	0
4	1402	819200.575520798294	1
4	1407	819236.865954126776	0
4	1413	820134.020043750852	1
4	1415	820134.020043750852	0
4	1431	844501.972735895257	1
4	1433	844501.972735895257	0
4	1448	854970.620331766062	1
4	1450	854970.620331766062	0
4	1465	863785.90089601019	1
4	1467	863785.90089601019	0
4	1488	878398.444154575193	1
4	1493	878986.318885324502	0
4	1504	880792.374663514555	1
4	1509	880816.500386266071	0
4	1516	882440.05459595211	1
4	1518	882440.05459595211	0
4	1537	888020.097009349165	1
4	1542	888513.313957040318	0
4	1553	890278.091330753399	1
4	1558	890455.32308699077	0
4	1565	892303.232755688586	1
4	1567	892303.232755688586	0
4	1591	913839.119322317749	1
4	1593	913839.119322317749	0
4	1604	915408.274671341527	1
4	1609	915682.432783395358	0
4	1620	917490.127267973915	1
4	1626	918106.914956366615	0
4	1632	919916.414831945487	1
4	1634	919916.414831945487	0
4	1649	934113.773551505151	1
4	1651	934113.773551505151	0
4	1668	955517.678302062476	1
4	1670	955517.678302062476	0
4	1685	968395.40724803558	1
4	1687	968395.40724803558	0
4	1712	990089.723458478689	1
4	1714	990089.723458478689	0
4	1720	991669.261639354919	1
4	1722	991669.261639354919	0
4	1736	997547.126137466572	1
4	1738	997547.126137466572	0
4	1753	1001978.440574673782	1
4	1755	1001978.440574673782	0
4	1770	1008622.043354003507	1
4	1772	1008622.043354003507	0
4	1788	1028424.463704208952	1
4	1790	1028424.463704208952	0
4	1818	1039844.734581406416	1
4	1823	1040752.025508921819	0
4	1826	1041474.056824583539	1
4	1831	1041718.264367804452	0
4	1837	1042857.261449807479	1
4	1839	1042857.261449807479	0
4	1854	1050219.493560021518	1
4	1856	1050219.493560021518	0
4	1876	1057961.540696696071	1
4	1881	1058208.300143614656	0
4	1887	1059704.063136994302	1
4	1889	1059704.063136994302	0
4	1905	1071432.637845384761	1
4	1907	1071432.637845384761	0
4	1929	1078572.933470000587	1
4	1931	1078572.933470000587	0
4	1943	1080172.499662101619	1
4	1948	1080517.700353815272	0
4	1954	1082390.863366458136	1
4	1956	1082390.863366458136	0
4	1971	1095621.06041535248	1
4	1973	1095621.06041535248	0
4	1998	1119017.418715163637	1
4	2000	1119017.418715163637	0
4	2006	1120255.850214086271	1
4	2008	1120255.850214086271	0
4	2023	1125535.58713722397	1
4	2025	1125535.58713722397	0
4	2044	1131569.202009948795	1
4	2049	1132017.497109554108	0
4	2055	1133765.751042529989	1
4	2057	1133765.751042529989	0
4	2073	1151255.715901962275	1
4	2075	1151255.715901962275	0
4	2090	1155752.882796705664	1
4	2092	1155752.882796705664	0
5	530	306000	1
5	536	315000	0
5	564	324000	2
5	565	333000	0
5	582	342000	1
5	612	351000	2
5	616	360000	0
5	633	369000	1
5	674	378000	3
5	683	387000	0
5	716	396000	2
5	722	405000	0
5	750	414000	2
5	751	423000	0
5	752	432000	0
5	785	441000	2
5	786	450000	0
5	800	459000	1
5	804	468000	0
5	805	477000	0
5	819	486000	1
5	839	495000	1
5	840	504000	0
5	854	513000	1
5	858	522000	0
5	875	531000	1
5	876	540000	0
5	906	549000	2
5	926	558000	1
5	927	567000	0
5	928	576000	0
5	945	585000	1
5	946	594000	0
5	947	603000	0
5	948	612000	0
5	949	621000	0
5	966	630000	1
5	1004	639000	3
5	1048	648000	2
5	1065	657000	1
5	1066	666000	0
5	1067	675000	0
5	1073	684000	0
5	1085	693000	1
5	1094	702000	1
5	1119	711000	1
5	1141	720000	2
5	1169	729000	1
5	1178	738000	1
5	1187	747000	0
5	1217	756000	2
5	1229	765000	0
5	1291	774000	5
5	1311	783000	1
5	1320	792000	0
5	1321	801000	0
5	1351	810000	2
5	1400	819000	4
5	1420	828000	0
5	1421	837000	0
5	1438	846000	1
5	1452	855000	1
5	1469	864000	1
5	1473	873000	0
5	1514	882000	3
5	1560	891000	3
5	1572	900000	0
5	1573	909000	0
5	1622	918000	3
5	1639	927000	1
5	1656	936000	1
5	1657	945000	0
5	1666	954000	1
5	1675	963000	0
5	1692	972000	1
5	1693	981000	0
5	1707	990000	1
5	1743	999000	2
5	1768	1008000	2
5	1777	1017000	0
5	1783	1026000	0
5	1795	1035000	1
5	1844	1044000	3
5	1861	1053000	1
5	1894	1062000	2
5	1903	1071000	1
5	1941	1080000	2
5	1961	1089000	1
5	1978	1098000	1
5	1979	1107000	0
5	1980	1116000	0
5	2021	1125000	3
5	2059	1134000	2
5	2063	1143000	0
5	2077	1152000	1
5	2097	1161000	1
6	530	306000	1
6	536	315000	0
6	564	324000	2
6	565	333000	0
6	582	342000	1
6	612	351000	1
6	616	360000	1
6	633	369000	1
6	674	378000	2
6	683	387000	1
6	716	396000	2
6	722	405000	0
6	750	414000	2
6	751	423000	0
6	752	432000	0
6	785	441000	2
6	786	450000	0
6	800	459000	0
6	804	468000	1
6	805	477000	0
6	819	486000	0
6	839	495000	2
6	840	504000	0
6	854	513000	0
6	858	522000	1
6	875	531000	1
6	876	540000	0
6	906	549000	1
6	926	558000	2
6	927	567000	0
6	928	576000	0
6	945	585000	1
6	946	594000	0
6	947	603000	0
6	948	612000	0
6	949	621000	0
6	966	630000	1
6	1004	639000	1
6	1048	648000	4
6	1065	657000	1
6	1066	666000	0
6	1067	675000	0
6	1073	684000	0
6	1085	693000	1
6	1094	702000	0
6	1119	711000	2
6	1141	720000	0
6	1169	729000	3
6	1178	738000	0
6	1187	747000	1
6	1217	756000	1
6	1229	765000	1
6	1291	774000	3
6	1311	783000	2
6	1320	792000	1
6	1321	801000	0
6	1351	810000	1
6	1400	819000	2
6	1420	828000	3
6	1421	837000	0
6	1438	846000	1
6	1452	855000	0
6	1469	864000	1
6	1473	873000	1
6	1514	882000	2
6	1560	891000	2
6	1572	900000	2
6	1573	909000	0
6	1622	918000	2
6	1639	927000	2
6	1656	936000	1
6	1657	945000	0
6	1666	954000	0
6	1675	963000	1
6	1692	972000	1
6	1693	981000	0
6	1707	990000	0
6	1743	999000	3
6	1768	1008000	1
6	1777	1017000	1
6	1783	1026000	0
6	1795	1035000	1
6	1844	1044000	3
6	1861	1053000	1
6	1894	1062000	2
6	1903	1071000	0
6	1941	1080000	2
6	1961	1089000	2
6	1978	1098000	1
6	1979	1107000	0
6	1980	1116000	0
6	2021	1125000	2
6	2059	1134000	2
6	2063	1143000	1
6	2077	1152000	0
6	2097	1161000	2
7	538	315571.513685828984	1
7	540	317420.350027108283	0
7	554	319192.414565819932	1
7	556	320772.403671247407	0
7	572	337645.768558190968	1
7	574	339412.764960389089	0
7	592	347803.86780298868	1
7	597	348657.501250904812	2
7	599	349646.449872923693	1
7	607	350644.584597048227	0
7	623	362435.795171884555	1
7	625	363720.688857227617	0
7	640	373065.588132646906	1
7	648	374406.70385470649	2
7	650	374695.003523656113	1
7	663	376582.495425738445	0
7	667	376729.239137988937	1
7	675	378637.489625018988	0
7	690	388962.058394840131	1
7	698	390712.004403751264	2
7	700	390899.876378213632	1
7	708	392603.361496873465	0
7	724	405044.448724249096	1
7	726	406703.141761545591	0
7	740	408656.870263205803	1
7	742	410340.625849888901	0
7	759	433729.359950278365	1
7	767	434954.001486392722	2
7	769	435726.95478886733	1
7	777	436807.661627126764	0
7	793	456831.704126118411	1
7	795	458664.627379065563	0
7	812	483476.006933221791	1
7	814	485198.399869360757	0
7	829	490812.147330285883	1
7	831	492766.583096063556	0
7	847	510649.860539487807	1
7	849	512364.69933329678	0
7	865	525565.416175764046	1
7	867	527479.824696914774	0
7	883	543238.871290270285	1
7	885	544971.998255140524	0
7	899	546868.421362595635	1
7	901	548656.469197270944	0
7	916	550434.971140088042	1
7	918	552353.947259715289	0
7	935	581188.881901076512	1
7	937	583195.369077670665	0
7	956	624253.332740614087	1
7	958	625944.859724899419	0
7	973	634991.183974630599	1
7	981	636293.050256848879	2
7	983	636636.223293997755	1
7	996	638125.672822566907	0
7	1000	638909.523190178561	1
7	1008	640885.546429810632	0
7	1025	643095.455485323883	1
7	1030	643835.391917421211	2
7	1032	645234.68205526269	1
7	1037	645471.288733202918	0
7	1055	652368.705459123959	1
7	1057	654201.78629633701	0
7	1075	684601.805625654572	1
7	1077	686300.964102275339	0
7	1092	700877.401016915174	1
7	1095	702692.215877402741	0
7	1109	704556.441498155496	1
7	1111	706151.780302912265	0
7	1129	718155.311866453825	1
7	1137	719173.755111832338	2
7	1142	720086.096507089419	1
7	1146	720119.793611882478	2
7	1153	721006.556150007514	1
7	1161	722162.022490869793	0
7	1176	737669.381710807608	1
7	1179	739319.992649155237	0
7	1194	750359.554101827411	1
7	1196	752136.586383010665	0
7	1210	753881.113005712914	1
7	1212	755677.274449032323	0
7	1231	765352.729362386239	1
7	1236	766096.829605880817	2
7	1243	767117.070680531223	1
7	1247	767714.494877629668	2
7	1251	768184.75888258897	1
7	1262	769693.055930462209	0
7	1276	771551.753957898682	1
7	1283	773367.385981883484	0
7	1287	773681.546667247727	1
7	1295	774896.103772448225	0
7	1309	781769.153327882706	1
7	1312	783580.066228456768	0
7	1328	803355.670628914066	1
7	1330	804954.012817299175	0
7	1344	808148.785882673308	1
7	1346	809706.252639413039	0
7	1361	812929.447419848668	1
7	1368	814698.937805757915	0
7	1372	815031.218312062905	1
7	1384	816879.082716579853	0
7	1391	817515.006013719481	1
7	1396	818384.731296140682	2
7	1401	819200.575520798294	1
7	1412	820134.020043750852	0
7	1428	842548.394352574688	1
7	1430	844501.972735895257	0
7	1445	853036.961360561256	1
7	1447	854970.620331766062	0
7	1462	862089.818698113427	1
7	1464	863785.90089601019	0
7	1480	876495.267269606505	1
7	1487	878398.444154575193	0
7	1491	878986.318885324502	1
7	1503	880792.374663514555	0
7	1507	880816.500386266071	1
7	1515	882440.05459595211	0
7	1529	886317.805947550945	1
7	1536	888020.097009349165	0
7	1540	888513.313957040318	1
7	1552	890278.091330753399	0
7	1556	890455.32308699077	1
7	1564	892303.232755688586	0
7	1580	912127.097846601675	1
7	1588	913726.219984527816	2
7	1590	913839.119322317749	1
7	1603	915408.274671341527	0
7	1607	915682.432783395358	1
7	1619	917490.127267973915	0
7	1624	918106.914956366615	1
7	1631	919916.414831945487	0
7	1646	932317.474986775694	1
7	1648	934113.773551505151	0
7	1664	953478.95095175016	1
7	1667	955517.678302062476	0
7	1682	966617.231736085477	1
7	1684	968395.40724803558	0
7	1700	988462.788614383287	1
7	1709	990014.983015936705	2
7	1711	990089.723458478689	1
7	1719	991669.261639354919	0
7	1733	995395.280434053281	1
7	1735	997547.126137466572	0
7	1750	1000029.606261469826	1
7	1752	1001978.440574673782	0
7	1766	1006965.940658188011	1
7	1769	1008622.043354003507	0
7	1785	1026569.300422494928	1
7	1787	1028424.463704208952	0
7	1802	1038043.074302795443	1
7	1810	1039279.178937292118	2
7	1817	1039844.734581406416	1
7	1821	1040752.025508921819	2
7	1825	1041474.056824583539	1
7	1836	1042857.261449807479	0
7	1851	1048411.429622766234	1
7	1853	1050219.493560021518	0
7	1868	1056280.742333585715	1
7	1875	1057961.540696696071	0
7	1879	1058208.300143614656	1
7	1886	1059704.063136994302	0
7	1901	1069540.472620800752	1
7	1904	1071432.637845384761	0
7	1918	1076600.677791528993	1
7	1926	1078192.410191758639	2
7	1928	1078572.933470000587	1
7	1942	1080172.499662101619	0
7	1946	1080517.700353815272	1
7	1953	1082390.863366458136	0
7	1968	1093860.169502988946	1
7	1970	1095621.06041535248	0
7	1987	1117373.178019548432	1
7	1995	1118372.270098231006	2
7	1997	1119017.418715163637	1
7	2005	1120255.850214086271	0
7	2019	1123882.609624137504	1
7	2022	1125535.58713722397	0
7	2036	1129473.062668164251	1
7	2043	1131569.202009948795	0
7	2047	1132017.497109554108	1
7	2054	1133765.751042529989	0
7	2070	1149614.834296366746	1
7	2072	1151255.715901962275	0
7	2087	1153886.015774297514	1
7	2089	1155752.882796705664	0
