version 2
run ResponseMeasurement-46-20170110-19:46:43-22775
attr configname ResponseMeasurement
attr datetime 20170110-19:46:43
attr experiment ResponseMeasurement
attr inifile responseStudy.ini
attr iterationvars ""
attr iterationvars2 $repetition=46
attr measurement ""
attr network controltower.SimNetwork
attr processid 22775
attr repetition 46
attr replication #46
attr resultdir results
attr runnumber 46
attr seedset 46
param SimNetwork.a.parkingLot.parkingDelay "truncnormal(30min, 3min)"
param SimNetwork.a.runway.landingTime "truncnormal(15min, 1.5min)"
param SimNetwork.a.runway.takeoffTime "truncnormal(15min, 1.5min)"
param SimNetwork.a.runway.throughputCheckInterval 150min
param SimNetwork.wg.interArrivalTime exponential(150min)

vector 0  SimNetwork.wg  responseTime:vector  ETV
attr source  responseTimeSignal
vector 2  SimNetwork.a.landingQueue  queueLength:vector  ETV
attr source  queueLengthSignal
vector 1  SimNetwork.a.landingQueue  queueTime:vector  ETV
attr source  queueTimeSignal
vector 7  SimNetwork.a.parkingLot  parkingOccupancy:vector  ETV
attr source  parkingOccupancy
vector 5  SimNetwork.a.runway  landedThroughput:vector  ETV
attr source  landedThroughputSignal
vector 6  SimNetwork.a.runway  tookoffThroughput:vector  ETV
attr source  tookoffThroughputSignal
vector 4  SimNetwork.a.takeoffQueue  queueLength:vector  ETV
attr source  queueLengthSignal
vector 3  SimNetwork.a.takeoffQueue  queueTime:vector  ETV
attr source  queueTimeSignal
0	528	300555.373285666948	15112.523057713
0	545	307940.884642738966	11205.812876535
0	561	312967.342506024793	8529.9318878977
0	579	332592.685374696823	23266.341275942
0	597	342113.599911033862	13209.942549221
0	624	347665.50549643377	8929.0654115091
0	629	348571.354179817624	4618.31707142
0	646	357375.309204294088	12209.252730377
0	668	412954.002200300822	59660.095464834
0	685	416551.703821465791	7258.7861219965
0	701	422844.196916976357	9744.3692812354
0	729	428834.808327703451	8991.8574616847
0	737	429703.856031142082	4452.6201123016
0	751	433101.399079570336	7130.1121147508
0	768	444352.060309219991	14704.616867323
0	784	448642.458603992923	8012.1455963505
0	808	516032.073990384993	70911.857937981
0	824	519697.275637414087	7426.5500473243
0	852	527020.931652009299	10951.098155681
0	857	528009.579369804129	4768.7066523219
0	882	535298.184887839896	11813.404658457
0	890	537314.92503172898	5893.4145238021
0	907	542552.891868885288	8931.4447868749
0	924	551293.508390589669	12357.540442729
0	941	562766.943283868459	15108.10237989
0	958	567425.716079730531	8127.7395398984
0	982	574978.838270226302	11130.615941402
0	991	576281.066171728977	5020.2695657516
0	1008	592198.919559111691	19149.869947543
0	1025	599216.135216057997	10649.512343455
0	1053	609300.79790067059	13750.906115451
0	1066	611220.508309100707	5858.9317608147
0	1078	612878.473676592517	5646.8186754143
0	1091	616228.715577994184	7779.0036598887
0	1108	627759.868866042683	15150.920992616
0	1134	646840.099294013289	22866.203945521
0	1143	649048.452378199578	6107.0171135989
0	1165	704776.709238027849	59706.411176303
0	1190	711616.243235124507	10196.710794905
0	1198	713102.721767475988	4840.5710247135
0	1223	725604.761096955174	16181.191236734
0	1231	727081.841380740008	4488.9850703947
0	1249	738637.590653336564	15325.703996642
0	1266	747018.309159648656	11932.998490359
0	1284	767861.006922391086	24172.286568962
0	1312	776603.367800299794	12549.047746034
0	1320	777348.962370275308	4261.4374438061
0	1333	780689.273529131415	7121.6780741656
0	1350	787731.934701938829	10507.732254054
0	1376	809271.267418113418	25240.384800882
0	1385	810620.156996720091	5097.0532830565
0	1410	820616.144149468644	13776.573135451
0	1418	822573.656207392017	5697.2645113751
0	1438	830923.154836532952	11854.568296345
0	1451	834639.176431831313	7934.598489254
0	1471	869486.681757254918	39179.016183008
0	1488	877848.895955497217	11748.478479687
0	1513	885216.252393974499	10936.766038604
0	1521	886873.878613887048	5784.5325987253
0	1539	903421.836908031866	19990.822841503
0	1556	912149.199424718787	12258.333388517
0	1572	917173.704750517146	8579.0425221799
0	1590	928669.702662504793	15454.046001242
0	1614	933963.380756528984	8589.3191339633
0	1622	935822.103205481413	5679.875672921
0	1649	958744.03400997421	26739.796567516
0	1657	960640.264394900929	5568.7060822411
0	1676	982410.224619334925	25463.238429385
0	1692	988029.413309761762	9092.64699664
0	1710	1001845.749866240519	17517.992338898
0	1726	1005547.33343771842	7636.7520986145
0	1743	1010963.347433046051	8824.0131289563
0	1762	1041033.906002500229	34245.102226203
0	1782	1046396.505565113365	9060.461867029
0	1795	1050163.248816236303	7240.2124759401
0	1820	1058611.018774762563	12631.639901712
0	1828	1059495.292291609946	4478.8386975198
0	1845	1069885.34040124573	14064.326494905
0	1864	1092413.585190667764	26051.11271637
0	1881	1100315.981216960661	11414.062898391
0	1905	1105173.129267272649	8494.1860465258
0	1913	1106378.553802952815	5098.1955918907
0	1930	1110757.080376948546	7809.6248890207
0	1946	1114197.771476262654	6961.0387079588
0	1963	1120458.898441563569	9614.6086900967
0	1981	1135153.657165051148	18092.081553658
1	533	304437.410618127085	0
1	550	309326.344098754547	0
1	568	328903.657361813155	0
1	585	338736.440084924705	0
1	602	343953.037108397623	0
1	610	345166.056473916636	0
1	635	353293.906735466634	0
1	657	409292.917699469266	0
1	673	413099.827635740934	0
1	690	419842.95086601874	0
1	707	425251.235918840434	0
1	715	426117.455022177105	146.16805735753
1	739	429703.856031142082	56.412589244767
1	756	440630.313007642425	0
1	773	445120.216052403805	0
1	796	512270.725590089805	0
1	813	516069.833496328544	0
1	830	523240.872717482236	0
1	838	523984.241894357792	499.46166497497
1	863	531421.51050792687	0
1	871	533621.447082010376	0
1	895	538935.967947861132	0
1	912	547658.840903978232	0
1	930	559297.976539832132	0
1	946	563848.222328824112	0
1	963	571260.796605977366	0
1	971	573049.049611568489	0
1	997	588566.622872603105	0
1	1014	595549.891785219335	0
1	1031	605361.576548286045	0
1	1039	607231.65500117822	0
1	1055	609300.79790067059	851.08598256514
1	1080	612878.473676592517	269.52580316607
1	1097	623973.895348492143	0
1	1115	642941.435264600671	0
1	1123	645070.298061725202	0
1	1153	701419.53244021981	0
1	1170	708262.150742762456	0
1	1178	709423.569860221025	0
1	1204	722592.856310345295	0
1	1212	723413.352040172889	101.46538347801
1	1237	735085.310669289214	0
1	1254	743688.72035342945	0
1	1272	764054.32005426551	0
1	1289	773087.52492646923	0
1	1297	773846.260015336771	278.66456037091
1	1322	777348.962370275308	124.7599223903
1	1339	784030.88261723105	0
1	1357	805523.10371366359	0
1	1365	806839.571014018001	0
1	1390	816876.391696016955	0
1	1399	819068.586540187942	0
1	1423	826704.57794257734	0
1	1440	830923.154836532952	615.48926228563
1	1460	866100.417475810329	0
1	1477	874279.486355370087	0
1	1493	881089.346015161707	0
1	1502	883431.014066528459	0
1	1527	899890.866036202009	0
1	1544	908594.662228337209	0
1	1561	913215.656661262847	0
1	1578	925374.061622565645	0
1	1595	930142.227532560421	0
1	1603	932004.23744245818	0
1	1630	955071.558312659824	0
1	1638	956946.986189950179	0
1	1664	978936.766313121751	0
1	1681	984327.757527342491	0
1	1698	997910.581339103913	0
1	1715	1002139.334304089788	0
1	1731	1006788.803776297526	0
1	1751	1037336.043698084318	0
1	1767	1042923.036340296182	0
1	1784	1046396.505565113365	417.12669206264
1	1801	1055016.453594090128	0
1	1809	1055888.134777707573	67.120871366684
1	1834	1066362.472474297629	0
1	1852	1088901.918318569325	0
1	1869	1096678.943220746833	0
1	1886	1101280.358211062081	0
1	1894	1102947.455487927838	0
1	1919	1107236.732768303871	0
1	1935	1110844.289751466856	0
1	1952	1117061.575611393166	0
1	1969	1131433.771926399734	0
1	1988	1160715.689502376438	0
2	531	304437.410618127085	1
2	533	304437.410618127085	0
2	548	309326.344098754547	1
2	550	309326.344098754547	0
2	566	328903.657361813155	1
2	568	328903.657361813155	0
2	583	338736.440084924705	1
2	585	338736.440084924705	0
2	600	343953.037108397623	1
2	602	343953.037108397623	0
2	608	345166.056473916636	1
2	610	345166.056473916636	0
2	633	353293.906735466634	1
2	635	353293.906735466634	0
2	655	409292.917699469266	1
2	657	409292.917699469266	0
2	671	413099.827635740934	1
2	673	413099.827635740934	0
2	688	419842.95086601874	1
2	690	419842.95086601874	0
2	705	425251.235918840434	1
2	707	425251.235918840434	0
2	710	425971.286964819571	1
2	715	426117.455022177105	0
2	734	429647.443441897315	1
2	739	429703.856031142082	0
2	754	440630.313007642425	1
2	756	440630.313007642425	0
2	771	445120.216052403805	1
2	773	445120.216052403805	0
2	794	512270.725590089805	1
2	796	512270.725590089805	0
2	811	516069.833496328544	1
2	813	516069.833496328544	0
2	828	523240.872717482236	1
2	830	523240.872717482236	0
2	833	523484.780229382822	1
2	838	523984.241894357792	0
2	861	531421.51050792687	1
2	863	531421.51050792687	0
2	869	533621.447082010376	1
2	871	533621.447082010376	0
2	893	538935.967947861132	1
2	895	538935.967947861132	0
2	910	547658.840903978232	1
2	912	547658.840903978232	0
2	928	559297.976539832132	1
2	930	559297.976539832132	0
2	944	563848.222328824112	1
2	946	563848.222328824112	0
2	961	571260.796605977366	1
2	963	571260.796605977366	0
2	969	573049.049611568489	1
2	971	573049.049611568489	0
2	995	588566.622872603105	1
2	997	588566.622872603105	0
2	1012	595549.891785219335	1
2	1014	595549.891785219335	0
2	1029	605361.576548286045	1
2	1031	605361.576548286045	0
2	1037	607231.65500117822	1
2	1039	607231.65500117822	0
2	1050	608449.711918105451	1
2	1055	609300.79790067059	0
2	1075	612608.947873426445	1
2	1080	612878.473676592517	0
2	1095	623973.895348492143	1
2	1097	623973.895348492143	0
2	1113	642941.435264600671	1
2	1115	642941.435264600671	0
2	1121	645070.298061725202	1
2	1123	645070.298061725202	0
2	1151	701419.53244021981	1
2	1153	701419.53244021981	0
2	1168	708262.150742762456	1
2	1170	708262.150742762456	0
2	1176	709423.569860221025	1
2	1178	709423.569860221025	0
2	1202	722592.856310345295	1
2	1204	722592.856310345295	0
2	1207	723311.886656694874	1
2	1212	723413.352040172889	0
2	1235	735085.310669289214	1
2	1237	735085.310669289214	0
2	1252	743688.72035342945	1
2	1254	743688.72035342945	0
2	1270	764054.32005426551	1
2	1272	764054.32005426551	0
2	1287	773087.52492646923	1
2	1289	773087.52492646923	0
2	1292	773567.595454965861	1
2	1297	773846.260015336771	0
2	1317	777224.202447885008	1
2	1322	777348.962370275308	0
2	1337	784030.88261723105	1
2	1339	784030.88261723105	0
2	1355	805523.10371366359	1
2	1357	805523.10371366359	0
2	1363	806839.571014018001	1
2	1365	806839.571014018001	0
2	1388	816876.391696016955	1
2	1390	816876.391696016955	0
2	1397	819068.586540187942	1
2	1399	819068.586540187942	0
2	1421	826704.57794257734	1
2	1423	826704.57794257734	0
2	1435	830307.665574247325	1
2	1440	830923.154836532952	0
2	1458	866100.417475810329	1
2	1460	866100.417475810329	0
2	1475	874279.486355370087	1
2	1477	874279.486355370087	0
2	1491	881089.346015161707	1
2	1493	881089.346015161707	0
2	1500	883431.014066528459	1
2	1502	883431.014066528459	0
2	1525	899890.866036202009	1
2	1527	899890.866036202009	0
2	1542	908594.662228337209	1
2	1544	908594.662228337209	0
2	1559	913215.656661262847	1
2	1561	913215.656661262847	0
2	1576	925374.061622565645	1
2	1578	925374.061622565645	0
2	1593	930142.227532560421	1
2	1595	930142.227532560421	0
2	1601	932004.23744245818	1
2	1603	932004.23744245818	0
2	1628	955071.558312659824	1
2	1630	955071.558312659824	0
2	1636	956946.986189950179	1
2	1638	956946.986189950179	0
2	1662	978936.766313121751	1
2	1664	978936.766313121751	0
2	1679	984327.757527342491	1
2	1681	984327.757527342491	0
2	1696	997910.581339103913	1
2	1698	997910.581339103913	0
2	1713	1002139.334304089788	1
2	1715	1002139.334304089788	0
2	1729	1006788.803776297526	1
2	1731	1006788.803776297526	0
2	1749	1037336.043698084318	1
2	1751	1037336.043698084318	0
2	1765	1042923.036340296182	1
2	1767	1042923.036340296182	0
2	1779	1045979.378873050722	1
2	1784	1046396.505565113365	0
2	1799	1055016.453594090128	1
2	1801	1055016.453594090128	0
2	1804	1055821.013906340889	1
2	1809	1055888.134777707573	0
2	1832	1066362.472474297629	1
2	1834	1066362.472474297629	0
2	1850	1088901.918318569325	1
2	1852	1088901.918318569325	0
2	1867	1096678.943220746833	1
2	1869	1096678.943220746833	0
2	1884	1101280.358211062081	1
2	1886	1101280.358211062081	0
2	1892	1102947.455487927838	1
2	1894	1102947.455487927838	0
2	1917	1107236.732768303871	1
2	1919	1107236.732768303871	0
2	1933	1110844.289751466856	1
2	1935	1110844.289751466856	0
2	1950	1117061.575611393166	1
2	1952	1117061.575611393166	0
2	1967	1131433.771926399734	1
2	1969	1131433.771926399734	0
2	1986	1160715.689502376438	1
2	1988	1160715.689502376438	0
3	542	307034.321577485177	0
3	558	312065.489524016354	0
3	576	331726.902490310475	0
3	593	341226.362114826123	0
3	618	346724.515620746708	0
3	626	347665.50549643377	110.11576527323
3	643	356400.613296975803	0
3	665	412131.061306333386	0
3	682	415647.149032104453	0
3	698	421886.167873522379	0
3	723	427973.40516224389	0
3	731	428834.808327703451	112.86197016425
3	748	432275.676915176177	0
3	765	443503.000096134897	0
3	781	447770.858423470329	0
3	805	515038.604114739999	0
3	821	518869.543577752325	0
3	846	526035.993973728918	0
3	854	527020.931652009299	251.09991936195
3	879	534491.161391719405	542.5615991346
3	887	536464.78986011694	0
3	904	541602.410423647892	0
3	921	550585.123945524269	0
3	938	561949.013256497125	0
3	954	566512.58570711977	0
3	979	573949.053944047541	0
3	987	575318.279605570288	0
3	1005	591286.703217147943	0
3	1022	598320.230992635886	0
3	1047	608283.676845053898	0
3	1063	610158.6510514124	506.38031524929
3	1071	611937.193272019034	0
3	1088	615341.742039640405	0
3	1105	626863.824510067364	0
3	1131	645803.558460916638	0
3	1140	648018.905023215696	0
3	1162	703841.479112262146	0
3	1186	710766.84759155351	0
3	1195	712302.835996071691	0
3	1220	724726.820088609833	0
3	1228	726263.907247604733	0
3	1245	737682.468139814647	0
3	1262	746295.013960082724	0
3	1281	766987.169125774869	0
3	1306	775721.171541215898	0
3	1314	776603.367800299794	321.99618694517
3	1330	779912.252967294542	0
3	1347	786677.626694755518	0
3	1373	808385.0811811615	0
3	1381	809596.482911419203	0
3	1407	819786.860552296622	234.99499055728
3	1415	821730.676495185478	0
3	1432	829885.865904732184	0
3	1448	833739.063559795476	0
3	1468	868819.569325853962	0
3	1485	876888.689052264232	0
3	1510	884327.288541291068	445.01622751972
3	1518	886122.285862860083	0
3	1536	902678.974380056877	0
3	1553	911223.542105585421	0
3	1569	916176.35850798242	0
3	1587	927799.294417344541	0
3	1611	933060.804178447575	0
3	1619	934966.875859761638	0
3	1646	957839.50889022537	119.53074516476
3	1654	959688.9269811041	0
3	1673	981515.756519916286	0
3	1689	987081.066192007701	0
3	1707	1000878.73812921597	0
3	1723	1004762.316223924726	0
3	1740	1009953.728942811537	0
3	1759	1040101.220466300945	0
3	1776	1045448.504812766386	0
3	1792	1049178.972617247533	0
3	1817	1057681.956872384719	0
3	1825	1058614.284185481649	0
3	1842	1068967.115064202711	0
3	1861	1091500.247931363185	0
3	1878	1099437.308219293616	0
3	1902	1104191.931325505652	0
3	1910	1105691.926999840948	0
3	1927	1109906.565154029245	0
3	1943	1113186.011349270824	0
3	1960	1119564.015239128023	0
3	1978	1134131.399441287586	0
3	1997	1163579.78563916917	0
4	540	307034.321577485177	1
4	542	307034.321577485177	0
4	556	312065.489524016354	1
4	558	312065.489524016354	0
4	574	331726.902490310475	1
4	576	331726.902490310475	0
4	591	341226.362114826123	1
4	593	341226.362114826123	0
4	616	346724.515620746708	1
4	618	346724.515620746708	0
4	621	347555.389731160544	1
4	626	347665.50549643377	0
4	641	356400.613296975803	1
4	643	356400.613296975803	0
4	663	412131.061306333386	1
4	665	412131.061306333386	0
4	680	415647.149032104453	1
4	682	415647.149032104453	0
4	696	421886.167873522379	1
4	698	421886.167873522379	0
4	721	427973.40516224389	1
4	723	427973.40516224389	0
4	726	428721.946357539197	1
4	731	428834.808327703451	0
4	746	432275.676915176177	1
4	748	432275.676915176177	0
4	763	443503.000096134897	1
4	765	443503.000096134897	0
4	779	447770.858423470329	1
4	781	447770.858423470329	0
4	803	515038.604114739999	1
4	805	515038.604114739999	0
4	819	518869.543577752325	1
4	821	518869.543577752325	0
4	844	526035.993973728918	1
4	846	526035.993973728918	0
4	849	526769.831732647348	1
4	854	527020.931652009299	0
4	874	533948.599792584807	1
4	879	534491.161391719405	0
4	885	536464.78986011694	1
4	887	536464.78986011694	0
4	902	541602.410423647892	1
4	904	541602.410423647892	0
4	919	550585.123945524269	1
4	921	550585.123945524269	0
4	936	561949.013256497125	1
4	938	561949.013256497125	0
4	952	566512.58570711977	1
4	954	566512.58570711977	0
4	977	573949.053944047541	1
4	979	573949.053944047541	0
4	985	575318.279605570288	1
4	987	575318.279605570288	0
4	1003	591286.703217147943	1
4	1005	591286.703217147943	0
4	1020	598320.230992635886	1
4	1022	598320.230992635886	0
4	1045	608283.676845053898	1
4	1047	608283.676845053898	0
4	1058	609652.270736163109	1
4	1063	610158.6510514124	0
4	1069	611937.193272019034	1
4	1071	611937.193272019034	0
4	1086	615341.742039640405	1
4	1088	615341.742039640405	0
4	1103	626863.824510067364	1
4	1105	626863.824510067364	0
4	1129	645803.558460916638	1
4	1131	645803.558460916638	0
4	1138	648018.905023215696	1
4	1140	648018.905023215696	0
4	1160	703841.479112262146	1
4	1162	703841.479112262146	0
4	1184	710766.84759155351	1
4	1186	710766.84759155351	0
4	1193	712302.835996071691	1
4	1195	712302.835996071691	0
4	1218	724726.820088609833	1
4	1220	724726.820088609833	0
4	1226	726263.907247604733	1
4	1228	726263.907247604733	0
4	1243	737682.468139814647	1
4	1245	737682.468139814647	0
4	1260	746295.013960082724	1
4	1262	746295.013960082724	0
4	1279	766987.169125774869	1
4	1281	766987.169125774869	0
4	1304	775721.171541215898	1
4	1306	775721.171541215898	0
4	1309	776281.371613354619	1
4	1314	776603.367800299794	0
4	1328	779912.252967294542	1
4	1330	779912.252967294542	0
4	1345	786677.626694755518	1
4	1347	786677.626694755518	0
4	1371	808385.0811811615	1
4	1373	808385.0811811615	0
4	1379	809596.482911419203	1
4	1381	809596.482911419203	0
4	1402	819551.865561739343	1
4	1407	819786.860552296622	0
4	1413	821730.676495185478	1
4	1415	821730.676495185478	0
4	1430	829885.865904732184	1
4	1432	829885.865904732184	0
4	1446	833739.063559795476	1
4	1448	833739.063559795476	0
4	1466	868819.569325853962	1
4	1468	868819.569325853962	0
4	1483	876888.689052264232	1
4	1485	876888.689052264232	0
4	1505	883882.272313771343	1
4	1510	884327.288541291068	0
4	1516	886122.285862860083	1
4	1518	886122.285862860083	0
4	1534	902678.974380056877	1
4	1536	902678.974380056877	0
4	1551	911223.542105585421	1
4	1553	911223.542105585421	0
4	1567	916176.35850798242	1
4	1569	916176.35850798242	0
4	1585	927799.294417344541	1
4	1587	927799.294417344541	0
4	1609	933060.804178447575	1
4	1611	933060.804178447575	0
4	1617	934966.875859761638	1
4	1619	934966.875859761638	0
4	1641	957719.978145060605	1
4	1646	957839.50889022537	0
4	1652	959688.9269811041	1
4	1654	959688.9269811041	0
4	1671	981515.756519916286	1
4	1673	981515.756519916286	0
4	1687	987081.066192007701	1
4	1689	987081.066192007701	0
4	1705	1000878.73812921597	1
4	1707	1000878.73812921597	0
4	1721	1004762.316223924726	1
4	1723	1004762.316223924726	0
4	1738	1009953.728942811537	1
4	1740	1009953.728942811537	0
4	1757	1040101.220466300945	1
4	1759	1040101.220466300945	0
4	1774	1045448.504812766386	1
4	1776	1045448.504812766386	0
4	1790	1049178.972617247533	1
4	1792	1049178.972617247533	0
4	1815	1057681.956872384719	1
4	1817	1057681.956872384719	0
4	1823	1058614.284185481649	1
4	1825	1058614.284185481649	0
4	1840	1068967.115064202711	1
4	1842	1068967.115064202711	0
4	1859	1091500.247931363185	1
4	1861	1091500.247931363185	0
4	1876	1099437.308219293616	1
4	1878	1099437.308219293616	0
4	1900	1104191.931325505652	1
4	1902	1104191.931325505652	0
4	1908	1105691.926999840948	1
4	1910	1105691.926999840948	0
4	1925	1109906.565154029245	1
4	1927	1109906.565154029245	0
4	1941	1113186.011349270824	1
4	1943	1113186.011349270824	0
4	1958	1119564.015239128023	1
4	1960	1119564.015239128023	0
4	1976	1134131.399441287586	1
4	1978	1134131.399441287586	0
4	1995	1163579.78563916917	1
4	1997	1163579.78563916917	0
5	538	306000	2
5	563	315000	1
5	564	324000	0
5	581	333000	1
5	595	342000	1
5	631	351000	2
5	648	360000	1
5	649	369000	0
5	650	378000	0
5	651	387000	0
5	652	396000	0
5	653	405000	0
5	678	414000	2
5	703	423000	1
5	744	432000	3
5	758	441000	0
5	786	450000	2
5	787	459000	0
5	788	468000	0
5	789	477000	0
5	790	486000	0
5	791	495000	0
5	792	504000	0
5	798	513000	0
5	826	522000	2
5	859	531000	2
5	900	540000	3
5	917	549000	1
5	926	558000	0
5	956	567000	2
5	989	576000	2
5	993	585000	0
5	1010	594000	1
5	1027	603000	1
5	1073	612000	3
5	1093	621000	1
5	1110	630000	1
5	1111	639000	0
5	1136	648000	2
5	1145	657000	0
5	1146	666000	0
5	1147	675000	0
5	1148	684000	0
5	1149	693000	0
5	1155	702000	0
5	1188	711000	3
5	1200	720000	0
5	1233	729000	2
5	1247	738000	1
5	1264	747000	1
5	1268	756000	0
5	1277	765000	1
5	1299	774000	1
5	1335	783000	2
5	1352	792000	1
5	1353	801000	0
5	1383	810000	2
5	1395	819000	1
5	1428	828000	2
5	1453	837000	1
5	1454	846000	0
5	1455	855000	0
5	1456	864000	0
5	1473	873000	1
5	1498	882000	2
5	1523	891000	1
5	1529	900000	0
5	1546	909000	1
5	1574	918000	2
5	1583	927000	1
5	1624	936000	2
5	1625	945000	0
5	1626	954000	0
5	1659	963000	2
5	1660	972000	0
5	1669	981000	1
5	1694	990000	1
5	1703	999000	1
5	1736	1008000	2
5	1745	1017000	0
5	1746	1026000	0
5	1747	1035000	0
5	1772	1044000	2
5	1797	1053000	1
5	1830	1062000	2
5	1847	1071000	1
5	1848	1080000	0
5	1854	1089000	0
5	1874	1098000	2
5	1915	1107000	2
5	1948	1116000	2
5	1965	1125000	1
5	1974	1134000	1
5	1983	1143000	0
5	1984	1152000	0
5	1990	1161000	0
6	538	306000	1
6	563	315000	2
6	564	324000	0
6	581	333000	1
6	595	342000	0
6	631	351000	3
6	648	360000	1
6	649	369000	0
6	650	378000	0
6	651	387000	0
6	652	396000	0
6	653	405000	0
6	678	414000	1
6	703	423000	2
6	744	432000	2
6	758	441000	1
6	786	450000	2
6	787	459000	0
6	788	468000	0
6	789	477000	0
6	790	486000	0
6	791	495000	0
6	792	504000	0
6	798	513000	0
6	826	522000	2
6	859	531000	2
6	900	540000	2
6	917	549000	1
6	926	558000	1
6	956	567000	1
6	989	576000	2
6	993	585000	1
6	1010	594000	1
6	1027	603000	1
6	1073	612000	2
6	1093	621000	2
6	1110	630000	1
6	1111	639000	0
6	1136	648000	1
6	1145	657000	1
6	1146	666000	0
6	1147	675000	0
6	1148	684000	0
6	1149	693000	0
6	1155	702000	0
6	1188	711000	1
6	1200	720000	2
6	1233	729000	2
6	1247	738000	0
6	1264	747000	1
6	1268	756000	1
6	1277	765000	0
6	1299	774000	1
6	1335	783000	3
6	1352	792000	1
6	1353	801000	0
6	1383	810000	1
6	1395	819000	1
6	1428	828000	2
6	1453	837000	2
6	1454	846000	0
6	1455	855000	0
6	1456	864000	0
6	1473	873000	1
6	1498	882000	1
6	1523	891000	2
6	1529	900000	0
6	1546	909000	1
6	1574	918000	2
6	1583	927000	0
6	1624	936000	3
6	1625	945000	0
6	1626	954000	0
6	1659	963000	2
6	1660	972000	0
6	1669	981000	0
6	1694	990000	2
6	1703	999000	0
6	1736	1008000	2
6	1745	1017000	1
6	1746	1026000	0
6	1747	1035000	0
6	1772	1044000	1
6	1797	1053000	2
6	1830	1062000	2
6	1847	1071000	1
6	1848	1080000	0
6	1854	1089000	0
6	1874	1098000	1
6	1915	1107000	3
6	1948	1116000	2
6	1965	1125000	1
6	1974	1134000	0
6	1983	1143000	1
6	1984	1152000	0
6	1990	1161000	0
7	536	305209.683719599714	1
7	539	307034.321577485177	0
7	553	310286.102422139254	1
7	555	312065.489524016354	0
7	571	329698.352903182215	1
7	573	331726.902490310475	0
7	588	339624.137256105164	1
7	590	341226.362114826123	0
7	605	344894.177009202429	1
7	613	345844.458700860656	2
7	615	346724.515620746708	1
7	620	347555.389731160544	0
7	638	354345.80409065881	1
7	640	356400.613296975803	0
7	660	410167.369518348497	1
7	662	412131.061306333386	0
7	676	413934.541600295455	1
7	679	415647.149032104453	0
7	693	420711.862483523648	1
7	695	421886.167873522379	0
7	713	426117.455022177105	1
7	718	426851.743194471925	2
7	720	427973.40516224389	1
7	725	428721.946357539197	0
7	742	430478.797031563538	1
7	745	432275.676915176177	0
7	760	441629.643911204086	1
7	762	443503.000096134897	0
7	776	446182.814484281501	1
7	778	447770.858423470329	0
7	800	513025.216442122035	1
7	802	515038.604114739999	0
7	816	517049.617984369823	1
7	818	518869.543577752325	0
7	836	523984.241894357792	1
7	841	524969.455415629107	2
7	843	526035.993973728918	1
7	848	526769.831732647348	0
7	866	532194.068741546044	1
7	873	533948.599792584807	0
7	877	534491.161391719405	1
7	884	536464.78986011694	0
7	898	539681.440591167812	1
7	901	541602.410423647892	0
7	915	548529.683361312749	1
7	918	550585.123945524269	0
7	933	560142.44801125543	1
7	935	561949.013256497125	0
7	949	564760.180279282434	1
7	951	566512.58570711977	0
7	966	572192.498722867727	1
7	974	573866.57460534137	2
7	976	573949.053944047541	1
7	984	575318.279605570288	0
7	1000	589603.730027644331	1
7	1002	591286.703217147943	0
7	1017	596352.481147062917	1
7	1019	598320.230992635886	0
7	1034	606288.864636087298	1
7	1042	607997.28317841521	2
7	1044	608283.676845053898	1
7	1057	609652.270736163109	0
7	1061	610158.6510514124	1
7	1068	611937.193272019034	0
7	1083	613716.804983723085	1
7	1085	615341.742039640405	0
7	1100	624861.537768721854	1
7	1102	626863.824510067364	0
7	1118	643808.905271729392	1
7	1126	645798.03043304619	2
7	1128	645803.558460916638	1
7	1137	648018.905023215696	0
7	1157	702217.230611858684	1
7	1159	703841.479112262146	0
7	1173	709137.163735682189	1
7	1181	710368.561056636062	2
7	1183	710766.84759155351	1
7	1192	712302.835996071691	0
7	1210	723413.352040172889	1
7	1215	724338.994355619414	2
7	1217	724726.820088609833	1
7	1225	726263.907247604733	0
7	1240	735869.557539776105	1
7	1242	737682.468139814647	0
7	1257	744615.030774696263	1
7	1259	746295.013960082724	0
7	1275	764979.910334369792	1
7	1278	766987.169125774869	0
7	1295	773846.260015336771	1
7	1301	774754.615901922389	2
7	1303	775721.171541215898	1
7	1308	776281.371613354619	0
7	1325	778268.00744144478	1
7	1327	779912.252967294542	0
7	1342	784952.000351857736	1
7	1344	786677.626694755518	0
7	1360	806422.14186464102	1
7	1368	807836.40773921019	2
7	1370	808385.0811811615	1
7	1378	809596.482911419203	0
7	1393	817715.1419770781	1
7	1401	819551.865561739343	0
7	1405	819786.860552296622	1
7	1412	821730.676495185478	0
7	1426	827709.107289441692	1
7	1429	829885.865904732184	0
7	1443	831819.939488152567	1
7	1445	833739.063559795476	0
7	1463	866997.011338566545	1
7	1465	868819.569325853962	0
7	1480	875121.089712239698	1
7	1482	876888.689052264232	0
7	1496	881934.949273966075	1
7	1504	883882.272313771343	0
7	1508	884327.288541291068	1
7	1515	886122.285862860083	0
7	1531	900844.24949101704	1
7	1533	902678.974380056877	0
7	1548	909374.470009835758	1
7	1550	911223.542105585421	0
7	1564	914073.339893048584	1
7	1566	916176.35850798242	0
7	1581	926237.527282817218	1
7	1584	927799.294417344541	0
7	1598	931178.352920323277	1
7	1606	932956.589419302406	2
7	1608	933060.804178447575	1
7	1616	934966.875859761638	0
7	1633	955932.820925061753	1
7	1640	957719.978145060605	0
7	1644	957839.50889022537	1
7	1651	959688.9269811041	0
7	1667	979868.388267047865	1
7	1670	981515.756519916286	0
7	1684	985270.970971069124	1
7	1686	987081.066192007701	0
7	1701	998877.380048034693	1
7	1704	1000878.73812921597	0
7	1718	1002883.149019859812	1
7	1720	1004762.316223924726	0
7	1734	1007863.657884208001	1
7	1737	1009953.728942811537	0
7	1754	1038111.595477450622	1
7	1756	1040101.220466300945	0
7	1770	1043791.818005611795	1
7	1773	1045448.504812766386	0
7	1787	1047190.193720700245	1
7	1789	1049178.972617247533	0
7	1807	1055888.134777707573	1
7	1812	1056807.227235641613	2
7	1814	1057681.956872384719	1
7	1822	1058614.284185481649	0
7	1837	1067335.759960046939	1
7	1839	1068967.115064202711	0
7	1856	1089905.816046367635	1
7	1858	1091500.247931363185	0
7	1872	1097711.590861601858	1
7	1875	1099437.308219293616	0
7	1889	1102145.76797238239	1
7	1897	1103734.725025568372	2
7	1899	1104191.931325505652	1
7	1907	1105691.926999840948	0
7	1922	1108293.308439167156	1
7	1924	1109906.565154029245	0
7	1938	1111716.147923937286	1
7	1940	1113186.011349270824	0
7	1955	1117950.503325965667	1
7	1957	1119564.015239128023	0
7	1972	1132410.850093933745	1
7	1975	1134131.399441287586	0
7	1992	1161661.583010456591	1
7	1994	1163579.78563916917	0
