version 2
run ResponseMeasurement-43-20170110-19:46:42-22772
attr configname ResponseMeasurement
attr datetime 20170110-19:46:42
attr experiment ResponseMeasurement
attr inifile responseStudy.ini
attr iterationvars ""
attr iterationvars2 $repetition=43
attr measurement ""
attr network controltower.SimNetwork
attr processid 22772
attr repetition 43
attr replication #43
attr resultdir results
attr runnumber 43
attr seedset 43
param SimNetwork.a.parkingLot.parkingDelay "truncnormal(30min, 3min)"
param SimNetwork.a.runway.landingTime "truncnormal(15min, 1.5min)"
param SimNetwork.a.runway.takeoffTime "truncnormal(15min, 1.5min)"
param SimNetwork.a.runway.throughputCheckInterval 150min
param SimNetwork.wg.interArrivalTime exponential(150min)

vector 7  SimNetwork.a.parkingLot  parkingOccupancy:vector  ETV
attr source  parkingOccupancy
vector 4  SimNetwork.a.takeoffQueue  queueLength:vector  ETV
attr source  queueLengthSignal
vector 3  SimNetwork.a.takeoffQueue  queueTime:vector  ETV
attr source  queueTimeSignal
vector 0  SimNetwork.wg  responseTime:vector  ETV
attr source  responseTimeSignal
vector 5  SimNetwork.a.runway  landedThroughput:vector  ETV
attr source  landedThroughputSignal
vector 6  SimNetwork.a.runway  tookoffThroughput:vector  ETV
attr source  tookoffThroughputSignal
vector 2  SimNetwork.a.landingQueue  queueLength:vector  ETV
attr source  queueLengthSignal
vector 1  SimNetwork.a.landingQueue  queueTime:vector  ETV
attr source  queueTimeSignal
0	560	301718.224799956296	24435.753024888
0	577	310526.547602441252	12061.900373264
0	594	315993.302201807779	8916.7406771284
0	622	324835.035579783133	12656.701367182
0	627	325780.247119213223	4435.8929157941
0	654	332308.698045131166	9959.7511267886
0	660	333134.45894176038	4773.884234553
0	678	352858.338164471586	23937.403446579
0	694	359714.168059837386	10137.35326144
0	733	368824.572480012326	12589.426253387
0	747	370561.292282161877	6444.2239317149
0	752	371481.447065743922	5561.4595800577
0	760	372392.271694634345	6237.2871186375
0	779	397215.06105437326	28887.187995027
0	795	402822.345344616874	9467.6914852008
0	812	407294.697134841124	8063.2679924188
0	831	412268.839622106362	8710.2593179766
0	845	415819.26779844791	6815.0852313191
0	864	448014.828751621426	36524.496830368
0	881	455777.194136262646	11632.061946115
0	898	465551.159307873045	13598.906842667
0	915	469916.913249827453	7968.9587278784
0	931	473934.267373270928	7602.5388725804
0	951	485577.849551264223	15364.837132081
0	965	489225.566623750463	7438.5510063605
0	981	493245.095124965497	7817.4175080339
0	1013	534606.267530429786	45161.510460219
0	1026	536325.641673574885	6040.3852009762
0	1053	539303.635011103599	6639.757987997
0	1059	540128.166960180344	6446.7572121772
0	1067	541119.439185573492	4457.6562346339
0	1084	552757.352690384083	15670.15967965
0	1101	562492.901726153316	13204.992460911
0	1119	580520.679610163262	21728.663105551
0	1145	600480.864775564883	23151.751052946
0	1153	602652.678526227066	6418.6742905831
0	1170	607152.394099664452	8406.342822832
0	1188	622425.131539542984	18927.419611202
0	1216	630563.148885392255	11770.406699687
0	1221	631336.656091836151	4711.7339070755
0	1237	638259.548259796283	11084.319504799
0	1255	648424.030150626114	13912.014872961
0	1278	661888.183547048542	17198.045531579
0	1299	665280.874587729	6568.1093621209
0	1305	666301.095644399824	5068.2226937326
0	1324	671084.383945355746	9553.3511380781
0	1337	674480.146045411634	6878.9399015512
0	1363	685220.296028740878	14771.089549483
0	1371	686192.736790151654	4747.3755792579
0	1389	709673.88623242847	26866.087811632
0	1415	724637.162697365377	18558.724076654
0	1431	727130.715325015064	6114.521174054
0	1439	728638.671941261496	5749.8136092854
0	1456	733520.950959967886	8213.4843287132
0	1474	748170.138244893605	18051.139168666
0	1490	752782.792399446471	8408.6381509278
0	1511	773329.063828955577	24057.797921139
0	1528	777073.052137785832	7541.2508088132
0	1541	780999.645370801335	7922.9731673458
0	1574	788975.926090060711	12586.000482947
0	1585	790194.270543105298	4910.7803753863
0	1590	791152.949920542382	5388.6074299843
0	1607	797825.081319938696	11400.801568458
0	1624	808777.460418314899	14501.542376772
0	1641	818170.003208075077	13175.285594446
0	1659	836698.873883545198	22112.858474947
0	1676	845002.62526219712	12087.330835744
0	1703	870565.866523515285	29149.343929246
0	1711	871661.105775083342	4561.8600252389
0	1738	891985.020259719251	23997.734474609
0	1746	893817.320442039104	5728.5867064856
0	1779	901050.709611168545	10981.515304252
0	1790	902078.674467055244	4894.2632146076
0	1803	903781.715898602568	6131.3751857807
0	1811	905493.481211815767	6805.5950646261
0	1828	910371.917413909054	8946.928497276
0	1849	934668.69034867364	27674.241993769
0	1874	938500.658133317037	7554.6982254227
0	1879	939542.38534287744	5024.1417995179
0	1895	943191.381811556999	7562.7137114014
0	1913	956480.075937408679	16525.596389658
0	1931	973068.628391318812	20357.763829417
0	1947	976858.523551928182	7696.9391922263
0	1964	984956.899203173924	11569.491643578
0	1981	991989.551925891813	11041.929101101
0	1998	1002169.636076826172	13775.732270831
0	2014	1005980.78043031531	7817.8948463878
0	2033	1026295.603780409763	23611.13942028
0	2050	1041147.817617744401	18533.370377422
0	2073	1098663.581149537037	60917.690623868
0	2090	1107201.68259349628	12289.34933383
0	2108	1125988.853388779458	21783.446126667
0	2124	1130270.283469192493	7960.2531017268
0	2149	1135725.692746048811	9265.7312188967
0	2157	1137010.826760780056	4645.9132499615
0	2175	1152867.311624690042	19352.606897835
0	2191	1159977.134590988647	10994.456809232
1	566	307076.561524679355	0
1	582	312178.334212600833	0
1	599	321344.354203419127	0
1	607	322348.94691834253	0
1	632	328360.574707207358	0
1	640	329237.36104798452	316.42633009239
1	666	349576.814798397573	0
1	683	356235.146226625355	0
1	700	364117.068350446937	0
1	708	365919.987485686226	0
1	719	366879.566508661877	724.58193266508
1	735	368824.572480012326	496.69942066608
1	767	393354.653859416047	0
1	784	399231.429142422373	0
1	800	403558.580304129745	0
1	817	409004.182567128835	0
1	833	412268.839622106362	778.5077008532
1	853	444145.132190147532	0
1	870	451952.252465206526	0
1	887	461947.954521949092	0
1	903	466331.728500690501	0
1	920	470213.01241918301	0
1	937	481787.015617389962	0
1	953	485577.849551264223	150.17193433267
1	970	489444.757070210763	0
1	990	530285.256472598643	0
1	999	532663.877023106562	0
1	1015	534606.267530429786	924.85778242661
1	1031	536661.782950939561	0
1	1042	537485.459082052313	398.26607131861
1	1073	549287.909265241826	0
1	1090	558792.016504611784	0
1	1108	577329.113722619068	0
1	1126	596234.004235643964	0
1	1134	598746.051276832451	0
1	1159	603497.711928340641	0
1	1176	618792.742185704911	0
1	1193	626624.922184760667	0
1	1201	627621.986011470765	446.75725647349
1	1226	634512.015277665363	0
1	1243	644690.138015469329	0
1	1261	658712.765225608069	0
1	1280	661888.183547048542	655.31059638135
1	1285	662778.999729684866	1247.9669224072
1	1310	667601.206143860396	0
1	1326	671084.383945355746	635.17746609771
1	1343	681445.361210893768	0
1	1351	682807.798420796749	0
1	1378	706078.438620711665	0
1	1396	721016.194150961037	0
1	1404	722888.858331976102	0
1	1420	725307.46663125468	0
1	1445	730118.999076227122	0
1	1462	744374.154248518678	0
1	1479	749271.265907817008	0
1	1497	769531.801328972672	0
1	1513	773329.063828955577	252.39162550007
1	1530	777073.052137785832	683.1265306721
1	1547	785283.490167718961	0
1	1555	786069.998171966503	305.65568140842
1	1563	787214.745431809135	790.46568032804
1	1596	794275.918041543354	0
1	1613	804994.71761362896	0
1	1630	814586.015408598206	0
1	1648	832915.294426452714	0
1	1665	841416.522594269606	0
1	1684	867099.245749844406	0
1	1692	867987.28578511009	0
1	1718	888088.73373555351	0
1	1726	890069.194306916535	0
1	1751	897184.411252447631	0
1	1759	898100.05940339329	449.71869057145
1	1767	899105.794306334798	417.90815914509
1	1792	902078.674467055244	653.68555042214
1	1816	906994.448354904614	0
1	1835	930945.959907894302	0
1	1851	934668.69034867364	150.44680531406
1	1859	935628.668100155641	0
1	1884	939954.479547750418	0
1	1901	952710.864561901548	0
1	1919	969161.584359701844	0
1	1936	973387.407559595603	0
1	1952	980947.622824791293	0
1	1969	988393.903805995013	0
1	1986	998162.885583927467	0
1	2003	1002684.464360129919	0
1	2021	1022614.447240322255	0
1	2039	1037745.890525669453	0
1	2061	1094912.333259666205	0
1	2078	1104205.407262112857	0
1	2096	1122310.030367465665	0
1	2113	1126459.961527152124	0
1	2129	1132364.91351081859	0
1	2137	1133514.704726855284	0
1	2163	1148982.677781756498	0
1	2180	1156303.450394302422	0
2	564	307076.561524679355	1
2	566	307076.561524679355	0
2	580	312178.334212600833	1
2	582	312178.334212600833	0
2	597	321344.354203419127	1
2	599	321344.354203419127	0
2	605	322348.94691834253	1
2	607	322348.94691834253	0
2	630	328360.574707207358	1
2	632	328360.574707207358	0
2	635	328920.934717892129	1
2	640	329237.36104798452	0
2	664	349576.814798397573	1
2	666	349576.814798397573	0
2	681	356235.146226625355	1
2	683	356235.146226625355	0
2	698	364117.068350446937	1
2	700	364117.068350446937	0
2	706	365919.987485686226	1
2	708	365919.987485686226	0
2	711	366154.984575996795	1
2	719	366879.566508661877	0
2	727	368327.873059346251	1
2	735	368824.572480012326	0
2	765	393354.653859416047	1
2	767	393354.653859416047	0
2	782	399231.429142422373	1
2	784	399231.429142422373	0
2	798	403558.580304129745	1
2	800	403558.580304129745	0
2	815	409004.182567128835	1
2	817	409004.182567128835	0
2	828	411490.331921253164	1
2	833	412268.839622106362	0
2	851	444145.132190147532	1
2	853	444145.132190147532	0
2	868	451952.252465206526	1
2	870	451952.252465206526	0
2	885	461947.954521949092	1
2	887	461947.954521949092	0
2	901	466331.728500690501	1
2	903	466331.728500690501	0
2	918	470213.01241918301	1
2	920	470213.01241918301	0
2	935	481787.015617389962	1
2	937	481787.015617389962	0
2	948	485427.677616931554	1
2	953	485577.849551264223	0
2	968	489444.757070210763	1
2	970	489444.757070210763	0
2	988	530285.256472598643	1
2	990	530285.256472598643	0
2	997	532663.877023106562	1
2	999	532663.877023106562	0
2	1010	533681.409748003178	1
2	1015	534606.267530429786	0
2	1029	536661.782950939561	1
2	1031	536661.782950939561	0
2	1034	537087.193010733706	1
2	1042	537485.459082052313	0
2	1071	549287.909265241826	1
2	1073	549287.909265241826	0
2	1088	558792.016504611784	1
2	1090	558792.016504611784	0
2	1106	577329.113722619068	1
2	1108	577329.113722619068	0
2	1124	596234.004235643964	1
2	1126	596234.004235643964	0
2	1132	598746.051276832451	1
2	1134	598746.051276832451	0
2	1157	603497.711928340641	1
2	1159	603497.711928340641	0
2	1174	618792.742185704911	1
2	1176	618792.742185704911	0
2	1191	626624.922184760667	1
2	1193	626624.922184760667	0
2	1196	627175.228754997279	1
2	1201	627621.986011470765	0
2	1224	634512.015277665363	1
2	1226	634512.015277665363	0
2	1241	644690.138015469329	1
2	1243	644690.138015469329	0
2	1259	658712.765225608069	1
2	1261	658712.765225608069	0
2	1272	661232.872950667189	1
2	1275	661531.032807277668	2
2	1280	661888.183547048542	1
2	1285	662778.999729684866	0
2	1308	667601.206143860396	1
2	1310	667601.206143860396	0
2	1321	670449.206479258032	1
2	1326	671084.383945355746	0
2	1341	681445.361210893768	1
2	1343	681445.361210893768	0
2	1349	682807.798420796749	1
2	1351	682807.798420796749	0
2	1376	706078.438620711665	1
2	1378	706078.438620711665	0
2	1394	721016.194150961037	1
2	1396	721016.194150961037	0
2	1402	722888.858331976102	1
2	1404	722888.858331976102	0
2	1418	725307.46663125468	1
2	1420	725307.46663125468	0
2	1443	730118.999076227122	1
2	1445	730118.999076227122	0
2	1460	744374.154248518678	1
2	1462	744374.154248518678	0
2	1477	749271.265907817008	1
2	1479	749271.265907817008	0
2	1495	769531.801328972672	1
2	1497	769531.801328972672	0
2	1508	773076.672203455505	1
2	1513	773329.063828955577	0
2	1525	776389.925607113727	1
2	1530	777073.052137785832	0
2	1545	785283.490167718961	1
2	1547	785283.490167718961	0
2	1550	785764.342490558086	1
2	1555	786069.998171966503	0
2	1558	786424.279751481098	1
2	1563	787214.745431809135	0
2	1594	794275.918041543354	1
2	1596	794275.918041543354	0
2	1611	804994.71761362896	1
2	1613	804994.71761362896	0
2	1628	814586.015408598206	1
2	1630	814586.015408598206	0
2	1646	832915.294426452714	1
2	1648	832915.294426452714	0
2	1663	841416.522594269606	1
2	1665	841416.522594269606	0
2	1682	867099.245749844406	1
2	1684	867099.245749844406	0
2	1690	867987.28578511009	1
2	1692	867987.28578511009	0
2	1716	888088.73373555351	1
2	1718	888088.73373555351	0
2	1724	890069.194306916535	1
2	1726	890069.194306916535	0
2	1749	897184.411252447631	1
2	1751	897184.411252447631	0
2	1754	897650.340712821839	1
2	1759	898100.05940339329	0
2	1762	898687.88614718971	1
2	1767	899105.794306334798	0
2	1787	901424.988916633104	1
2	1792	902078.674467055244	0
2	1814	906994.448354904614	1
2	1816	906994.448354904614	0
2	1833	930945.959907894302	1
2	1835	930945.959907894302	0
2	1846	934518.243543359583	1
2	1851	934668.69034867364	0
2	1857	935628.668100155641	1
2	1859	935628.668100155641	0
2	1882	939954.479547750418	1
2	1884	939954.479547750418	0
2	1899	952710.864561901548	1
2	1901	952710.864561901548	0
2	1917	969161.584359701844	1
2	1919	969161.584359701844	0
2	1934	973387.407559595603	1
2	1936	973387.407559595603	0
2	1950	980947.622824791293	1
2	1952	980947.622824791293	0
2	1967	988393.903805995013	1
2	1969	988393.903805995013	0
2	1984	998162.885583927467	1
2	1986	998162.885583927467	0
2	2001	1002684.464360129919	1
2	2003	1002684.464360129919	0
2	2019	1022614.447240322255	1
2	2021	1022614.447240322255	0
2	2037	1037745.890525669453	1
2	2039	1037745.890525669453	0
2	2059	1094912.333259666205	1
2	2061	1094912.333259666205	0
2	2076	1104205.407262112857	1
2	2078	1104205.407262112857	0
2	2094	1122310.030367465665	1
2	2096	1122310.030367465665	0
2	2111	1126459.961527152124	1
2	2113	1126459.961527152124	0
2	2127	1132364.91351081859	1
2	2129	1132364.91351081859	0
2	2135	1133514.704726855284	1
2	2137	1133514.704726855284	0
2	2161	1148982.677781756498	1
2	2163	1148982.677781756498	0
2	2178	1156303.450394302422	1
2	2180	1156303.450394302422	0
3	557	300912.543515132599	0
3	574	309560.786983231842	0
3	591	315008.639258781824	0
3	616	324016.986481643693	0
3	624	324835.035579783133	241.45379622757
3	648	331391.014862385833	0
3	656	332308.698045131166	212.97087222386
3	675	352026.707605952668	0
3	691	358866.282189022435	0
3	724	367817.931863541589	1200.8612778897
3	744	369729.710771647486	978.89316169014
3	749	370561.292282161877	1135.4863213331
3	757	371541.331141107859	0
3	776	396238.896589758562	0
3	792	401907.491248062512	0
3	809	406291.151224541183	0
3	825	411290.587683465452	0
3	842	414769.790151615979	0
3	861	447047.487793880188	0
3	878	454690.349930292916	0
3	895	464717.376906308565	0
3	912	468945.772933148605	0
3	928	472871.759966725504	0
3	945	484429.884755855296	0
3	962	488185.258206225354	0
3	978	492360.975421335143	0
3	1007	533588.733270054308	692.27273662338
3	1023	535371.736937625841	135.4518179903
3	1047	538434.557158412501	1163.3076345353
3	1055	539303.635011103599	182.97825579188
3	1064	540173.313212580265	0
3	1081	551828.733012841026	0
3	1098	561556.311392894482	0
3	1116	579729.435120636095	0
3	1142	599672.469076356614	345.91470392669
3	1150	601707.029430767583	0
3	1167	606275.147528936349	0
3	1185	621461.442001238872	0
3	1209	629693.267638831218	0
3	1218	630563.148885392255	434.94428940946
3	1234	637379.733306456821	0
3	1251	647632.687084912421	0
3	1269	661067.82887522915	0
3	1293	664479.517648029187	0
3	1301	665280.874587729	90.447418668063
3	1318	670344.610593262613	0
3	1334	673669.461448953521	0
3	1360	684321.104140797161	0
3	1368	685391.01993645473	0
3	1386	708771.140969013142	0
3	1412	723746.520539086225	77.161476170432
3	1428	726247.852807132602	799.09995475397
3	1436	727653.121459686452	0
3	1453	732680.046935391039	0
3	1471	747298.734205182672	0
3	1487	751914.165074737803	0
3	1505	772429.950807850261	0
3	1522	776235.645828375592	0
3	1538	780101.105411378017	0
3	1571	788122.695685236559	0
3	1579	789344.192122359139	0
3	1587	790194.270543105298	272.92384475189
3	1604	796970.585533500225	0
3	1621	807909.612980222047	0
3	1638	817183.393971595803	0
3	1656	835804.388882481397	0
3	1673	844175.155898596622	0
3	1700	869690.840865544796	0
3	1708	870640.042108844026	0
3	1735	891042.961643580111	128.34301760804
3	1743	892915.95171355511	0
3	1776	900091.971814012393	51.404246830125
3	1784	901121.505545649971	0
3	1800	902883.481123030765	712.72051437255
3	1808	904477.598940756094	0
3	1825	909450.842866161402	0
3	1843	933696.85811719953	0
3	1868	937488.022512412749	0
3	1876	938500.658133317037	146.0068078609
3	1892	942428.149671877529	0
3	1910	955696.178463746108	0
3	1928	972046.21811474696	0
3	1944	975852.34949896641	0
3	1961	983934.296987488164	0
3	1978	991076.19578816097	0
3	1995	1001287.409179441519	0
3	2011	1005160.905109753324	0
3	2029	1025467.644396081686	0
3	2047	1040294.585354922394	0
3	2069	1097841.141695008684	0
3	2086	1106279.426805542188	0
3	2105	1125142.507595282869	0
3	2121	1129298.551159220079	0
3	2146	1134723.633388654047	0
3	2154	1136068.744941519811	0
3	2171	1151811.528309626342	0
3	2188	1159093.465118458351	0
4	555	300912.543515132599	1
4	557	300912.543515132599	0
4	572	309560.786983231842	1
4	574	309560.786983231842	0
4	589	315008.639258781824	1
4	591	315008.639258781824	0
4	614	324016.986481643693	1
4	616	324016.986481643693	0
4	619	324593.581783555564	1
4	624	324835.035579783133	0
4	646	331391.014862385833	1
4	648	331391.014862385833	0
4	651	332095.727172907308	1
4	656	332308.698045131166	0
4	673	352026.707605952668	1
4	675	352026.707605952668	0
4	689	358866.282189022435	1
4	691	358866.282189022435	0
4	714	366617.070585651854	1
4	724	367817.931863541589	0
4	730	368750.81760995735	1
4	739	369425.805960828801	2
4	744	369729.710771647486	1
4	749	370561.292282161877	0
4	755	371541.331141107859	1
4	757	371541.331141107859	0
4	774	396238.896589758562	1
4	776	396238.896589758562	0
4	790	401907.491248062512	1
4	792	401907.491248062512	0
4	807	406291.151224541183	1
4	809	406291.151224541183	0
4	823	411290.587683465452	1
4	825	411290.587683465452	0
4	840	414769.790151615979	1
4	842	414769.790151615979	0
4	859	447047.487793880188	1
4	861	447047.487793880188	0
4	876	454690.349930292916	1
4	878	454690.349930292916	0
4	893	464717.376906308565	1
4	895	464717.376906308565	0
4	910	468945.772933148605	1
4	912	468945.772933148605	0
4	926	472871.759966725504	1
4	928	472871.759966725504	0
4	943	484429.884755855296	1
4	945	484429.884755855296	0
4	960	488185.258206225354	1
4	962	488185.258206225354	0
4	976	492360.975421335143	1
4	978	492360.975421335143	0
4	1002	532896.460533430924	1
4	1007	533588.733270054308	0
4	1018	535236.285119635542	1
4	1023	535371.736937625841	0
4	1037	537271.249523877198	1
4	1047	538434.557158412501	0
4	1050	539120.656755311722	1
4	1055	539303.635011103599	0
4	1062	540173.313212580265	1
4	1064	540173.313212580265	0
4	1079	551828.733012841026	1
4	1081	551828.733012841026	0
4	1096	561556.311392894482	1
4	1098	561556.311392894482	0
4	1114	579729.435120636095	1
4	1116	579729.435120636095	0
4	1137	599326.554372429927	1
4	1142	599672.469076356614	0
4	1148	601707.029430767583	1
4	1150	601707.029430767583	0
4	1165	606275.147528936349	1
4	1167	606275.147528936349	0
4	1183	621461.442001238872	1
4	1185	621461.442001238872	0
4	1207	629693.267638831218	1
4	1209	629693.267638831218	0
4	1213	630128.204595982791	1
4	1218	630563.148885392255	0
4	1232	637379.733306456821	1
4	1234	637379.733306456821	0
4	1249	647632.687084912421	1
4	1251	647632.687084912421	0
4	1267	661067.82887522915	1
4	1269	661067.82887522915	0
4	1291	664479.517648029187	1
4	1293	664479.517648029187	0
4	1296	665190.427169060937	1
4	1301	665280.874587729	0
4	1316	670344.610593262613	1
4	1318	670344.610593262613	0
4	1332	673669.461448953521	1
4	1334	673669.461448953521	0
4	1358	684321.104140797161	1
4	1360	684321.104140797161	0
4	1366	685391.01993645473	1
4	1368	685391.01993645473	0
4	1384	708771.140969013142	1
4	1386	708771.140969013142	0
4	1407	723669.359062915793	1
4	1412	723746.520539086225	0
4	1423	725448.752852378633	1
4	1428	726247.852807132602	0
4	1434	727653.121459686452	1
4	1436	727653.121459686452	0
4	1451	732680.046935391039	1
4	1453	732680.046935391039	0
4	1469	747298.734205182672	1
4	1471	747298.734205182672	0
4	1485	751914.165074737803	1
4	1487	751914.165074737803	0
4	1503	772429.950807850261	1
4	1505	772429.950807850261	0
4	1520	776235.645828375592	1
4	1522	776235.645828375592	0
4	1536	780101.105411378017	1
4	1538	780101.105411378017	0
4	1569	788122.695685236559	1
4	1571	788122.695685236559	0
4	1577	789344.192122359139	1
4	1579	789344.192122359139	0
4	1582	789921.346698353404	1
4	1587	790194.270543105298	0
4	1602	796970.585533500225	1
4	1604	796970.585533500225	0
4	1619	807909.612980222047	1
4	1621	807909.612980222047	0
4	1636	817183.393971595803	1
4	1638	817183.393971595803	0
4	1654	835804.388882481397	1
4	1656	835804.388882481397	0
4	1671	844175.155898596622	1
4	1673	844175.155898596622	0
4	1698	869690.840865544796	1
4	1700	869690.840865544796	0
4	1706	870640.042108844026	1
4	1708	870640.042108844026	0
4	1729	890914.618625972066	1
4	1735	891042.961643580111	0
4	1741	892915.95171355511	1
4	1743	892915.95171355511	0
4	1771	900040.567567182268	1
4	1776	900091.971814012393	0
4	1782	901121.505545649971	1
4	1784	901121.505545649971	0
4	1795	902170.76060865821	1
4	1800	902883.481123030765	0
4	1806	904477.598940756094	1
4	1808	904477.598940756094	0
4	1823	909450.842866161402	1
4	1825	909450.842866161402	0
4	1841	933696.85811719953	1
4	1843	933696.85811719953	0
4	1866	937488.022512412749	1
4	1868	937488.022512412749	0
4	1871	938354.65132545614	1
4	1876	938500.658133317037	0
4	1890	942428.149671877529	1
4	1892	942428.149671877529	0
4	1908	955696.178463746108	1
4	1910	955696.178463746108	0
4	1926	972046.21811474696	1
4	1928	972046.21811474696	0
4	1942	975852.34949896641	1
4	1944	975852.34949896641	0
4	1959	983934.296987488164	1
4	1961	983934.296987488164	0
4	1976	991076.19578816097	1
4	1978	991076.19578816097	0
4	1993	1001287.409179441519	1
4	1995	1001287.409179441519	0
4	2009	1005160.905109753324	1
4	2011	1005160.905109753324	0
4	2027	1025467.644396081686	1
4	2029	1025467.644396081686	0
4	2045	1040294.585354922394	1
4	2047	1040294.585354922394	0
4	2067	1097841.141695008684	1
4	2069	1097841.141695008684	0
4	2084	1106279.426805542188	1
4	2086	1106279.426805542188	0
4	2103	1125142.507595282869	1
4	2105	1125142.507595282869	0
4	2119	1129298.551159220079	1
4	2121	1129298.551159220079	0
4	2144	1134723.633388654047	1
4	2146	1134723.633388654047	0
4	2152	1136068.744941519811	1
4	2154	1136068.744941519811	0
4	2169	1151811.528309626342	1
4	2171	1151811.528309626342	0
4	2186	1159093.465118458351	1
4	2188	1159093.465118458351	0
5	562	306000	1
5	587	315000	2
5	612	324000	2
5	658	333000	2
5	662	342000	0
5	671	351000	1
5	696	360000	1
5	737	369000	3
5	762	378000	1
5	763	387000	0
5	772	396000	1
5	805	405000	2
5	838	414000	2
5	847	423000	0
5	848	432000	0
5	849	441000	0
5	866	450000	1
5	883	459000	1
5	908	468000	2
5	933	477000	1
5	955	486000	1
5	983	495000	2
5	984	504000	0
5	985	513000	0
5	986	522000	0
5	992	531000	0
5	1057	540000	5
5	1069	549000	0
5	1086	558000	1
5	1103	567000	1
5	1104	576000	0
5	1121	585000	1
5	1122	594000	0
5	1155	603000	2
5	1172	612000	1
5	1181	621000	1
5	1211	630000	2
5	1239	639000	1
5	1253	648000	1
5	1257	657000	0
5	1303	666000	3
5	1339	675000	2
5	1356	684000	2
5	1373	693000	0
5	1374	702000	0
5	1391	711000	1
5	1392	720000	0
5	1441	729000	3
5	1458	738000	1
5	1467	747000	1
5	1492	756000	1
5	1493	765000	0
5	1515	774000	1
5	1543	783000	2
5	1592	792000	3
5	1609	801000	1
5	1626	810000	1
5	1643	819000	1
5	1644	828000	0
5	1661	837000	1
5	1678	846000	1
5	1679	855000	0
5	1680	864000	0
5	1713	873000	2
5	1714	882000	0
5	1731	891000	1
5	1769	900000	3
5	1821	909000	3
5	1830	918000	0
5	1831	927000	0
5	1861	936000	2
5	1897	945000	2
5	1906	954000	1
5	1915	963000	0
5	1924	972000	1
5	1954	981000	1
5	1974	990000	2
5	1988	999000	0
5	2016	1008000	2
5	2017	1017000	0
5	2031	1026000	1
5	2035	1035000	0
5	2052	1044000	1
5	2053	1053000	0
5	2054	1062000	0
5	2055	1071000	0
5	2056	1080000	0
5	2057	1089000	0
5	2071	1098000	1
5	2088	1107000	1
5	2092	1116000	0
5	2101	1125000	1
5	2139	1134000	2
5	2159	1143000	1
5	2173	1152000	1
5	2193	1161000	1
6	562	306000	1
6	587	315000	1
6	612	324000	1
6	658	333000	3
6	662	342000	1
6	671	351000	0
6	696	360000	2
6	737	369000	1
6	762	378000	3
6	763	387000	0
6	772	396000	0
6	805	405000	2
6	838	414000	2
6	847	423000	1
6	848	432000	0
6	849	441000	0
6	866	450000	1
6	883	459000	1
6	908	468000	1
6	933	477000	2
6	955	486000	1
6	983	495000	2
6	984	504000	0
6	985	513000	0
6	986	522000	0
6	992	531000	0
6	1057	540000	3
6	1069	549000	2
6	1086	558000	1
6	1103	567000	1
6	1104	576000	0
6	1121	585000	1
6	1122	594000	0
6	1155	603000	2
6	1172	612000	1
6	1181	621000	0
6	1211	630000	1
6	1239	639000	3
6	1253	648000	0
6	1257	657000	1
6	1303	666000	2
6	1339	675000	3
6	1356	684000	0
6	1373	693000	2
6	1374	702000	0
6	1391	711000	1
6	1392	720000	0
6	1441	729000	3
6	1458	738000	1
6	1467	747000	0
6	1492	756000	2
6	1493	765000	0
6	1515	774000	1
6	1543	783000	2
6	1592	792000	3
6	1609	801000	1
6	1626	810000	1
6	1643	819000	1
6	1644	828000	0
6	1661	837000	1
6	1678	846000	1
6	1679	855000	0
6	1680	864000	0
6	1713	873000	2
6	1714	882000	0
6	1731	891000	0
6	1769	900000	2
6	1821	909000	4
6	1830	918000	1
6	1831	927000	0
6	1861	936000	1
6	1897	945000	3
6	1906	954000	0
6	1915	963000	1
6	1924	972000	0
6	1954	981000	2
6	1974	990000	1
6	1988	999000	1
6	2016	1008000	2
6	2017	1017000	0
6	2031	1026000	0
6	2035	1035000	1
6	2052	1044000	1
6	2053	1053000	0
6	2054	1062000	0
6	2055	1071000	0
6	2056	1080000	0
6	2057	1089000	0
6	2071	1098000	0
6	2088	1107000	1
6	2092	1116000	1
6	2101	1125000	0
6	2139	1134000	2
6	2159	1143000	2
6	2173	1152000	0
6	2193	1161000	2
7	554	300912.543515132599	0
7	569	307958.986715906196	1
7	571	309560.786983231842	0
7	585	313202.443340929685	1
7	588	315008.639258781824	0
7	602	322347.331481410867	1
7	610	323037.803524239725	2
7	613	324016.986481643693	1
7	618	324593.581783555564	0
7	638	329237.36104798452	1
7	643	330132.948845767579	2
7	645	331391.014862385833	1
7	650	332095.727172907308	0
7	669	350504.942116068944	1
7	672	352026.707605952668	0
7	686	357101.340906139026	1
7	688	358866.282189022435	0
7	703	365127.451603617029	1
7	713	366617.070585651854	0
7	717	366879.566508661877	1
7	722	367817.931863541589	2
7	729	368750.81760995735	1
7	738	369425.805960828801	0
7	742	369729.710771647486	1
7	754	371541.331141107859	0
7	770	394315.464485167281	1
7	773	396238.896589758562	0
7	787	400199.739679706859	1
7	789	401907.491248062512	0
7	803	404553.876273074321	1
7	806	406291.151224541183	0
7	820	409667.348001819588	1
7	822	411290.587683465452	0
7	836	413302.694313233668	1
7	839	414769.790151615979	0
7	856	445031.053392946078	1
7	858	447047.487793880188	0
7	873	452947.882537558118	1
7	875	454690.349930292916	0
7	890	462795.792681347103	1
7	892	464717.376906308565	0
7	906	467206.202822653267	1
7	909	468945.772933148605	0
7	923	471006.731142450306	1
7	925	472871.759966725504	0
7	940	482557.285158012036	1
7	942	484429.884755855296	0
7	957	486401.181800727982	1
7	959	488185.258206225354	0
7	973	490439.201305331943	1
7	975	492360.975421335143	0
7	994	531175.772815799422	1
7	1001	532896.460533430924	0
7	1005	533588.733270054308	1
7	1017	535236.285119635542	0
7	1021	535371.736937625841	1
7	1036	537271.249523877198	0
7	1040	537485.459082052313	1
7	1045	538434.557158412501	2
7	1049	539120.656755311722	1
7	1061	540173.313212580265	0
7	1076	550130.742585926661	1
7	1078	551828.733012841026	0
7	1093	559710.875554266642	1
7	1095	561556.311392894482	0
7	1111	578146.000946697514	1
7	1113	579729.435120636095	0
7	1129	597219.152432366261	1
7	1136	599326.554372429927	0
7	1140	599672.469076356614	1
7	1147	601707.029430767583	0
7	1162	604490.031142829922	1
7	1164	606275.147528936349	0
7	1179	619691.120564176233	1
7	1182	621461.442001238872	0
7	1199	627621.986011470765	1
7	1204	628388.431479898906	2
7	1206	629693.267638831218	1
7	1212	630128.204595982791	0
7	1229	635474.241002274678	1
7	1231	637379.733306456821	0
7	1246	645740.16969409767	1
7	1248	647632.687084912421	0
7	1264	659519.332079458839	1
7	1266	661067.82887522915	0
7	1283	662778.999729684866	1
7	1288	663755.874867147164	2
7	1290	664479.517648029187	1
7	1295	665190.427169060937	0
7	1313	668467.250799527234	1
7	1315	670344.610593262613	0
7	1329	671927.554696738092	1
7	1331	673669.461448953521	0
7	1346	682471.081388910976	1
7	1354	683857.40939583177	2
7	1357	684321.104140797161	1
7	1365	685391.01993645473	0
7	1381	707032.528539074513	1
7	1383	708771.140969013142	0
7	1399	721995.76580244192	1
7	1406	723669.359062915793	0
7	1410	723746.520539086225	1
7	1422	725448.752852378633	0
7	1426	726247.852807132602	1
7	1433	727653.121459686452	0
7	1448	731030.087628960252	1
7	1450	732680.046935391039	0
7	1465	745382.926038265991	1
7	1468	747298.734205182672	0
7	1482	750202.35483393414	1
7	1484	751914.165074737803	0
7	1500	770341.468921859655	1
7	1502	772429.950807850261	0
7	1517	774303.1978393406	1
7	1519	776235.645828375592	0
7	1533	778056.267902529681	1
7	1535	780101.105411378017	0
7	1553	786069.998171966503	1
7	1561	787214.745431809135	2
7	1566	788055.350883983198	3
7	1568	788122.695685236559	2
7	1576	789344.192122359139	1
7	1581	789921.346698353404	0
7	1599	795185.614937030812	1
7	1601	796970.585533500225	0
7	1616	806079.637708121882	1
7	1618	807909.612980222047	0
7	1633	815331.775487624123	1
7	1635	817183.393971595803	0
7	1651	833870.855505653439	1
7	1653	835804.388882481397	0
7	1668	842425.082001762423	1
7	1670	844175.155898596622	0
7	1687	867894.35992770291	1
7	1695	868927.881444026263	2
7	1697	869690.840865544796	1
7	1705	870640.042108844026	0
7	1721	888916.067791438103	1
7	1728	890914.618625972066	0
7	1733	891042.961643580111	1
7	1740	892915.95171355511	0
7	1757	898100.05940339329	1
7	1765	899105.794306334798	2
7	1770	900040.567567182268	1
7	1774	900091.971814012393	2
7	1781	901121.505545649971	1
7	1794	902170.76060865821	0
7	1798	902883.481123030765	1
7	1805	904477.598940756094	0
7	1819	907865.480707571055	1
7	1822	909450.842866161402	0
7	1838	931723.979673239666	1
7	1840	933696.85811719953	0
7	1854	935538.224900287343	1
7	1863	936600.968055188163	2
7	1865	937488.022512412749	1
7	1870	938354.65132545614	0
7	1887	940619.734511437534	1
7	1889	942428.149671877529	0
7	1904	953792.550079381637	1
7	1907	955696.178463746108	0
7	1922	970104.769954801056	1
7	1925	972046.21811474696	0
7	1939	974340.156967570062	1
7	1941	975852.34949896641	0
7	1956	981927.91293070142	1
7	1958	983934.296987488164	0
7	1972	989347.152292197337	1
7	1975	991076.19578816097	0
7	1990	999185.574570444278	1
7	1992	1001287.409179441519	0
7	2006	1003512.781875914717	1
7	2008	1005160.905109753324	0
7	2024	1023627.822220725815	1
7	2026	1025467.644396081686	0
7	2042	1038680.000732884283	1
7	2044	1040294.585354922394	0
7	2064	1095769.25895137348	1
7	2066	1097841.141695008684	0
7	2081	1105003.4997244708	1
7	2083	1106279.426805542188	0
7	2099	1123280.818204682953	1
7	2102	1125142.507595282869	0
7	2116	1127345.311763189165	1
7	2118	1129298.551159220079	0
7	2132	1133213.275224550394	1
7	2141	1134451.756773693122	2
7	2143	1134723.633388654047	1
7	2151	1136068.744941519811	0
7	2166	1149780.649975461828	1
7	2168	1151811.528309626342	0
7	2183	1157380.462652608233	1
7	2185	1159093.465118458351	0
