version 2
run ResponseMeasurement-96-20170110-19:46:59-22825
attr configname ResponseMeasurement
attr datetime 20170110-19:46:59
attr experiment ResponseMeasurement
attr inifile responseStudy.ini
attr iterationvars ""
attr iterationvars2 $repetition=96
attr measurement ""
attr network controltower.SimNetwork
attr processid 22825
attr repetition 96
attr replication #96
attr resultdir results
attr runnumber 96
attr seedset 96
param SimNetwork.a.parkingLot.parkingDelay "truncnormal(30min, 3min)"
param SimNetwork.a.runway.landingTime "truncnormal(15min, 1.5min)"
param SimNetwork.a.runway.takeoffTime "truncnormal(15min, 1.5min)"
param SimNetwork.a.runway.throughputCheckInterval 150min
param SimNetwork.wg.interArrivalTime exponential(150min)

vector 7  SimNetwork.a.parkingLot  parkingOccupancy:vector  ETV
attr source  parkingOccupancy
vector 4  SimNetwork.a.takeoffQueue  queueLength:vector  ETV
attr source  queueLengthSignal
vector 3  SimNetwork.a.takeoffQueue  queueTime:vector  ETV
attr source  queueTimeSignal
vector 2  SimNetwork.a.landingQueue  queueLength:vector  ETV
attr source  queueLengthSignal
vector 0  SimNetwork.wg  responseTime:vector  ETV
attr source  responseTimeSignal
vector 1  SimNetwork.a.landingQueue  queueTime:vector  ETV
attr source  queueTimeSignal
vector 5  SimNetwork.a.runway  landedThroughput:vector  ETV
attr source  landedThroughputSignal
vector 6  SimNetwork.a.runway  tookoffThroughput:vector  ETV
attr source  tookoffThroughputSignal
0	619	300848.1035711804	35422.648911219
0	632	302768.061584389601	5524.3437147016
0	640	304479.222262007579	6163.120100535
0	658	321790.908881708683	21394.560495938
0	675	328707.872743018521	10427.418649686
0	692	341683.258295836526	16782.569445225
0	709	350453.062650800092	12678.072595555
0	726	354793.873009002888	7703.28668358
0	742	359354.123636320645	8411.6685570837
0	761	381374.69524677244	25910.360774594
0	778	389493.765948527947	11415.144095729
0	795	404267.749136374056	18301.171259042
0	812	408452.907117090988	7359.0642806934
0	828	413162.74137759278	8465.0644422615
0	846	426157.802231896059	16620.830718369
0	863	433663.508214113379	10823.738758355
0	880	442158.425528507299	12030.811754203
0	896	449986.255475996227	11443.697147001
0	914	460980.996982687528	14654.293972789
0	931	473863.435515850677	16564.445003444
0	949	492491.266967842065	22349.491925652
0	975	512730.371482721661	23664.856697014
0	984	514239.967903460576	5906.6971918196
0	1000	519500.49500655966	8687.267962962
0	1019	546319.661879356105	30261.98518011
0	1036	556551.554646487215	13774.482450828
0	1056	587852.461714282961	34925.22888587
0	1082	606426.587617104799	22293.546222453
0	1090	607364.127336138595	4489.4273304793
0	1107	614223.73700780096	10433.515755518
0	1123	618831.293681928603	7755.7550915698
0	1140	625295.770938179251	9914.0362901584
0	1167	629173.706475217379	7501.1473532364
0	1173	630103.483833169913	4698.2697805106
0	1190	639643.133118903481	13675.067900947
0	1208	657536.055672549855	21165.377003345
0	1232	665047.56759522024	10917.741737331
0	1241	666654.8400766179	5800.8512604224
0	1259	689342.443546371647	26186.305570998
0	1279	725436.104156515839	39756.628273972
0	1297	746483.721402526193	24727.802442092
0	1322	754124.524482914147	11428.227697792
0	1330	755484.501219751859	4815.5104113981
0	1355	759659.743288365243	7627.9686290839
0	1363	761574.124263646031	5825.4383437167
0	1380	767743.180457635373	9772.549205588
0	1399	773467.510833562845	9398.2674929964
0	1421	777057.922456195403	7085.4638328729
0	1429	778005.088323967638	5163.6279578577
0	1450	822141.938110890692	47736.37744093
0	1466	826892.436429533636	8604.4457239984
0	1488	850739.013293616517	27265.355454738
0	1509	854903.005326780477	7905.2978391332
0	1518	856747.769912610088	6291.331597241
0	1535	870653.85026519878	17451.236533132
0	1552	878465.466638464949	11278.390874322
0	1571	904106.029780065969	29447.710861351
0	1591	938746.066807587383	37904.167988427
0	1608	948638.079129825859	13247.946568304
0	1626	964106.915510873904	19068.797265368
0	1650	971622.261211076092	11186.090784003
0	1659	973524.838605075388	6018.5019257694
0	1678	979866.370989688148	10179.586751507
0	1692	983551.412529854419	7635.2059271829
0	1709	994005.689297039185	14831.922270206
0	1726	999227.923171095907	9221.6693601766
0	1743	1013228.598532852078	17648.082605762
0	1764	1034434.485752678117	24593.732898801
0	1778	1038162.461703868313	7572.5430926443
0	1811	1050180.102132093227	16566.041681077
0	1822	1051516.979922137221	4873.7833593241
0	1827	1052580.572774755792	5116.9283518161
0	1844	1059675.437146989791	12021.306283671
0	1862	1071354.73299716129	15339.093057051
0	1879	1081725.673244786368	14090.559060628
0	1896	1089100.308531945501	10969.493264179
0	1914	1114942.556369942443	29221.861804558
0	1931	1121633.538999353514	10687.045978499
0	1948	1133062.203869421367	15154.182208236
0	1974	1145837.836712767162	16753.119061309
0	1982	1147688.281858461715	5757.0723537795
0	2010	1157225.335781775223	13123.080404903
0	2015	1158268.836877544577	4838.1275654498
1	621	300848.1035711804	451.75518540957
1	647	318280.454093332276	0
1	664	324900.688850611548	0
1	681	337774.990055245132	0
1	698	347090.58632542287	0
1	714	350942.455079236976	0
1	731	355464.334472178808	0
1	750	378078.62185279942	0
1	766	385966.577877332418	0
1	784	401093.842836397548	0
1	800	404697.676935331254	0
1	817	409536.971513526702	0
1	834	422839.769455758402	0
1	851	430127.613774303938	0
1	868	438542.558328995108	0
1	885	446326.703009898392	0
1	902	457298.990512406782	0
1	920	470141.775042189578	0
1	938	489065.514785708086	0
1	956	508333.270711640926	0
1	964	510813.227043597627	0
1	989	516057.676699246055	0
1	1008	542777.072195659503	0
1	1025	552927.232828412733	0
1	1044	584133.041394651997	0
1	1062	602874.700005659285	0
1	1071	603790.221252283415	0
1	1095	611075.538590358783	0
1	1112	615381.734648020836	0
1	1129	621672.559121980996	0
1	1145	625405.214052659326	0
1	1153	626113.772964708114	145.70774675199
1	1178	636370.678669204517	0
1	1196	654129.825857889423	0
1	1213	660853.988816195481	0
1	1221	663156.137975373432	0
1	1248	685679.475882544336	0
1	1268	721755.9189604338	0
1	1286	742696.296785122088	0
1	1303	750668.990808353724	0
1	1311	752031.774659281373	0
1	1335	755748.685919929358	0
1	1344	757970.631252047347	0
1	1368	764069.243340566407	0
1	1385	769972.458623322547	0
1	1401	773467.510833562845	626.05046745291
1	1410	774405.560669960811	0
1	1438	818287.990705535227	0
1	1455	823473.657838878847	0
1	1474	846997.707487647307	0
1	1490	850739.013293616517	282.57497824746
1	1498	853202.61373206658	0
1	1524	867187.075764142612	0
1	1541	874658.31891871496	0
1	1560	900841.898819160792	0
1	1579	935390.132561521692	0
1	1597	945038.118245506308	0
1	1614	960436.170427073258	0
1	1631	967506.33667930594	0
1	1639	969686.784238181128	0
1	1664	975916.206602671478	0
1	1680	979866.370989688148	692.60396285518
1	1698	990006.253810919296	0
1	1714	995580.515927089964	0
1	1732	1009840.752853877348	0
1	1750	1030589.918611224024	0
1	1766	1034434.485752678117	820.42530166207
1	1784	1046643.196562813072	0
1	1792	1047634.617553790641	170.97313085092
1	1800	1048399.011776505297	744.88091318638
1	1833	1056015.63994011043	0
1	1850	1067635.11418415794	0
1	1867	1078130.815267766522	0
1	1884	1085720.694565384864	0
1	1903	1110946.493020854108	0
1	1920	1117908.021661185038	0
1	1937	1129084.717651458084	0
1	1954	1141931.20950468218	0
1	1963	1144102.255376871999	0
1	1988	1153430.709312094751	0
1	1996	1154533.602982611265	0
2	616	300396.348385770828	1
2	621	300848.1035711804	0
2	645	318280.454093332276	1
2	647	318280.454093332276	0
2	662	324900.688850611548	1
2	664	324900.688850611548	0
2	679	337774.990055245132	1
2	681	337774.990055245132	0
2	696	347090.58632542287	1
2	698	347090.58632542287	0
2	712	350942.455079236976	1
2	714	350942.455079236976	0
2	729	355464.334472178808	1
2	731	355464.334472178808	0
2	748	378078.62185279942	1
2	750	378078.62185279942	0
2	764	385966.577877332418	1
2	766	385966.577877332418	0
2	782	401093.842836397548	1
2	784	401093.842836397548	0
2	798	404697.676935331254	1
2	800	404697.676935331254	0
2	815	409536.971513526702	1
2	817	409536.971513526702	0
2	832	422839.769455758402	1
2	834	422839.769455758402	0
2	849	430127.613774303938	1
2	851	430127.613774303938	0
2	866	438542.558328995108	1
2	868	438542.558328995108	0
2	883	446326.703009898392	1
2	885	446326.703009898392	0
2	900	457298.990512406782	1
2	902	457298.990512406782	0
2	918	470141.775042189578	1
2	920	470141.775042189578	0
2	936	489065.514785708086	1
2	938	489065.514785708086	0
2	954	508333.270711640926	1
2	956	508333.270711640926	0
2	962	510813.227043597627	1
2	964	510813.227043597627	0
2	987	516057.676699246055	1
2	989	516057.676699246055	0
2	1006	542777.072195659503	1
2	1008	542777.072195659503	0
2	1023	552927.232828412733	1
2	1025	552927.232828412733	0
2	1042	584133.041394651997	1
2	1044	584133.041394651997	0
2	1060	602874.700005659285	1
2	1062	602874.700005659285	0
2	1069	603790.221252283415	1
2	1071	603790.221252283415	0
2	1093	611075.538590358783	1
2	1095	611075.538590358783	0
2	1110	615381.734648020836	1
2	1112	615381.734648020836	0
2	1127	621672.559121980996	1
2	1129	621672.559121980996	0
2	1143	625405.214052659326	1
2	1145	625405.214052659326	0
2	1148	625968.065217956123	1
2	1153	626113.772964708114	0
2	1176	636370.678669204517	1
2	1178	636370.678669204517	0
2	1194	654129.825857889423	1
2	1196	654129.825857889423	0
2	1211	660853.988816195481	1
2	1213	660853.988816195481	0
2	1219	663156.137975373432	1
2	1221	663156.137975373432	0
2	1246	685679.475882544336	1
2	1248	685679.475882544336	0
2	1266	721755.9189604338	1
2	1268	721755.9189604338	0
2	1284	742696.296785122088	1
2	1286	742696.296785122088	0
2	1301	750668.990808353724	1
2	1303	750668.990808353724	0
2	1309	752031.774659281373	1
2	1311	752031.774659281373	0
2	1333	755748.685919929358	1
2	1335	755748.685919929358	0
2	1342	757970.631252047347	1
2	1344	757970.631252047347	0
2	1366	764069.243340566407	1
2	1368	764069.243340566407	0
2	1383	769972.458623322547	1
2	1385	769972.458623322547	0
2	1396	772841.460366109937	1
2	1401	773467.510833562845	0
2	1408	774405.560669960811	1
2	1410	774405.560669960811	0
2	1436	818287.990705535227	1
2	1438	818287.990705535227	0
2	1453	823473.657838878847	1
2	1455	823473.657838878847	0
2	1472	846997.707487647307	1
2	1474	846997.707487647307	0
2	1485	850456.438315369057	1
2	1490	850739.013293616517	0
2	1496	853202.61373206658	1
2	1498	853202.61373206658	0
2	1522	867187.075764142612	1
2	1524	867187.075764142612	0
2	1539	874658.31891871496	1
2	1541	874658.31891871496	0
2	1558	900841.898819160792	1
2	1560	900841.898819160792	0
2	1577	935390.132561521692	1
2	1579	935390.132561521692	0
2	1595	945038.118245506308	1
2	1597	945038.118245506308	0
2	1612	960436.170427073258	1
2	1614	960436.170427073258	0
2	1629	967506.33667930594	1
2	1631	967506.33667930594	0
2	1637	969686.784238181128	1
2	1639	969686.784238181128	0
2	1662	975916.206602671478	1
2	1664	975916.206602671478	0
2	1675	979173.76702683297	1
2	1680	979866.370989688148	0
2	1696	990006.253810919296	1
2	1698	990006.253810919296	0
2	1712	995580.515927089964	1
2	1714	995580.515927089964	0
2	1730	1009840.752853877348	1
2	1732	1009840.752853877348	0
2	1748	1030589.918611224024	1
2	1750	1030589.918611224024	0
2	1761	1033614.06045101605	1
2	1766	1034434.485752678117	0
2	1782	1046643.196562813072	1
2	1784	1046643.196562813072	0
2	1787	1047463.644422939717	1
2	1792	1047634.617553790641	0
2	1795	1047654.130863318914	1
2	1800	1048399.011776505297	0
2	1831	1056015.63994011043	1
2	1833	1056015.63994011043	0
2	1848	1067635.11418415794	1
2	1850	1067635.11418415794	0
2	1865	1078130.815267766522	1
2	1867	1078130.815267766522	0
2	1882	1085720.694565384864	1
2	1884	1085720.694565384864	0
2	1901	1110946.493020854108	1
2	1903	1110946.493020854108	0
2	1918	1117908.021661185038	1
2	1920	1117908.021661185038	0
2	1935	1129084.717651458084	1
2	1937	1129084.717651458084	0
2	1952	1141931.20950468218	1
2	1954	1141931.20950468218	0
2	1961	1144102.255376871999	1
2	1963	1144102.255376871999	0
2	1986	1153430.709312094751	1
2	1988	1153430.709312094751	0
2	1994	1154533.602982611265	1
2	1996	1154533.602982611265	0
3	613	300004.708419298994	0
3	629	301752.834850864552	573.51499958921
3	637	303637.189271650499	0
3	655	320905.027370121004	0
3	672	327865.23369089829	0
3	689	340777.081749458355	0
3	706	349568.110316350339	0
3	723	353774.857194686664	0
3	739	358273.958519656266	0
3	758	380448.509276722818	0
3	775	388606.430044809796	0
3	792	403464.80058760462	0
3	809	407495.19766800628	0
3	825	412311.519564590993	0
3	843	425452.590998944125	0
3	860	432810.606784605986	0
3	877	441287.708748424732	0
3	893	449125.963146102847	0
3	911	459951.876223904573	0
3	928	472987.456083970554	0
3	946	491626.267388828715	0
3	972	511878.477150409048	703.21139322147
3	981	513477.386297994368	0
3	997	518718.946012606544	0
3	1016	545424.158333933325	0
3	1033	555635.137207542386	0
3	1053	586948.245722758735	0
3	1079	605546.229274185838	0
3	1087	606580.271343986316	0
3	1104	613346.735000953248	0
3	1120	618104.401034342949	0
3	1137	624385.517265992078	0
3	1161	628200.972270614366	0
3	1169	629173.706475217379	883.615969819
3	1186	638857.066823186547	0
3	1204	656616.593911843708	0
3	1229	664085.17693906838	785.8505810793
3	1237	665646.79075090964	0
3	1256	688429.397268012294	0
3	1276	724435.556407249743	0
3	1294	745412.604600744723	0
3	1319	753339.213171529131	0
3	1327	754550.317168069385	0
3	1352	758892.793153952628	617.69143447505
3	1360	760704.246277375152	0
3	1377	766952.892959513597	0
3	1393	772525.219501951565	0
3	1418	776180.472099144248	0
3	1426	777090.879961194014	0
3	1447	821123.754395401044	0
3	1463	825957.550517321675	0
3	1482	849981.001098009989	0
3	1506	854052.022185829571	459.98223667095
3	1515	855915.282843641612	0
3	1532	869888.767672585193	0
3	1549	877578.015150307698	0
3	1568	903242.348135085961	0
3	1588	937748.860880371046	0
3	1605	947724.646975655225	0
3	1623	963256.500244891979	0
3	1647	970642.289436793266	479.33168308864
3	1656	972544.173332499334	0
3	1672	978671.266198365812	0
3	1689	982604.729548263596	0
3	1706	992960.9772390065	0
3	1722	998131.912479796667	0
3	1740	1012346.418470188249	0
3	1758	1033404.104764857777	0
3	1775	1037199.538294207393	0
3	1808	1049399.718769969943	0
3	1816	1050594.871743417128	0
3	1824	1051516.979922137221	905.18959124521
3	1841	1058763.226297152303	0
3	1858	1070392.277435702858	0
3	1876	1080911.457703672275	0
3	1892	1088226.748873780284	0
3	1911	1113849.277460760376	0
3	1928	1120619.440277667721	0
3	1945	1132157.666798808984	0
3	1971	1145065.598947547649	739.45053574214
3	1979	1146809.990724182017	0
3	2004	1156329.528477355299	0
3	2012	1157225.335781775223	131.55836342522
4	611	300004.708419298994	1
4	613	300004.708419298994	0
4	624	301179.319851275338	1
4	629	301752.834850864552	0
4	635	303637.189271650499	1
4	637	303637.189271650499	0
4	653	320905.027370121004	1
4	655	320905.027370121004	0
4	670	327865.23369089829	1
4	672	327865.23369089829	0
4	687	340777.081749458355	1
4	689	340777.081749458355	0
4	704	349568.110316350339	1
4	706	349568.110316350339	0
4	721	353774.857194686664	1
4	723	353774.857194686664	0
4	737	358273.958519656266	1
4	739	358273.958519656266	0
4	756	380448.509276722818	1
4	758	380448.509276722818	0
4	773	388606.430044809796	1
4	775	388606.430044809796	0
4	790	403464.80058760462	1
4	792	403464.80058760462	0
4	807	407495.19766800628	1
4	809	407495.19766800628	0
4	823	412311.519564590993	1
4	825	412311.519564590993	0
4	841	425452.590998944125	1
4	843	425452.590998944125	0
4	858	432810.606784605986	1
4	860	432810.606784605986	0
4	875	441287.708748424732	1
4	877	441287.708748424732	0
4	891	449125.963146102847	1
4	893	449125.963146102847	0
4	909	459951.876223904573	1
4	911	459951.876223904573	0
4	926	472987.456083970554	1
4	928	472987.456083970554	0
4	944	491626.267388828715	1
4	946	491626.267388828715	0
4	967	511175.265757187581	1
4	972	511878.477150409048	0
4	979	513477.386297994368	1
4	981	513477.386297994368	0
4	995	518718.946012606544	1
4	997	518718.946012606544	0
4	1014	545424.158333933325	1
4	1016	545424.158333933325	0
4	1031	555635.137207542386	1
4	1033	555635.137207542386	0
4	1051	586948.245722758735	1
4	1053	586948.245722758735	0
4	1077	605546.229274185838	1
4	1079	605546.229274185838	0
4	1085	606580.271343986316	1
4	1087	606580.271343986316	0
4	1102	613346.735000953248	1
4	1104	613346.735000953248	0
4	1118	618104.401034342949	1
4	1120	618104.401034342949	0
4	1135	624385.517265992078	1
4	1137	624385.517265992078	0
4	1159	628200.972270614366	1
4	1161	628200.972270614366	0
4	1164	628290.090505398378	1
4	1169	629173.706475217379	0
4	1184	638857.066823186547	1
4	1186	638857.066823186547	0
4	1202	656616.593911843708	1
4	1204	656616.593911843708	0
4	1224	663299.326357989076	1
4	1229	664085.17693906838	0
4	1235	665646.79075090964	1
4	1237	665646.79075090964	0
4	1254	688429.397268012294	1
4	1256	688429.397268012294	0
4	1274	724435.556407249743	1
4	1276	724435.556407249743	0
4	1292	745412.604600744723	1
4	1294	745412.604600744723	0
4	1317	753339.213171529131	1
4	1319	753339.213171529131	0
4	1325	754550.317168069385	1
4	1327	754550.317168069385	0
4	1347	758275.10171947758	1
4	1352	758892.793153952628	0
4	1358	760704.246277375152	1
4	1360	760704.246277375152	0
4	1375	766952.892959513597	1
4	1377	766952.892959513597	0
4	1391	772525.219501951565	1
4	1393	772525.219501951565	0
4	1416	776180.472099144248	1
4	1418	776180.472099144248	0
4	1424	777090.879961194014	1
4	1426	777090.879961194014	0
4	1445	821123.754395401044	1
4	1447	821123.754395401044	0
4	1461	825957.550517321675	1
4	1463	825957.550517321675	0
4	1480	849981.001098009989	1
4	1482	849981.001098009989	0
4	1501	853592.039949158617	1
4	1506	854052.022185829571	0
4	1513	855915.282843641612	1
4	1515	855915.282843641612	0
4	1530	869888.767672585193	1
4	1532	869888.767672585193	0
4	1547	877578.015150307698	1
4	1549	877578.015150307698	0
4	1566	903242.348135085961	1
4	1568	903242.348135085961	0
4	1586	937748.860880371046	1
4	1588	937748.860880371046	0
4	1603	947724.646975655225	1
4	1605	947724.646975655225	0
4	1621	963256.500244891979	1
4	1623	963256.500244891979	0
4	1642	970162.957753704621	1
4	1647	970642.289436793266	0
4	1654	972544.173332499334	1
4	1656	972544.173332499334	0
4	1670	978671.266198365812	1
4	1672	978671.266198365812	0
4	1687	982604.729548263596	1
4	1689	982604.729548263596	0
4	1704	992960.9772390065	1
4	1706	992960.9772390065	0
4	1720	998131.912479796667	1
4	1722	998131.912479796667	0
4	1738	1012346.418470188249	1
4	1740	1012346.418470188249	0
4	1756	1033404.104764857777	1
4	1758	1033404.104764857777	0
4	1773	1037199.538294207393	1
4	1775	1037199.538294207393	0
4	1806	1049399.718769969943	1
4	1808	1049399.718769969943	0
4	1814	1050594.871743417128	1
4	1816	1050594.871743417128	0
4	1819	1050611.790330892013	1
4	1824	1051516.979922137221	0
4	1839	1058763.226297152303	1
4	1841	1058763.226297152303	0
4	1856	1070392.277435702858	1
4	1858	1070392.277435702858	0
4	1874	1080911.457703672275	1
4	1876	1080911.457703672275	0
4	1890	1088226.748873780284	1
4	1892	1088226.748873780284	0
4	1909	1113849.277460760376	1
4	1911	1113849.277460760376	0
4	1926	1120619.440277667721	1
4	1928	1120619.440277667721	0
4	1943	1132157.666798808984	1
4	1945	1132157.666798808984	0
4	1966	1144326.148411805508	1
4	1971	1145065.598947547649	0
4	1977	1146809.990724182017	1
4	1979	1146809.990724182017	0
4	2002	1156329.528477355299	1
4	2004	1156329.528477355299	0
4	2007	1157093.777418349999	1
4	2012	1157225.335781775223	0
5	642	306000	3
5	643	315000	0
5	660	324000	1
5	677	333000	1
5	694	342000	1
5	716	351000	1
5	744	360000	2
5	745	369000	0
5	746	378000	0
5	771	387000	2
5	780	396000	0
5	802	405000	1
5	830	414000	2
5	836	423000	0
5	856	432000	2
5	873	441000	1
5	898	450000	1
5	907	459000	1
5	916	468000	0
5	933	477000	1
5	934	486000	0
5	951	495000	1
5	952	504000	0
5	977	513000	2
5	1002	522000	1
5	1003	531000	0
5	1004	540000	0
5	1021	549000	1
5	1038	558000	1
5	1039	567000	0
5	1040	576000	0
5	1049	585000	1
5	1058	594000	0
5	1064	603000	0
5	1100	612000	3
5	1125	621000	1
5	1171	630000	3
5	1188	639000	1
5	1192	648000	0
5	1206	657000	1
5	1239	666000	2
5	1243	675000	0
5	1244	684000	0
5	1261	693000	1
5	1262	702000	0
5	1263	711000	0
5	1264	720000	0
5	1281	729000	1
5	1282	738000	0
5	1299	747000	1
5	1337	756000	2
5	1373	765000	3
5	1403	774000	1
5	1431	783000	2
5	1432	792000	0
5	1433	801000	0
5	1434	810000	0
5	1440	819000	0
5	1468	828000	2
5	1469	837000	0
5	1470	846000	0
5	1511	855000	3
5	1520	864000	0
5	1537	873000	1
5	1554	882000	1
5	1555	891000	0
5	1556	900000	0
5	1573	909000	1
5	1574	918000	0
5	1575	927000	0
5	1581	936000	0
5	1593	945000	1
5	1610	954000	1
5	1619	963000	1
5	1652	972000	2
5	1685	981000	2
5	1694	990000	0
5	1724	999000	2
5	1728	1008000	0
5	1745	1017000	1
5	1746	1026000	0
5	1768	1035000	1
5	1780	1044000	1
5	1829	1053000	3
5	1846	1062000	1
5	1860	1071000	1
5	1872	1080000	1
5	1894	1089000	1
5	1898	1098000	0
5	1899	1107000	0
5	1916	1116000	1
5	1933	1125000	1
5	1950	1134000	1
5	1959	1143000	1
5	1984	1152000	1
5	2017	1161000	2
6	642	306000	3
6	643	315000	0
6	660	324000	1
6	677	333000	1
6	694	342000	1
6	716	351000	1
6	744	360000	2
6	745	369000	0
6	746	378000	0
6	771	387000	1
6	780	396000	1
6	802	405000	1
6	830	414000	2
6	836	423000	0
6	856	432000	1
6	873	441000	1
6	898	450000	2
6	907	459000	0
6	916	468000	1
6	933	477000	1
6	934	486000	0
6	951	495000	1
6	952	504000	0
6	977	513000	1
6	1002	522000	2
6	1003	531000	0
6	1004	540000	0
6	1021	549000	1
6	1038	558000	1
6	1039	567000	0
6	1040	576000	0
6	1049	585000	0
6	1058	594000	1
6	1064	603000	0
6	1100	612000	2
6	1125	621000	2
6	1171	630000	2
6	1188	639000	1
6	1192	648000	1
6	1206	657000	0
6	1239	666000	2
6	1243	675000	1
6	1244	684000	0
6	1261	693000	1
6	1262	702000	0
6	1263	711000	0
6	1264	720000	0
6	1281	729000	1
6	1282	738000	0
6	1299	747000	1
6	1337	756000	2
6	1373	765000	2
6	1403	774000	2
6	1431	783000	2
6	1432	792000	0
6	1433	801000	0
6	1434	810000	0
6	1440	819000	0
6	1468	828000	2
6	1469	837000	0
6	1470	846000	0
6	1511	855000	2
6	1520	864000	1
6	1537	873000	1
6	1554	882000	1
6	1555	891000	0
6	1556	900000	0
6	1573	909000	1
6	1574	918000	0
6	1575	927000	0
6	1581	936000	0
6	1593	945000	1
6	1610	954000	1
6	1619	963000	0
6	1652	972000	2
6	1685	981000	2
6	1694	990000	1
6	1724	999000	1
6	1728	1008000	1
6	1745	1017000	1
6	1746	1026000	0
6	1768	1035000	1
6	1780	1044000	1
6	1829	1053000	3
6	1846	1062000	1
6	1860	1071000	0
6	1872	1080000	1
6	1894	1089000	1
6	1898	1098000	1
6	1899	1107000	0
6	1916	1116000	1
6	1933	1125000	1
6	1950	1134000	1
6	1959	1143000	0
6	1984	1152000	2
6	2017	1161000	2
7	610	300004.708419298994	1
7	623	301179.319851275338	0
7	627	301752.834850864552	1
7	634	303637.189271650499	0
7	650	319015.568683602773	1
7	652	320905.027370121004	0
7	667	325962.544815642404	1
7	669	327865.23369089829	0
7	684	338594.922817076345	1
7	686	340777.081749458355	0
7	701	347915.957828202131	1
7	703	349568.110316350339	0
7	718	351897.293661767093	1
7	720	353774.857194686664	0
7	734	356423.955146773777	1
7	736	358273.958519656266	0
7	753	378843.185010716882	1
7	755	380448.509276722818	0
7	769	386792.832021271166	1
7	772	388606.430044809796	0
7	787	401920.017139048908	1
7	789	403464.80058760462	0
7	804	405729.156070864919	1
7	806	407495.19766800628	0
7	820	410328.767252003879	1
7	822	412311.519564590993	0
7	838	423634.520563597909	1
7	840	425452.590998944125	0
7	854	431127.924487904174	1
7	857	432810.606784605986	0
7	871	439538.687681184428	1
7	874	441287.708748424732	0
7	888	447348.089395330221	1
7	890	449125.963146102847	0
7	905	458234.370174411475	1
7	908	459951.876223904573	0
7	923	470973.943976962916	1
7	925	472987.456083970554	0
7	941	490119.24192300219	1
7	943	491626.267388828715	0
7	959	509396.432106100918	1
7	966	511175.265757187581	0
7	970	511878.477150409048	1
7	978	513477.386297994368	0
7	992	516880.409847679365	1
7	994	518718.946012606544	0
7	1011	543781.934541272035	1
7	1013	545424.158333933325	0
7	1028	553763.081864057743	1
7	1030	555635.137207542386	0
7	1047	584921.094948832899	1
7	1050	586948.245722758735	0
7	1066	603747.20299013329	1
7	1074	604736.810690526759	2
7	1076	605546.229274185838	1
7	1084	606580.271343986316	0
7	1098	611767.151904371244	1
7	1101	613346.735000953248	0
7	1115	616320.524787776407	1
7	1117	618104.401034342949	0
7	1132	622670.838947067351	1
7	1134	624385.517265992078	0
7	1151	626113.772964708114	1
7	1156	626855.020266861852	2
7	1158	628200.972270614366	1
7	1163	628290.090505398378	0
7	1181	637223.868564288915	1
7	1183	638857.066823186547	0
7	1199	655137.861889944098	1
7	1201	656616.593911843708	0
7	1216	661600.826369544564	1
7	1223	663299.326357989076	0
7	1227	664085.17693906838	1
7	1234	665646.79075090964	0
7	1251	686620.939033336037	1
7	1253	688429.397268012294	0
7	1271	722726.759120375369	1
7	1273	724435.556407249743	0
7	1289	743643.683911433375	1
7	1291	745412.604600744723	0
7	1306	751551.916492039548	1
7	1314	752909.32310885366	2
7	1316	753339.213171529131	1
7	1324	754550.317168069385	0
7	1339	756523.146140998941	1
7	1346	758275.10171947758	0
7	1350	758892.793153952628	1
7	1357	760704.246277375152	0
7	1371	764986.634306294276	1
7	1374	766952.892959513597	0
7	1388	770980.162082103897	1
7	1390	772525.219501951565	0
7	1405	774298.679883389345	1
7	1413	775284.268395757618	2
7	1415	776180.472099144248	1
7	1423	777090.879961194014	0
7	1442	819216.581315802565	1
7	1444	821123.754395401044	0
7	1458	824302.36970671893	1
7	1460	825957.550517321675	0
7	1477	847845.505396116193	1
7	1479	849981.001098009989	0
7	1493	851716.77612428084	1
7	1500	853592.039949158617	0
7	1504	854052.022185829571	1
7	1512	855915.282843641612	0
7	1527	868153.364804591021	1
7	1529	869888.767672585193	0
7	1544	875605.87435277532	1
7	1546	877578.015150307698	0
7	1563	901715.783815485622	1
7	1565	903242.348135085961	0
7	1583	936223.901010792202	1
7	1585	937748.860880371046	0
7	1600	946048.122096547238	1
7	1602	947724.646975655225	0
7	1617	961275.040535547714	1
7	1620	963256.500244891979	0
7	1634	968437.567641622974	1
7	1641	970162.957753704621	0
7	1645	970642.289436793266	1
7	1653	972544.173332499334	0
7	1667	976816.701204541018	1
7	1669	978671.266198365812	0
7	1683	980743.785123711516	1
7	1686	982604.729548263596	0
7	1701	991026.951064797466	1
7	1703	992960.9772390065	0
7	1717	996416.67730045141	1
7	1719	998131.912479796667	0
7	1735	1010685.847771926379	1
7	1737	1012346.418470188249	0
7	1753	1031393.461403872612	1
7	1755	1033404.104764857777	0
7	1770	1035338.684375307962	1
7	1772	1037199.538294207393	0
7	1790	1047634.617553790641	1
7	1798	1048399.011776505297	2
7	1803	1049171.021484831251	3
7	1805	1049399.718769969943	2
7	1813	1050594.871743417128	1
7	1818	1050611.790330892013	0
7	1836	1057050.630586059745	1
7	1838	1058763.226297152303	0
7	1853	1068569.104099689949	1
7	1855	1070392.277435702858	0
7	1870	1078938.970216301679	1
7	1873	1080911.457703672275	0
7	1887	1086508.121150534187	1
7	1889	1088226.748873780284	0
7	1906	1111915.366531049836	1
7	1908	1113849.277460760376	0
7	1923	1118756.951849086111	1
7	1925	1120619.440277667721	0
7	1940	1130084.333008340021	1
7	1942	1132157.666798808984	0
7	1957	1142782.265934532491	1
7	1965	1144326.148411805508	0
7	1969	1145065.598947547649	1
7	1976	1146809.990724182017	0
7	1991	1154408.008734658191	1
7	1999	1155532.632916702986	2
7	2001	1156329.528477355299	1
7	2006	1157093.777418349999	0
