version 2
run ResponseMeasurement-118-20170110-19:47:08-22847
attr configname ResponseMeasurement
attr datetime 20170110-19:47:08
attr experiment ResponseMeasurement
attr inifile responseStudy.ini
attr iterationvars ""
attr iterationvars2 $repetition=118
attr measurement ""
attr network controltower.SimNetwork
attr processid 22847
attr repetition 118
attr replication #118
attr resultdir results
attr runnumber 118
attr seedset 118
param SimNetwork.a.parkingLot.parkingDelay "truncnormal(30min, 3min)"
param SimNetwork.a.runway.landingTime "truncnormal(15min, 1.5min)"
param SimNetwork.a.runway.takeoffTime "truncnormal(15min, 1.5min)"
param SimNetwork.a.runway.throughputCheckInterval 150min
param SimNetwork.wg.interArrivalTime exponential(150min)

vector 2  SimNetwork.a.landingQueue  queueLength:vector  ETV
attr source  queueLengthSignal
vector 1  SimNetwork.a.landingQueue  queueTime:vector  ETV
attr source  queueTimeSignal
vector 7  SimNetwork.a.parkingLot  parkingOccupancy:vector  ETV
attr source  parkingOccupancy
vector 5  SimNetwork.a.runway  landedThroughput:vector  ETV
attr source  landedThroughputSignal
vector 6  SimNetwork.a.runway  tookoffThroughput:vector  ETV
attr source  tookoffThroughputSignal
vector 4  SimNetwork.a.takeoffQueue  queueLength:vector  ETV
attr source  queueLengthSignal
vector 3  SimNetwork.a.takeoffQueue  queueTime:vector  ETV
attr source  queueTimeSignal
vector 0  SimNetwork.wg  responseTime:vector  ETV
attr source  responseTimeSignal
0	481	308145.784873484669	29078.160154065
0	508	333719.021844364923	29309.250402661
0	516	335389.632561344498	5895.8522449924
0	533	342539.076384843567	10709.943133988
0	549	347326.703415892406	8247.2896087421
0	566	354711.146529562234	11006.779980746
0	583	365459.590341744561	14613.745646145
0	600	369877.511888775836	8025.674237413
0	617	378343.935959426924	11895.691242362
0	633	384141.930223620588	9353.9000246655
0	650	388590.313422036779	8277.4755664275
0	686	396537.702546125864	11326.072334783
0	694	397421.456934694805	5671.7519234523
0	699	398336.663565203218	4418.021888863
0	724	409592.078339461229	15144.87792665
0	732	410697.919121649692	4840.9734770691
0	760	414339.125627055201	7296.6385579523
0	773	415972.619567562587	5122.2385529488
0	789	418097.094818561186	6283.3914840048
0	797	419796.820387391286	5518.8853349604
0	814	430812.58379775851	14503.542471586
0	832	443571.696869691093	16256.173746674
0	850	461711.130906407225	21340.68068398
0	866	467447.949340472145	9566.8080191619
0	892	481505.72512822628	17461.741687933
0	900	482276.999037041959	4307.8379506048
0	937	499100.92127241745	20899.120929344
0	945	500144.748200294391	5476.4394386548
0	953	501129.589987955309	6014.2025810733
0	967	504646.891802888855	7448.6006481967
0	983	510645.984900051581	10028.823525468
0	1000	517467.702731686886	10214.537435795
0	1025	523028.805887511972	9268.9785651176
0	1033	524808.851676997007	6314.6618231556
0	1058	535070.371822516044	13854.508678379
0	1066	536590.225289497498	4732.1054507982
0	1083	540794.73964165496	8172.4326802555
0	1101	559823.126754751457	22500.504377717
0	1117	563955.791536237623	7480.9973014278
0	1135	583322.672217395214	23043.234153596
0	1152	587415.889981919809	8145.757924219
0	1171	614262.666661911589	30397.337016889
0	1187	618792.862186738368	8145.5663353098
0	1213	632374.999895669696	16960.808595874
0	1221	633500.864795068952	4815.1859828685
0	1239	654866.900469409839	25115.772436531
0	1256	659667.910503488534	8402.735684818
0	1274	678482.434804342705	22142.838999164
0	1292	695863.486819815361	21187.36405964
0	1309	710929.010688718538	18346.471092278
0	1337	738160.454662307045	31040.589173055
0	1345	739823.435157563883	4750.3186571431
0	1369	746881.474183742118	10377.816746431
0	1381	748056.892732024007	4725.2010046701
0	1394	751926.803934027892	7235.9781999462
0	1411	759127.034521579335	11358.580411713
0	1428	772086.252826793256	16528.514086361
0	1445	779825.659636595027	11557.182028798
0	1462	785918.398600831786	9697.5952599827
0	1481	816409.6589773393	33820.547969826
0	1508	838468.771830305902	25534.465745104
0	1516	840203.832727285743	5160.0357897663
0	1532	844185.890825414163	7455.1643019494
0	1550	863217.607881709486	22520.010131999
0	1570	866875.152525988806	7407.0293691775
0	1602	870795.521177148122	7478.4848342416
0	1610	871760.663816635675	5112.9663431233
0	1615	872506.124365436474	4567.7869025384
0	1634	897585.366298182083	29435.481932868
0	1659	901971.08394089973	7813.4506097247
0	1667	903401.718553157916	5161.4414094896
0	1683	907092.680479161304	7081.5322030921
0	1703	938291.704518056191	34788.195255078
0	1719	943253.936215714187	8445.4933113287
0	1744	947132.998478131849	7606.2331601902
0	1752	948137.505523318246	4628.1331768329
0	1769	957544.108834550491	13236.933731275
0	1787	972411.270972081944	18873.558078539
0	1803	977856.071363261723	9197.1143595112
0	1824	997235.20541812589	22708.426404542
0	1838	1000773.830651669512	7400.3914073
0	1855	1008649.05653677392	11817.62888067
0	1885	1036164.007799759521	31062.360761189
0	1893	1037135.614754892396	4562.1256477902
0	1914	1041511.540491363555	7946.7321431084
0	1922	1043012.76196744185	6664.0915642775
0	1945	1077318.179601057516	37663.795031592
0	1959	1080474.588153601044	6799.0121742782
0	1976	1091950.7105529235	14680.010345985
0	1992	1095845.596102321407	7531.3370972737
0	2010	1110362.194614083095	18121.497146681
0	2026	1114693.041733272715	8268.9028357913
0	2073	1119331.39874922865	8077.8913886272
0	2078	1120217.372649757414	5302.9509837211
0	2086	1121183.642830077959	5665.8648567921
0	2091	1122091.635888812462	5809.3582300328
0	2110	1150391.126853823328	34098.357048299
1	469	304409.771441703638	0
1	488	329493.780316352138	0
1	496	331829.133250855651	0
1	521	339079.413807150353	0
1	538	343704.366548816131	0
1	554	350845.844695599217	0
1	572	361851.837651362869	0
1	588	366448.244717064609	0
1	605	374788.030198955081	0
1	622	380312.837855609241	0
1	638	385211.630211342667	0
1	655	391749.705011242457	0
1	663	393918.641676340243	0
1	671	394697.686015377804	250.48560256643
1	705	405856.945644580543	0
1	713	407042.487069102891	0
1	737	410850.381014613795	0
1	745	411813.703334556405	0
1	762	414339.125627055201	61.190574624309
1	778	416309.041326172858	0
1	803	427315.523123016706	0
1	820	440370.450222427628	0
1	838	457881.141321310256	0
1	855	464043.9834402936	0
1	873	477969.161086437136	0
1	881	478788.892343192172	587.09200011838
1	906	494668.308761639598	0
1	915	495651.743364168998	536.35595728702
1	923	497198.291154692197	0
1	955	501129.589987955309	512.4286133718
1	972	507253.165295891828	0
1	989	513759.827322394418	0
1	1005	518494.189853841406	0
1	1013	521215.863144136976	0
1	1039	531858.119838699336	0
1	1047	532622.306961399508	0
1	1071	537322.622377034392	0
1	1089	556474.794234809816	0
1	1106	560279.438063798796	0
1	1124	579270.132057700788	0
1	1140	583865.32964502258	0
1	1159	610647.295851428604	0
1	1176	615414.191299795292	0
1	1193	628685.67881220047	0
1	1201	629751.128032878457	0
1	1228	651265.174818670533	0
1	1244	656339.595805178967	0
1	1262	674676.122760175307	0
1	1280	692582.539596440101	0
1	1298	707119.865489251591	0
1	1317	735073.116500420739	0
1	1325	736503.657437310837	0
1	1350	743331.691727353941	0
1	1358	744690.825734081726	0
1	1383	748056.892732024007	288.4386221572
1	1399	755557.738740432318	0
1	1417	768268.477607796596	0
1	1434	776220.803340849054	0
1	1450	782589.111007513742	0
1	1470	812934.306085201882	0
1	1488	835043.79693751947	0
1	1496	836730.726523464769	0
1	1521	840697.597749710293	0
1	1539	859468.123156811281	0
1	1555	863317.03634290656	0
1	1572	866875.152525988806	227.45505247639
1	1580	867938.337462898051	0
1	1588	868745.600350696172	595.71598538192
1	1623	894157.633331175	0
1	1639	898240.277143668277	0
1	1648	900011.148276069176	0
1	1672	903503.509262978081	0
1	1691	934808.442904385437	0
1	1708	939526.765317941697	0
1	1724	943509.372346485373	0
1	1732	944307.175103275274	0
1	1757	953537.712893543408	0
1	1775	968658.957003750518	0
1	1792	974526.779013584014	0
1	1810	993373.439244369486	0
1	1826	997235.20541812589	403.77776202231
1	1843	1005101.647038570345	0
1	1862	1032573.489107102193	0
1	1870	1033623.306671594882	58.498323339772
1	1895	1037135.614754892396	786.94435172805
1	1903	1039654.384569465219	0
1	1931	1073675.575979322879	0
1	1947	1077318.179601057516	47.479394118579
1	1964	1088314.259005047717	0
1	1981	1092240.697467402478	0
1	1998	1106424.138897481376	0
1	2015	1111253.5073606014	0
1	2031	1114914.421666036302	0
1	2039	1115668.530291416256	150.75231813035
1	2051	1116558.55504937357	276.27739059389
1	2059	1117505.534201865415	1212.7643963409
1	2099	1146671.725602442937	0
2	467	304409.771441703638	1
2	469	304409.771441703638	0
2	486	329493.780316352138	1
2	488	329493.780316352138	0
2	494	331829.133250855651	1
2	496	331829.133250855651	0
2	519	339079.413807150353	1
2	521	339079.413807150353	0
2	536	343704.366548816131	1
2	538	343704.366548816131	0
2	552	350845.844695599217	1
2	554	350845.844695599217	0
2	570	361851.837651362869	1
2	572	361851.837651362869	0
2	586	366448.244717064609	1
2	588	366448.244717064609	0
2	603	374788.030198955081	1
2	605	374788.030198955081	0
2	620	380312.837855609241	1
2	622	380312.837855609241	0
2	636	385211.630211342667	1
2	638	385211.630211342667	0
2	653	391749.705011242457	1
2	655	391749.705011242457	0
2	661	393918.641676340243	1
2	663	393918.641676340243	0
2	666	394447.200412811371	1
2	671	394697.686015377804	0
2	703	405856.945644580543	1
2	705	405856.945644580543	0
2	711	407042.487069102891	1
2	713	407042.487069102891	0
2	735	410850.381014613795	1
2	737	410850.381014613795	0
2	743	411813.703334556405	1
2	745	411813.703334556405	0
2	757	414277.935052430892	1
2	762	414339.125627055201	0
2	776	416309.041326172858	1
2	778	416309.041326172858	0
2	801	427315.523123016706	1
2	803	427315.523123016706	0
2	818	440370.450222427628	1
2	820	440370.450222427628	0
2	836	457881.141321310256	1
2	838	457881.141321310256	0
2	853	464043.9834402936	1
2	855	464043.9834402936	0
2	871	477969.161086437136	1
2	873	477969.161086437136	0
2	876	478201.800343073796	1
2	881	478788.892343192172	0
2	904	494668.308761639598	1
2	906	494668.308761639598	0
2	910	495115.387406881976	1
2	915	495651.743364168998	0
2	921	497198.291154692197	1
2	923	497198.291154692197	0
2	950	500617.161374583508	1
2	955	501129.589987955309	0
2	970	507253.165295891828	1
2	972	507253.165295891828	0
2	987	513759.827322394418	1
2	989	513759.827322394418	0
2	1003	518494.189853841406	1
2	1005	518494.189853841406	0
2	1011	521215.863144136976	1
2	1013	521215.863144136976	0
2	1037	531858.119838699336	1
2	1039	531858.119838699336	0
2	1045	532622.306961399508	1
2	1047	532622.306961399508	0
2	1069	537322.622377034392	1
2	1071	537322.622377034392	0
2	1087	556474.794234809816	1
2	1089	556474.794234809816	0
2	1104	560279.438063798796	1
2	1106	560279.438063798796	0
2	1122	579270.132057700788	1
2	1124	579270.132057700788	0
2	1138	583865.32964502258	1
2	1140	583865.32964502258	0
2	1157	610647.295851428604	1
2	1159	610647.295851428604	0
2	1174	615414.191299795292	1
2	1176	615414.191299795292	0
2	1191	628685.67881220047	1
2	1193	628685.67881220047	0
2	1199	629751.128032878457	1
2	1201	629751.128032878457	0
2	1226	651265.174818670533	1
2	1228	651265.174818670533	0
2	1242	656339.595805178967	1
2	1244	656339.595805178967	0
2	1260	674676.122760175307	1
2	1262	674676.122760175307	0
2	1278	692582.539596440101	1
2	1280	692582.539596440101	0
2	1296	707119.865489251591	1
2	1298	707119.865489251591	0
2	1315	735073.116500420739	1
2	1317	735073.116500420739	0
2	1323	736503.657437310837	1
2	1325	736503.657437310837	0
2	1348	743331.691727353941	1
2	1350	743331.691727353941	0
2	1356	744690.825734081726	1
2	1358	744690.825734081726	0
2	1378	747768.454109866808	1
2	1383	748056.892732024007	0
2	1397	755557.738740432318	1
2	1399	755557.738740432318	0
2	1415	768268.477607796596	1
2	1417	768268.477607796596	0
2	1432	776220.803340849054	1
2	1434	776220.803340849054	0
2	1448	782589.111007513742	1
2	1450	782589.111007513742	0
2	1468	812934.306085201882	1
2	1470	812934.306085201882	0
2	1486	835043.79693751947	1
2	1488	835043.79693751947	0
2	1494	836730.726523464769	1
2	1496	836730.726523464769	0
2	1519	840697.597749710293	1
2	1521	840697.597749710293	0
2	1537	859468.123156811281	1
2	1539	859468.123156811281	0
2	1553	863317.03634290656	1
2	1555	863317.03634290656	0
2	1567	866647.697473512411	1
2	1572	866875.152525988806	0
2	1578	867938.337462898051	1
2	1580	867938.337462898051	0
2	1583	868149.884365314252	1
2	1588	868745.600350696172	0
2	1621	894157.633331175	1
2	1623	894157.633331175	0
2	1637	898240.277143668277	1
2	1639	898240.277143668277	0
2	1646	900011.148276069176	1
2	1648	900011.148276069176	0
2	1670	903503.509262978081	1
2	1672	903503.509262978081	0
2	1689	934808.442904385437	1
2	1691	934808.442904385437	0
2	1706	939526.765317941697	1
2	1708	939526.765317941697	0
2	1722	943509.372346485373	1
2	1724	943509.372346485373	0
2	1730	944307.175103275274	1
2	1732	944307.175103275274	0
2	1755	953537.712893543408	1
2	1757	953537.712893543408	0
2	1773	968658.957003750518	1
2	1775	968658.957003750518	0
2	1790	974526.779013584014	1
2	1792	974526.779013584014	0
2	1808	993373.439244369486	1
2	1810	993373.439244369486	0
2	1821	996831.427656103577	1
2	1826	997235.20541812589	0
2	1841	1005101.647038570345	1
2	1843	1005101.647038570345	0
2	1860	1032573.489107102193	1
2	1862	1032573.489107102193	0
2	1865	1033564.80834825511	1
2	1870	1033623.306671594882	0
2	1890	1036348.670403164343	1
2	1895	1037135.614754892396	0
2	1901	1039654.384569465219	1
2	1903	1039654.384569465219	0
2	1929	1073675.575979322879	1
2	1931	1073675.575979322879	0
2	1942	1077270.700206938937	1
2	1947	1077318.179601057516	0
2	1962	1088314.259005047717	1
2	1964	1088314.259005047717	0
2	1979	1092240.697467402478	1
2	1981	1092240.697467402478	0
2	1996	1106424.138897481376	1
2	1998	1106424.138897481376	0
2	2013	1111253.5073606014	1
2	2015	1111253.5073606014	0
2	2029	1114914.421666036302	1
2	2031	1114914.421666036302	0
2	2034	1115517.777973285902	1
2	2039	1115668.530291416256	0
2	2043	1116282.277658779684	1
2	2046	1116292.769805524517	2
2	2051	1116558.55504937357	1
2	2059	1117505.534201865415	0
2	2097	1146671.725602442937	1
2	2099	1146671.725602442937	0
3	478	307245.163725193865	0
3	504	332833.214785869002	435.65740295855
3	513	334482.028771274753	0
3	529	341710.745698126548	0
3	546	346654.731727601666	0
3	563	353856.069088158685	0
3	580	364604.314872254702	0
3	596	368944.248550419639	0
3	613	377436.454346753995	0
3	630	383319.21689255377	0
3	647	387718.120575168274	0
3	679	395581.000294253582	831.54074845517
3	688	396537.702546125864	208.5043098305
3	696	397421.456934694805	144.1910122943
3	721	408760.233534728122	0
3	729	409820.121369749323	0
3	753	413600.088297806595	0
3	770	415105.802624098394	682.30171034437
3	786	417181.170903693053	255.22041485319
3	794	419038.354855928066	0
3	811	429956.774875274326	0
3	829	442664.808441748362	0
3	847	460675.254650540424	0
3	863	466528.168738673595	0
3	889	480657.30305292073	0
3	897	481542.817795187627	0
3	934	498188.818630230558	839.77304517842
3	939	499100.92127241745	1172.4361212853
3	947	500144.748200294391	171.24423695543
3	963	503832.223714516906	0
3	980	509769.827018285001	0
3	997	516547.729360101912	0
3	1022	522140.860767959699	865.77011407614
3	1030	523939.372306498881	0
3	1055	534237.400497359462	0
3	1063	535599.27310786381	0
3	1079	539892.749413873328	0
3	1098	558848.961396532513	0
3	1114	562916.938209150968	0
3	1132	582427.560985123153	0
3	1149	586367.586542481755	0
3	1168	613399.49476860979	0
3	1184	618027.215702396772	0
3	1210	631534.999053322832	0
3	1218	632565.729328376731	0
3	1236	653950.467897128237	0
3	1253	658802.868708133759	0
3	1271	677575.80570115962	0
3	1289	695050.130385765205	0
3	1306	710049.249469446996	0
3	1333	737493.720283278544	0
3	1342	738989.538971113076	0
3	1366	746019.302469688247	0
3	1375	747232.384796751684	0
3	1391	750912.817517512039	0
3	1408	758277.200815889046	0
3	1425	771320.762319999466	0
3	1442	778808.592305657747	0
3	1459	785062.168584664226	0
3	1478	815653.669919632582	0
3	1505	837629.248912603955	9.640203745408
3	1513	839400.866228950454	0
3	1529	843227.707974619537	0
3	1547	862213.688341015691	0
3	1564	865981.261166302548	0
3	1596	869738.941325872112	0
3	1604	870795.521177148122	730.50183378445
3	1612	871760.663816635675	286.23349881198
3	1631	896868.392639130007	0
3	1656	901041.127533615082	0
3	1664	902430.982527810455	0
3	1680	906072.320202402813	0
3	1700	937466.752518286279	0
3	1716	942158.791589064993	0
3	1741	946130.551161245549	0
3	1749	947282.404020163318	0
3	1766	956673.482542517971	0
3	1783	971474.720113569906	0
3	1800	976889.971689408754	0
3	1818	996227.122116922707	0
3	1835	999864.076554981828	0
3	1851	1007839.655124240495	0
3	1879	1035431.588155384514	0
3	1887	1036164.007799759521	184.5873851287
3	1911	1040528.596108659539	311.43210471957
3	1919	1042242.410178812357	0
3	1939	1076403.452614600274	0
3	1955	1079551.901595292527	0
3	1973	1090971.252478297897	0
3	1989	1094929.485152507578	0
3	2007	1109337.862862415791	0
3	2023	1113771.713311692922	0
3	2067	1118495.036609768322	1079.0218580743
3	2075	1119331.39874922865	1082.0836072494
3	2080	1120217.372649757414	1115.1571032017
3	2088	1121183.642830077959	799.97811573911
3	2107	1149606.965133223704	0
4	476	307245.163725193865	1
4	478	307245.163725193865	0
4	499	332397.55738291045	1
4	504	332833.214785869002	0
4	511	334482.028771274753	1
4	513	334482.028771274753	0
4	527	341710.745698126548	1
4	529	341710.745698126548	0
4	544	346654.731727601666	1
4	546	346654.731727601666	0
4	561	353856.069088158685	1
4	563	353856.069088158685	0
4	578	364604.314872254702	1
4	580	364604.314872254702	0
4	594	368944.248550419639	1
4	596	368944.248550419639	0
4	611	377436.454346753995	1
4	613	377436.454346753995	0
4	628	383319.21689255377	1
4	630	383319.21689255377	0
4	645	387718.120575168274	1
4	647	387718.120575168274	0
4	674	394749.459545798414	1
4	679	395581.000294253582	0
4	683	396329.198236295369	1
4	688	396537.702546125864	0
4	691	397277.265922400504	1
4	696	397421.456934694805	0
4	719	408760.233534728122	1
4	721	408760.233534728122	0
4	727	409820.121369749323	1
4	729	409820.121369749323	0
4	751	413600.088297806595	1
4	753	413600.088297806595	0
4	765	414423.500913754027	1
4	770	415105.802624098394	0
4	781	416925.950488839861	1
4	786	417181.170903693053	0
4	792	419038.354855928066	1
4	794	419038.354855928066	0
4	809	429956.774875274326	1
4	811	429956.774875274326	0
4	827	442664.808441748362	1
4	829	442664.808441748362	0
4	845	460675.254650540424	1
4	847	460675.254650540424	0
4	861	466528.168738673595	1
4	863	466528.168738673595	0
4	887	480657.30305292073	1
4	889	480657.30305292073	0
4	895	481542.817795187627	1
4	897	481542.817795187627	0
4	926	497349.045585052134	1
4	929	497928.485151132149	2
4	934	498188.818630230558	1
4	939	499100.92127241745	0
4	942	499973.503963338964	1
4	947	500144.748200294391	0
4	961	503832.223714516906	1
4	963	503832.223714516906	0
4	978	509769.827018285001	1
4	980	509769.827018285001	0
4	995	516547.729360101912	1
4	997	516547.729360101912	0
4	1016	521275.090653883558	1
4	1022	522140.860767959699	0
4	1028	523939.372306498881	1
4	1030	523939.372306498881	0
4	1053	534237.400497359462	1
4	1055	534237.400497359462	0
4	1061	535599.27310786381	1
4	1063	535599.27310786381	0
4	1077	539892.749413873328	1
4	1079	539892.749413873328	0
4	1096	558848.961396532513	1
4	1098	558848.961396532513	0
4	1112	562916.938209150968	1
4	1114	562916.938209150968	0
4	1130	582427.560985123153	1
4	1132	582427.560985123153	0
4	1147	586367.586542481755	1
4	1149	586367.586542481755	0
4	1166	613399.49476860979	1
4	1168	613399.49476860979	0
4	1182	618027.215702396772	1
4	1184	618027.215702396772	0
4	1208	631534.999053322832	1
4	1210	631534.999053322832	0
4	1216	632565.729328376731	1
4	1218	632565.729328376731	0
4	1234	653950.467897128237	1
4	1236	653950.467897128237	0
4	1251	658802.868708133759	1
4	1253	658802.868708133759	0
4	1269	677575.80570115962	1
4	1271	677575.80570115962	0
4	1287	695050.130385765205	1
4	1289	695050.130385765205	0
4	1304	710049.249469446996	1
4	1306	710049.249469446996	0
4	1331	737493.720283278544	1
4	1333	737493.720283278544	0
4	1340	738989.538971113076	1
4	1342	738989.538971113076	0
4	1364	746019.302469688247	1
4	1366	746019.302469688247	0
4	1373	747232.384796751684	1
4	1375	747232.384796751684	0
4	1389	750912.817517512039	1
4	1391	750912.817517512039	0
4	1406	758277.200815889046	1
4	1408	758277.200815889046	0
4	1423	771320.762319999466	1
4	1425	771320.762319999466	0
4	1440	778808.592305657747	1
4	1442	778808.592305657747	0
4	1457	785062.168584664226	1
4	1459	785062.168584664226	0
4	1476	815653.669919632582	1
4	1478	815653.669919632582	0
4	1500	837619.608708858547	1
4	1505	837629.248912603955	0
4	1511	839400.866228950454	1
4	1513	839400.866228950454	0
4	1527	843227.707974619537	1
4	1529	843227.707974619537	0
4	1545	862213.688341015691	1
4	1547	862213.688341015691	0
4	1562	865981.261166302548	1
4	1564	865981.261166302548	0
4	1594	869738.941325872112	1
4	1596	869738.941325872112	0
4	1599	870065.019343363675	1
4	1604	870795.521177148122	0
4	1607	871474.430317823694	1
4	1612	871760.663816635675	0
4	1629	896868.392639130007	1
4	1631	896868.392639130007	0
4	1654	901041.127533615082	1
4	1656	901041.127533615082	0
4	1662	902430.982527810455	1
4	1664	902430.982527810455	0
4	1678	906072.320202402813	1
4	1680	906072.320202402813	0
4	1698	937466.752518286279	1
4	1700	937466.752518286279	0
4	1714	942158.791589064993	1
4	1716	942158.791589064993	0
4	1739	946130.551161245549	1
4	1741	946130.551161245549	0
4	1747	947282.404020163318	1
4	1749	947282.404020163318	0
4	1764	956673.482542517971	1
4	1766	956673.482542517971	0
4	1781	971474.720113569906	1
4	1783	971474.720113569906	0
4	1798	976889.971689408754	1
4	1800	976889.971689408754	0
4	1816	996227.122116922707	1
4	1818	996227.122116922707	0
4	1833	999864.076554981828	1
4	1835	999864.076554981828	0
4	1849	1007839.655124240495	1
4	1851	1007839.655124240495	0
4	1877	1035431.588155384514	1
4	1879	1035431.588155384514	0
4	1882	1035979.420414630821	1
4	1887	1036164.007799759521	0
4	1906	1040217.164003939966	1
4	1911	1040528.596108659539	0
4	1917	1042242.410178812357	1
4	1919	1042242.410178812357	0
4	1937	1076403.452614600274	1
4	1939	1076403.452614600274	0
4	1953	1079551.901595292527	1
4	1955	1079551.901595292527	0
4	1971	1090971.252478297897	1
4	1973	1090971.252478297897	0
4	1987	1094929.485152507578	1
4	1989	1094929.485152507578	0
4	2005	1109337.862862415791	1
4	2007	1109337.862862415791	0
4	2021	1113771.713311692922	1
4	2023	1113771.713311692922	0
4	2054	1117416.014751693999	1
4	2062	1118249.315141979204	2
4	2067	1118495.036609768322	1
4	2070	1119102.215546555693	2
4	2075	1119331.39874922865	1
4	2080	1120217.372649757414	0
4	2083	1120383.664714338847	1
4	2088	1121183.642830077959	0
4	2105	1149606.965133223704	1
4	2107	1149606.965133223704	0
5	474	306000	1
5	483	315000	0
5	484	324000	0
5	506	333000	2
5	531	342000	1
5	556	351000	1
5	568	360000	1
5	598	369000	2
5	615	378000	1
5	643	387000	2
5	681	396000	3
5	701	405000	0
5	755	414000	4
5	799	423000	2
5	816	432000	1
5	822	441000	0
5	834	450000	1
5	843	459000	1
5	868	468000	1
5	869	477000	0
5	902	486000	2
5	908	495000	0
5	965	504000	4
5	985	513000	1
5	1018	522000	2
5	1035	531000	1
5	1081	540000	3
5	1085	549000	0
5	1094	558000	1
5	1119	567000	1
5	1120	576000	0
5	1145	585000	2
5	1154	594000	0
5	1155	603000	0
5	1164	612000	1
5	1189	621000	1
5	1203	630000	1
5	1223	639000	1
5	1224	648000	0
5	1246	657000	1
5	1258	666000	1
5	1264	675000	0
5	1276	684000	1
5	1282	693000	0
5	1294	702000	1
5	1311	711000	1
5	1312	720000	0
5	1313	729000	0
5	1335	738000	2
5	1371	747000	2
5	1401	756000	1
5	1413	765000	1
5	1430	774000	1
5	1452	783000	1
5	1464	792000	1
5	1465	801000	0
5	1466	810000	0
5	1483	819000	1
5	1484	828000	0
5	1498	837000	1
5	1534	846000	2
5	1535	855000	0
5	1557	864000	1
5	1617	873000	4
5	1618	882000	0
5	1619	891000	0
5	1644	900000	2
5	1685	909000	2
5	1686	918000	0
5	1687	927000	0
5	1696	936000	1
5	1734	945000	2
5	1759	954000	1
5	1771	963000	1
5	1785	972000	1
5	1805	981000	1
5	1806	990000	0
5	1831	999000	2
5	1853	1008000	1
5	1857	1017000	0
5	1858	1026000	0
5	1875	1035000	2
5	1924	1044000	2
5	1925	1053000	0
5	1926	1062000	0
5	1927	1071000	0
5	1957	1080000	2
5	1966	1089000	0
5	1994	1098000	2
5	2000	1107000	0
5	2041	1116000	3
5	2093	1125000	3
5	2094	1134000	0
5	2095	1143000	0
5	2112	1152000	1
5	2113	1161000	0
6	474	306000	0
6	483	315000	1
6	484	324000	0
6	506	333000	0
6	531	342000	2
6	556	351000	2
6	568	360000	1
6	598	369000	1
6	615	378000	1
6	643	387000	2
6	681	396000	1
6	701	405000	3
6	755	414000	2
6	799	423000	4
6	816	432000	1
6	822	441000	0
6	834	450000	1
6	843	459000	0
6	868	468000	2
6	869	477000	0
6	902	486000	2
6	908	495000	0
6	965	504000	3
6	985	513000	2
6	1018	522000	1
6	1035	531000	2
6	1081	540000	2
6	1085	549000	1
6	1094	558000	0
6	1119	567000	2
6	1120	576000	0
6	1145	585000	1
6	1154	594000	1
6	1155	603000	0
6	1164	612000	0
6	1189	621000	2
6	1203	630000	0
6	1223	639000	2
6	1224	648000	0
6	1246	657000	1
6	1258	666000	1
6	1264	675000	0
6	1276	684000	1
6	1282	693000	0
6	1294	702000	1
6	1311	711000	1
6	1312	720000	0
6	1313	729000	0
6	1335	738000	0
6	1371	747000	3
6	1401	756000	2
6	1413	765000	1
6	1430	774000	1
6	1452	783000	1
6	1464	792000	1
6	1465	801000	0
6	1466	810000	0
6	1483	819000	1
6	1484	828000	0
6	1498	837000	0
6	1534	846000	3
6	1535	855000	0
6	1557	864000	1
6	1617	873000	4
6	1618	882000	0
6	1619	891000	0
6	1644	900000	1
6	1685	909000	3
6	1686	918000	0
6	1687	927000	0
6	1696	936000	0
6	1734	945000	2
6	1759	954000	2
6	1771	963000	1
6	1785	972000	0
6	1805	981000	2
6	1806	990000	0
6	1831	999000	1
6	1853	1008000	1
6	1857	1017000	1
6	1858	1026000	0
6	1875	1035000	0
6	1924	1044000	4
6	1925	1053000	0
6	1926	1062000	0
6	1927	1071000	0
6	1957	1080000	1
6	1966	1089000	1
6	1994	1098000	2
6	2000	1107000	0
6	2041	1116000	2
6	2093	1125000	4
6	2094	1134000	0
6	2095	1143000	0
6	2112	1152000	1
6	2113	1161000	0
7	472	305324.294250584968	1
7	475	307245.163725193865	0
7	491	330310.812108391297	1
7	498	332397.55738291045	0
7	502	332833.214785869002	1
7	510	334482.028771274753	0
7	524	339900.857724648669	1
7	526	341710.745698126548	0
7	541	344654.057900467137	1
7	543	346654.731727601666	0
7	558	351838.431751769119	1
7	560	353856.069088158685	0
7	575	362725.913566845468	1
7	577	364604.314872254702	0
7	591	367319.284075315186	1
7	593	368944.248550419639	0
7	608	375740.33210727984	1
7	610	377436.454346753995	0
7	625	381269.399253539461	1
7	627	383319.21689255377	0
7	641	386124.818364562268	1
7	644	387718.120575168274	0
7	658	392687.856240883032	1
7	669	394697.686015377804	2
7	673	394749.459545798414	1
7	677	395581.000294253582	2
7	682	396329.198236295369	1
7	690	397277.265922400504	0
7	708	406751.795293078737	1
7	716	407929.947409455693	2
7	718	408760.233534728122	1
7	726	409820.121369749323	0
7	740	411750.118008035256	1
7	748	412797.459687239927	2
7	750	413600.088297806595	1
7	764	414423.500913754027	0
7	768	415105.802624098394	1
7	780	416925.950488839861	0
7	784	417181.170903693053	1
7	791	419038.354855928066	0
7	806	428192.900531343484	1
7	808	429956.774875274326	0
7	824	441134.4992226709	1
7	826	442664.808441748362	0
7	841	458866.786837990267	1
7	844	460675.254650540424	0
7	858	465045.437229681583	1
7	860	466528.168738673595	0
7	879	478788.892343192172	1
7	884	479660.925233072625	2
7	886	480657.30305292073	1
7	894	481542.817795187627	0
7	913	495651.743364168998	1
7	918	496359.791247505204	2
7	925	497349.045585052134	1
7	928	497928.485151132149	0
7	932	498188.818630230558	1
7	941	499973.503963338964	0
7	958	501984.949550411069	1
7	960	503832.223714516906	0
7	975	508064.633758626231	1
7	977	509769.827018285001	0
7	992	514591.730096864321	1
7	994	516547.729360101912	0
7	1008	519339.178286199071	1
7	1015	521275.090653883558	0
7	1020	522140.860767959699	1
7	1027	523939.372306498881	0
7	1042	532472.971538790509	1
7	1050	533689.917775128057	2
7	1052	534237.400497359462	1
7	1060	535599.27310786381	0
7	1074	538119.489649961319	1
7	1076	539892.749413873328	0
7	1092	557301.486775113161	1
7	1095	558848.961396532513	0
7	1109	561288.576546368266	1
7	1111	562916.938209150968	0
7	1127	580111.569726425344	1
7	1129	582427.560985123153	0
7	1143	584597.329894638115	1
7	1146	586367.586542481755	0
7	1162	611501.122753542058	1
7	1165	613399.49476860979	0
7	1179	616259.601590390963	1
7	1181	618027.215702396772	0
7	1196	629643.859231565133	1
7	1205	630686.28889621416	2
7	1207	631534.999053322832	1
7	1215	632565.729328376731	0
7	1231	652325.086017407557	1
7	1233	653950.467897128237	0
7	1248	657219.958405340853	1
7	1250	658802.868708133759	0
7	1266	675691.985667236189	1
7	1268	677575.80570115962	0
7	1284	693355.463908984925	1
7	1286	695050.130385765205	0
7	1301	708125.263583981297	1
7	1303	710049.249469446996	0
7	1320	735953.894723015015	1
7	1328	737376.577926228932	2
7	1330	737493.720283278544	1
7	1339	738989.538971113076	0
7	1353	744243.502202980061	1
7	1361	745616.538117365679	2
7	1363	746019.302469688247	1
7	1372	747232.384796751684	0
7	1386	748931.196836983546	1
7	1388	750912.817517512039	0
7	1403	756315.185048427861	1
7	1405	758277.200815889046	0
7	1420	769269.97265189504	1
7	1422	771320.762319999466	0
7	1437	777046.305892128278	1
7	1439	778808.592305657747	0
7	1454	783389.741252317474	1
7	1456	785062.168584664226	0
7	1473	814102.811960437416	1
7	1475	815653.669919632582	0
7	1491	835957.203613132584	1
7	1499	837619.608708858547	0
7	1503	837629.248912603955	1
7	1510	839400.866228950454	0
7	1524	841539.603150819924	1
7	1526	843227.707974619537	0
7	1542	860425.185153040027	1
7	1544	862213.688341015691	0
7	1559	864175.844931732423	1
7	1561	865981.261166302548	0
7	1575	867778.077773469594	1
7	1586	868745.600350696172	2
7	1591	869653.31448686408	3
7	1593	869738.941325872112	2
7	1598	870065.019343363675	1
7	1606	871474.430317823694	0
7	1626	895112.083881349317	1
7	1628	896868.392639130007	0
7	1642	899198.064593686999	1
7	1651	900937.104471304809	2
7	1653	901041.127533615082	1
7	1661	902430.982527810455	0
7	1675	904456.425853585086	1
7	1677	906072.320202402813	0
7	1694	935725.995496423077	1
7	1697	937466.752518286279	0
7	1711	940451.071315047784	1
7	1713	942158.791589064993	0
7	1727	944261.486945419686	1
7	1736	945221.497770725239	2
7	1738	946130.551161245549	1
7	1746	947282.404020163318	0
7	1761	954527.215688742438	1
7	1763	956673.482542517971	0
7	1778	969613.936285778593	1
7	1780	971474.720113569906	0
7	1795	975321.851807757847	1
7	1797	976889.971689408754	0
7	1813	994258.382189249826	1
7	1815	996227.122116922707	0
7	1829	998056.383948980352	1
7	1832	999864.076554981828	0
7	1846	1005940.961606324205	1
7	1848	1007839.655124240495	0
7	1868	1033623.306671594882	1
7	1873	1034544.978396591923	2
7	1876	1035431.588155384514	1
7	1881	1035979.420414630821	0
7	1898	1038100.650590390773	1
7	1905	1040217.164003939966	0
7	1909	1040528.596108659539	1
7	1916	1042242.410178812357	0
7	1934	1074475.178836475323	1
7	1936	1076403.452614600274	0
7	1950	1077865.151897913894	1
7	1952	1079551.901595292527	0
7	1968	1089335.274854217172	1
7	1970	1090971.252478297897	0
7	1984	1093097.033740808441	1
7	1986	1094929.485152507578	0
7	2002	1107400.697009707539	1
7	2004	1109337.862862415791	0
7	2018	1112117.728308183489	1
7	2020	1113771.713311692922	0
7	2037	1115668.530291416256	1
7	2049	1116558.55504937357	2
7	2053	1117416.014751693999	1
7	2057	1117505.534201865415	2
7	2061	1118249.315141979204	1
7	2065	1118495.036609768322	2
7	2069	1119102.215546555693	1
7	2082	1120383.664714338847	0
7	2102	1147636.985039909427	1
7	2104	1149606.965133223704	0
