file 29560 1484074003                                           
version 2
run ResponseMeasurement-44-20170110-19:46:43-22773
attr configname ResponseMeasurement
attr datetime 20170110-19:46:43
attr experiment ResponseMeasurement
attr inifile responseStudy.ini
attr iterationvars ""
attr iterationvars2 $repetition=44
attr measurement ""
attr network controltower.SimNetwork
attr processid 22773
attr repetition 44
attr replication #44
attr resultdir results
attr runnumber 44
attr seedset 44
param SimNetwork.a.parkingLot.parkingDelay "truncnormal(30min, 3min)"
param SimNetwork.a.runway.landingTime "truncnormal(15min, 1.5min)"
param SimNetwork.a.runway.takeoffTime "truncnormal(15min, 1.5min)"
param SimNetwork.a.runway.throughputCheckInterval 150min
param SimNetwork.wg.interArrivalTime exponential(150min)

vector 7  SimNetwork.a.parkingLot  parkingOccupancy:vector  ETV
attr source  parkingOccupancy
vector 4  SimNetwork.a.takeoffQueue  queueLength:vector  ETV
attr source  queueLengthSignal
vector 3  SimNetwork.a.takeoffQueue  queueTime:vector  ETV
attr source  queueTimeSignal
vector 0  SimNetwork.wg  responseTime:vector  ETV
attr source  responseTimeSignal
vector 5  SimNetwork.a.runway  landedThroughput:vector  ETV
attr source  landedThroughputSignal
vector 6  SimNetwork.a.runway  tookoffThroughput:vector  ETV
attr source  tookoffThroughputSignal
vector 2  SimNetwork.a.landingQueue  queueLength:vector  ETV
attr source  queueLengthSignal
vector 1  SimNetwork.a.landingQueue  queueTime:vector  ETV
attr source  queueTimeSignal
0	1477 3884 512 2045 301809.075245104757 1141043.199678846713 91 4407.0203354673 38934.685439823 1200782.9288603 22130800640.887
1	5361 2788 518 2034 308504.242792895365 1137821.463097422476 90 0 793.17546461503 5635.0200250332 3049407.9822325
2	8149 5184 516 2034 308504.242792895365 1137821.463097422476 180 0 1 90 90
3	13333 2741 509 2042 300927.547907419629 1140156.776323433339 91 0 804.85051373934 3136.5393951022 1545141.2250927
4	16074 5230 507 2042 300927.547907419629 1140156.776323433339 182 0 1 91 91
5	21304 1530 514 2049 306000 1161000 96 0 3 91 161
6	22834 1530 514 2049 306000 1161000 96 0 4 91 165
7	24364 5196 506 2039 300927.547907419629 1140156.776323433339 181 0 2 124 158
