version 2
run ResponseMeasurement-9-20170110-19:46:28-22738
attr configname ResponseMeasurement
attr datetime 20170110-19:46:28
attr experiment ResponseMeasurement
attr inifile responseStudy.ini
attr iterationvars ""
attr iterationvars2 $repetition=9
attr measurement ""
attr network controltower.SimNetwork
attr processid 22738
attr repetition 9
attr replication #9
attr resultdir results
attr runnumber 9
attr seedset 9
param SimNetwork.a.parkingLot.parkingDelay "truncnormal(30min, 3min)"
param SimNetwork.a.runway.landingTime "truncnormal(15min, 1.5min)"
param SimNetwork.a.runway.takeoffTime "truncnormal(15min, 1.5min)"
param SimNetwork.a.runway.throughputCheckInterval 150min
param SimNetwork.wg.interArrivalTime exponential(150min)

vector 7  SimNetwork.a.parkingLot  parkingOccupancy:vector  ETV
attr source  parkingOccupancy
vector 4  SimNetwork.a.takeoffQueue  queueLength:vector  ETV
attr source  queueLengthSignal
vector 3  SimNetwork.a.takeoffQueue  queueTime:vector  ETV
attr source  queueTimeSignal
vector 0  SimNetwork.wg  responseTime:vector  ETV
attr source  responseTimeSignal
vector 5  SimNetwork.a.runway  landedThroughput:vector  ETV
attr source  landedThroughputSignal
vector 6  SimNetwork.a.runway  tookoffThroughput:vector  ETV
attr source  tookoffThroughputSignal
vector 2  SimNetwork.a.landingQueue  queueLength:vector  ETV
attr source  queueLengthSignal
vector 1  SimNetwork.a.landingQueue  queueTime:vector  ETV
attr source  queueTimeSignal
0	752	302012.50077508852	9267.1452575388
0	770	316457.67080143695	18133.070170685
0	787	326083.756323441466	13536.373827578
0	804	333281.024245032478	10667.378335357
0	828	339361.50430347432	9498.5291432686
0	836	340548.125187358424	4853.3381140915
0	853	350630.102173569131	13585.042593964
0	879	366361.886435271831	19027.924843887
0	887	367859.303588887141	5439.7729412347
0	904	371830.582763938599	7647.2416351346
0	920	376746.438042827682	8741.1568745823
0	937	380712.835405853566	7462.5795450256
0	954	393002.254391225708	16014.317196728
0	972	407390.031547877916	18110.245149596
0	989	420632.200931897179	17041.125580217
0	1006	425771.981892313339	9248.2211766808
0	1030	429847.48851843593	7910.8492014379
0	1038	431688.615556329118	5444.9571533974
0	1056	441643.845124817797	13705.013248243
0	1072	445420.032442626346	7374.0217194645
0	1089	450353.397828308527	8591.115173139
0	1106	466338.42309748885	19585.476397582
0	1124	481320.174544502503	18842.32813363
0	1143	505581.773768554563	27854.556307428
0	1161	528709.54971352366	26773.743400374
0	1178	539167.504343352472	14052.025024478
0	1195	548460.060115373077	13046.124780436
0	1215	553264.355858494391	8418.9098609805
0	1236	556888.595092231305	7309.0013775393
0	1245	558419.86731321843	5701.4725928339
0	1262	570623.287729099894	16150.096877921
0	1287	581434.26296716854	14654.415422045
0	1295	583191.017000780195	6285.788980328
0	1321	594006.552651969987	14563.352959296
0	1329	595792.315843038402	5499.1163223435
0	1346	607876.798075270599	15862.795274901
0	1369	642829.078551347101	38335.429446406
0	1393	646386.647885258267	7267.4019865191
0	1398	647426.136211948365	4961.4634783513
0	1415	652189.161084184921	9049.4300361153
0	1432	660007.57364304573	11193.599712121
0	1450	676976.373093230587	20138.645264746
0	1476	699720.515902191861	26032.430542642
0	1495	701571.352573089069	5242.2836840018
0	1509	703218.439877281904	5408.0925083777
0	1517	704796.084080683158	4983.1950072619
0	1534	717098.76166333352	16363.069928496
0	1551	723830.587818501713	10423.949121148
0	1579	735267.001930262352	14980.193381874
0	1612	738775.002439092522	7134.5992487964
0	1620	739628.861239122843	7864.0191598841
0	1628	740480.172431605547	5533.0250694027
0	1633	741365.692603853286	5513.4219938973
0	1657	746455.42835533658	9717.0522426722
0	1674	748553.39651522029	5786.5671377959
0	1682	750275.444001855085	6322.5989672568
0	1702	757627.028684085611	10997.367965136
0	1715	761335.081750240374	6905.5507452202
0	1741	776151.036876915719	19067.043957904
0	1749	777447.604920608934	4821.1235380455
0	1766	786086.100994719321	13032.180009539
0	1783	792814.467316467824	10369.030303976
0	1799	799606.490912904962	10494.883973406
0	1824	806327.458697690892	10180.160747968
0	1832	808539.201434315122	6004.6107361347
0	1860	814892.164093459359	10463.474268869
0	1868	816033.477859278944	4926.6648519823
0	1885	819429.994076138174	8152.922149422
0	1901	822907.209232832233	6986.5907756566
0	1914	826687.480373611342	7887.3827792076
0	1950	832165.751521562185	9432.6349403184
0	1955	833113.399502760761	5409.8111179699
0	1963	834176.566102205089	4486.2296070693
0	1982	856707.65146240028	26683.555837011
0	2007	867536.380089916356	14658.113248348
0	2015	868848.121906434231	4633.0700476767
0	2040	876552.579882763306	12300.330213214
0	2048	877837.283845347948	4884.983265783
0	2073	884624.157419117632	10094.036844808
0	2081	885689.005335144633	4539.4384397825
0	2108	890777.359587100841	8463.0948764091
0	2114	891743.645471403351	4412.7891657827
0	2130	896194.804026475365	8804.9516277978
0	2149	918120.639781417375	25439.622078727
0	2165	921940.026046232977	7422.8115516532
0	2183	938475.106812262165	20003.49075686
0	2199	942680.560299732852	7811.9888031467
0	2219	950728.351130784881	11136.480621879
0	2241	954810.262420488316	7486.4183998188
0	2249	956476.525643938845	6054.9119421177
0	2265	960627.012190517445	7631.9584031345
0	2282	967162.918431552711	10262.020188332
0	2300	981922.123880077476	18632.311249228
0	2316	987243.928104837019	9088.7524399218
0	2334	999830.305125760958	16238.504115252
0	2370	1011767.228153326202	15742.060316721
0	2375	1012747.424324218531	5098.5773651722
0	2383	1013894.663587651236	5849.4974731434
0	2411	1021675.785075372854	11793.075352975
0	2416	1022558.432167729863	4618.0915283157
0	2435	1049202.080689123789	31103.202450741
0	2456	1063282.30582802686	17664.734056488
0	2480	1067283.329186582293	7415.4986686503
0	2485	1068200.826154872425	5444.6836991541
0	2505	1071999.775632342293	8020.0084440053
0	2518	1075406.755899777346	6974.8781021967
0	2552	1095782.052220108888	24077.670464977
0	2563	1097133.560048507125	6157.410650628
0	2569	1098090.908344617433	4637.4225292802
0	2585	1105939.223777031897	11912.305970381
0	2611	1119437.819579677591	16757.597273249
0	2619	1120480.448830366341	4946.6911951319
0	2636	1129775.983906651967	12573.606304806
0	2654	1148729.349594945703	22420.219075277
0	2671	1158538.948282621789	13586.238326332
1	758	312547.382495863876	0
1	775	322613.64590967526	0
1	792	329862.975160205744	0
1	809	335694.787073266966	0
1	817	337045.059579605617	0
1	842	347333.961591384875	0
1	860	362419.530647652393	0
1	868	364183.341128804032	0
1	892	368005.281168245359	0
1	909	373250.255860827919	0
1	925	376987.937194497246	0
1	943	389279.786398281742	0
1	960	403591.07535167995	0
1	978	416523.760715632542	0
1	994	421936.63931699806	0
1	1011	426243.658402931763	0
1	1019	427938.831876575209	0
1	1044	438046.010723161861	0
1	1061	441762.282655169527	0
1	1077	446752.946699907137	0
1	1095	462477.846410872559	0
1	1113	477727.217461126485	0
1	1131	501935.806313149173	0
1	1150	525115.479318873977	0
1	1167	535413.935334936959	0
1	1184	544845.445997513867	0
1	1201	549579.593714691981	0
1	1217	553264.355858494391	545.96113810988
1	1225	554473.19085117924	0
1	1250	566779.847545123582	0
1	1268	576905.228020452232	0
1	1276	579443.199692673519	0
1	1301	590293.199520694877	0
1	1309	592014.002800369126	0
1	1335	604493.649104940934	0
1	1355	639119.245898739138	0
1	1371	642829.078551347101	364.40581775007
1	1379	643581.050132629576	441.31908456
1	1404	648813.973930925138	0
1	1420	656837.72782848422	0
1	1438	673688.085359550342	0
1	1457	696329.068889087246	0
1	1465	697810.347368904183	0
1	1481	699812.889073421248	0
1	1497	701571.352573089069	835.66083825204
1	1523	713406.63869735341	0
1	1540	720286.80854838813	0
1	1557	731640.40319029611	0
1	1565	732685.823019301284	920.98094006249
1	1581	735267.001930262352	319.85456805952
1	1592	736110.570763908171	258.30015395223
1	1600	736878.011927286571	139.63581462221
1	1638	742766.829377424423	0
1	1646	743952.845034598279	0
1	1662	746629.660718949192	0
1	1687	754429.531005020166	0
1	1704	757627.028684085611	543.03576507377
1	1721	772626.481382563461	0
1	1729	773614.804010839747	560.88302565953
1	1754	782445.437012491381	0
1	1771	789111.606939499387	0
1	1788	796147.297949723349	0
1	1805	802534.590698180407	0
1	1813	804428.689824590268	0
1	1838	811106.81300729666	0
1	1846	811982.726060141565	705.65413342536
1	1870	816033.477859278944	112.85940210329
1	1887	819429.994076138174	629.89648173447
1	1903	822907.209232832233	174.09265158846
1	1919	827703.588384790874	0
1	1928	829690.336495135774	0
1	1939	830501.056568012797	476.96094262336
1	1970	852878.266841568735	0
1	1988	864215.051858757537	0
1	1996	865111.314978107495	859.06530855792
1	2020	872952.300579564926	0
1	2029	874530.120574309715	0
1	2053	881149.566895362165	0
1	2062	882314.264710691743	0
1	2086	887330.856305620619	0
1	2094	888117.23961238681	727.38721370926
1	2119	892681.017702690796	0
1	2137	914517.214494579768	0
1	2154	918471.616055402162	0
1	2171	934868.571496586144	0
1	2188	939591.8705089055	0
1	2205	947323.844020669486	0
1	2221	950728.351130784881	306.73742896375
1	2229	952995.053787382975	0
1	2254	956900.898243221048	0
1	2271	963289.812630849078	0
1	2288	978155.175664915212	0
1	2305	983591.80101050867	0
1	2322	996025.167836604832	0
1	2339	1007648.846959046286	0
1	2348	1008530.346650605525	485.18053609765
1	2356	1009882.709722398003	0
1	2389	1017940.340639414159	0
1	2397	1018870.55858060814	771.68034222555
1	2424	1045617.571771539089	0
1	2441	1059867.830517932013	0
1	2458	1063282.30582802686	526.16337230855
1	2466	1064182.028557867445	202.26136953046
1	2490	1068431.877797580685	0
1	2507	1071999.775632342293	295.39387721004
1	2525	1090976.149397879088	0
1	2533	1093453.485815337265	0
1	2544	1094237.345096534832	210.42728988434
1	2574	1102680.222306428115	0
1	2591	1115533.757635234401	0
1	2600	1117202.377601846179	0
1	2625	1126309.130519668349	0
1	2643	1144952.709956289805	0
1	2660	1154781.957170506927	0
2	756	312547.382495863876	1
2	758	312547.382495863876	0
2	773	322613.64590967526	1
2	775	322613.64590967526	0
2	790	329862.975160205744	1
2	792	329862.975160205744	0
2	807	335694.787073266966	1
2	809	335694.787073266966	0
2	815	337045.059579605617	1
2	817	337045.059579605617	0
2	840	347333.961591384875	1
2	842	347333.961591384875	0
2	858	362419.530647652393	1
2	860	362419.530647652393	0
2	866	364183.341128804032	1
2	868	364183.341128804032	0
2	890	368005.281168245359	1
2	892	368005.281168245359	0
2	907	373250.255860827919	1
2	909	373250.255860827919	0
2	923	376987.937194497246	1
2	925	376987.937194497246	0
2	941	389279.786398281742	1
2	943	389279.786398281742	0
2	958	403591.07535167995	1
2	960	403591.07535167995	0
2	976	416523.760715632542	1
2	978	416523.760715632542	0
2	992	421936.63931699806	1
2	994	421936.63931699806	0
2	1009	426243.658402931763	1
2	1011	426243.658402931763	0
2	1017	427938.831876575209	1
2	1019	427938.831876575209	0
2	1042	438046.010723161861	1
2	1044	438046.010723161861	0
2	1059	441762.282655169527	1
2	1061	441762.282655169527	0
2	1075	446752.946699907137	1
2	1077	446752.946699907137	0
2	1093	462477.846410872559	1
2	1095	462477.846410872559	0
2	1111	477727.217461126485	1
2	1113	477727.217461126485	0
2	1129	501935.806313149173	1
2	1131	501935.806313149173	0
2	1148	525115.479318873977	1
2	1150	525115.479318873977	0
2	1165	535413.935334936959	1
2	1167	535413.935334936959	0
2	1182	544845.445997513867	1
2	1184	544845.445997513867	0
2	1199	549579.593714691981	1
2	1201	549579.593714691981	0
2	1212	552718.394720384511	1
2	1217	553264.355858494391	0
2	1223	554473.19085117924	1
2	1225	554473.19085117924	0
2	1248	566779.847545123582	1
2	1250	566779.847545123582	0
2	1266	576905.228020452232	1
2	1268	576905.228020452232	0
2	1274	579443.199692673519	1
2	1276	579443.199692673519	0
2	1299	590293.199520694877	1
2	1301	590293.199520694877	0
2	1307	592014.002800369126	1
2	1309	592014.002800369126	0
2	1333	604493.649104940934	1
2	1335	604493.649104940934	0
2	1353	639119.245898739138	1
2	1355	639119.245898739138	0
2	1366	642464.672733597034	1
2	1371	642829.078551347101	0
2	1374	643139.73104806958	1
2	1379	643581.050132629576	0
2	1402	648813.973930925138	1
2	1404	648813.973930925138	0
2	1418	656837.72782848422	1
2	1420	656837.72782848422	0
2	1436	673688.085359550342	1
2	1438	673688.085359550342	0
2	1455	696329.068889087246	1
2	1457	696329.068889087246	0
2	1463	697810.347368904183	1
2	1465	697810.347368904183	0
2	1479	699812.889073421248	1
2	1481	699812.889073421248	0
2	1492	700735.691734837026	1
2	1497	701571.352573089069	0
2	1521	713406.63869735341	1
2	1523	713406.63869735341	0
2	1538	720286.80854838813	1
2	1540	720286.80854838813	0
2	1555	731640.40319029611	1
2	1557	731640.40319029611	0
2	1560	731764.842079238791	1
2	1565	732685.823019301284	0
2	1576	734947.147362202832	1
2	1581	735267.001930262352	0
2	1587	735852.270609955945	1
2	1592	736110.570763908171	0
2	1595	736738.376112664361	1
2	1600	736878.011927286571	0
2	1636	742766.829377424423	1
2	1638	742766.829377424423	0
2	1644	743952.845034598279	1
2	1646	743952.845034598279	0
2	1660	746629.660718949192	1
2	1662	746629.660718949192	0
2	1685	754429.531005020166	1
2	1687	754429.531005020166	0
2	1699	757083.992919011841	1
2	1704	757627.028684085611	0
2	1719	772626.481382563461	1
2	1721	772626.481382563461	0
2	1724	773053.920985180217	1
2	1729	773614.804010839747	0
2	1752	782445.437012491381	1
2	1754	782445.437012491381	0
2	1769	789111.606939499387	1
2	1771	789111.606939499387	0
2	1786	796147.297949723349	1
2	1788	796147.297949723349	0
2	1803	802534.590698180407	1
2	1805	802534.590698180407	0
2	1811	804428.689824590268	1
2	1813	804428.689824590268	0
2	1836	811106.81300729666	1
2	1838	811106.81300729666	0
2	1841	811277.071926716205	1
2	1846	811982.726060141565	0
2	1865	815920.618457175651	1
2	1870	816033.477859278944	0
2	1881	818800.097594403701	1
2	1887	819429.994076138174	0
2	1898	822733.116581243772	1
2	1903	822907.209232832233	0
2	1917	827703.588384790874	1
2	1919	827703.588384790874	0
2	1926	829690.336495135774	1
2	1928	829690.336495135774	0
2	1934	830024.095625389439	1
2	1939	830501.056568012797	0
2	1968	852878.266841568735	1
2	1970	852878.266841568735	0
2	1986	864215.051858757537	1
2	1988	864215.051858757537	0
2	1991	864252.249669549572	1
2	1996	865111.314978107495	0
2	2018	872952.300579564926	1
2	2020	872952.300579564926	0
2	2027	874530.120574309715	1
2	2029	874530.120574309715	0
2	2051	881149.566895362165	1
2	2053	881149.566895362165	0
2	2060	882314.264710691743	1
2	2062	882314.264710691743	0
2	2084	887330.856305620619	1
2	2086	887330.856305620619	0
2	2089	887389.852398677548	1
2	2094	888117.23961238681	0
2	2117	892681.017702690796	1
2	2119	892681.017702690796	0
2	2135	914517.214494579768	1
2	2137	914517.214494579768	0
2	2152	918471.616055402162	1
2	2154	918471.616055402162	0
2	2169	934868.571496586144	1
2	2171	934868.571496586144	0
2	2186	939591.8705089055	1
2	2188	939591.8705089055	0
2	2203	947323.844020669486	1
2	2205	947323.844020669486	0
2	2216	950421.613701821127	1
2	2221	950728.351130784881	0
2	2227	952995.053787382975	1
2	2229	952995.053787382975	0
2	2252	956900.898243221048	1
2	2254	956900.898243221048	0
2	2269	963289.812630849078	1
2	2271	963289.812630849078	0
2	2286	978155.175664915212	1
2	2288	978155.175664915212	0
2	2303	983591.80101050867	1
2	2305	983591.80101050867	0
2	2320	996025.167836604832	1
2	2322	996025.167836604832	0
2	2337	1007648.846959046286	1
2	2339	1007648.846959046286	0
2	2343	1008045.166114507871	1
2	2348	1008530.346650605525	0
2	2354	1009882.709722398003	1
2	2356	1009882.709722398003	0
2	2387	1017940.340639414159	1
2	2389	1017940.340639414159	0
2	2392	1018098.878238382593	1
2	2397	1018870.55858060814	0
2	2422	1045617.571771539089	1
2	2424	1045617.571771539089	0
2	2439	1059867.830517932013	1
2	2441	1059867.830517932013	0
2	2453	1062756.14245571831	1
2	2458	1063282.30582802686	0
2	2461	1063979.767188336982	1
2	2466	1064182.028557867445	0
2	2488	1068431.877797580685	1
2	2490	1068431.877797580685	0
2	2502	1071704.381755132252	1
2	2507	1071999.775632342293	0
2	2523	1090976.149397879088	1
2	2525	1090976.149397879088	0
2	2531	1093453.485815337265	1
2	2533	1093453.485815337265	0
2	2539	1094026.917806650487	1
2	2544	1094237.345096534832	0
2	2572	1102680.222306428115	1
2	2574	1102680.222306428115	0
2	2589	1115533.757635234401	1
2	2591	1115533.757635234401	0
2	2598	1117202.377601846179	1
2	2600	1117202.377601846179	0
2	2623	1126309.130519668349	1
2	2625	1126309.130519668349	0
2	2641	1144952.709956289805	1
2	2643	1144952.709956289805	0
2	2658	1154781.957170506927	1
2	2660	1154781.957170506927	0
3	749	301205.340729989046	0
3	767	315435.852272689961	0
3	784	325234.796213083907	0
3	800	332480.03018200055	0
3	825	338639.470357107969	0
3	833	339653.661987384649	0
3	850	349629.2623513555	0
3	876	365274.235552892523	0
3	884	366864.570237444844	0
3	901	370915.348807337005	0
3	917	375709.098930893861	0
3	934	379840.445057138961	0
3	951	392159.707400677531	0
3	969	406418.379509456905	0
3	986	419667.147152535582	0
3	1003	424776.97968748616	0
3	1027	428972.59979030143	104.8423164813
3	1035	430877.833725177778	0
3	1052	440722.039254111005	0
3	1069	444514.08729829916	0
3	1085	449453.451801192977	0
3	1103	465455.693914213818	0
3	1121	480363.046659788566	0
3	1140	504628.372986732567	0
3	1158	527812.24575665482	0
3	1175	538282.59060371886	0
3	1192	547515.527127062853	0
3	1209	552279.439100969586	0
3	1233	555853.448423800452	0
3	1241	557446.440410793937	0
3	1259	569652.078471698606	0
3	1284	580456.443288316571	845.56519073898
3	1292	582344.685476499983	0
3	1317	592927.143519677477	497.84801130741
3	1326	594838.28249371952	0
3	1343	607075.410180270195	0
3	1363	641990.106166909553	0
3	1387	645543.408810133489	0
3	1395	646386.647885258267	236.63269540619
3	1412	651451.082794597603	0
3	1429	659250.381376294498	0
3	1447	676030.807588110116	0
3	1473	698850.104455694577	0
3	1489	700701.849950471368	176.78250248345
3	1506	702297.597321711794	164.59886383209
3	1514	703990.087785664758	0
3	1531	716322.925347929713	0
3	1548	722883.35107370991	0
3	1573	734464.031631506455	0
3	1605	737918.074094732212	2338.4875477562
3	1614	738775.002439092522	823.03688624894
3	1622	739628.861239122843	824.95390743128
3	1630	740480.172431605547	730.13075206003
3	1654	745493.536314783932	0
3	1671	747690.290083100202	988.76006806656
3	1679	749404.712697253912	0
3	1696	756801.430533033683	0
3	1712	760494.702760917868	0
3	1738	775338.209483237919	0
3	1746	776536.488574354423	0
3	1763	785073.075171274522	0
3	1779	791834.431046668991	0
3	1796	798612.849835932726	0
3	1821	805449.878059209803	66.19783662613
3	1829	807514.436537725733	0
3	1854	813943.250715746677	0
3	1862	814892.164093459359	29.792835549157
3	1878	818673.5623294041	0
3	1895	822003.011775196573	0
3	1911	825646.223205976661	0
3	1944	831366.814344331361	1411.5766605996
3	1952	832165.751521562185	154.06564789447
3	1960	833306.769512854351	0
3	1979	855836.713681828855	0
3	2004	866785.073625388699	0
3	2012	868069.8476101529	0
3	2037	875640.133912296677	0
3	2045	877181.463833100403	0
3	2070	883426.337651383439	0
3	2078	884864.504694686543	0
3	2102	889936.796670900077	0
3	2110	890777.359587100841	379.52893589257
3	2127	895227.843594305324	0
3	2145	917354.297025455617	0
3	2162	921185.642680446378	0
3	2180	937640.714831782496	0
3	2196	941929.175223299164	0
3	2213	950192.033708721989	0
3	2237	953891.061837331317	209.54086197827
3	2246	955580.473264776237	0
3	2262	959664.983699824823	0
3	2279	966085.660104389916	0
3	2297	981025.335210419311	0
3	2313	986324.216969086463	0
3	2330	998931.510987136982	0
3	2364	1010750.317926033792	81.353390825572
3	2372	1011767.228153326202	566.17396074761
3	2380	1012900.423613194938	0
3	2405	1020584.069843717902	0
3	2413	1021675.785075372854	333.28013197092
3	2432	1048424.238508889584	0
3	2450	1062413.905473553437	0
3	2474	1066261.960767747287	0
3	2482	1067283.329186582293	541.62740576914
3	2499	1071173.572917318319	0
3	2515	1074559.592202518067	0
3	2549	1095008.492260411378	1131.3645165314
3	2557	1096142.409599348072	0
3	2565	1097133.560048507125	250.27529973494
3	2582	1105158.54880321965	0
3	2608	1118567.648355413755	0
3	2616	1119540.340274901494	0
3	2633	1128950.702298794934	0
3	2651	1147729.371414098363	0
3	2668	1157561.460348039349	0
4	747	301205.340729989046	1
4	749	301205.340729989046	0
4	765	315435.852272689961	1
4	767	315435.852272689961	0
4	782	325234.796213083907	1
4	784	325234.796213083907	0
4	798	332480.03018200055	1
4	800	332480.03018200055	0
4	823	338639.470357107969	1
4	825	338639.470357107969	0
4	831	339653.661987384649	1
4	833	339653.661987384649	0
4	848	349629.2623513555	1
4	850	349629.2623513555	0
4	874	365274.235552892523	1
4	876	365274.235552892523	0
4	882	366864.570237444844	1
4	884	366864.570237444844	0
4	899	370915.348807337005	1
4	901	370915.348807337005	0
4	915	375709.098930893861	1
4	917	375709.098930893861	0
4	932	379840.445057138961	1
4	934	379840.445057138961	0
4	949	392159.707400677531	1
4	951	392159.707400677531	0
4	967	406418.379509456905	1
4	969	406418.379509456905	0
4	984	419667.147152535582	1
4	986	419667.147152535582	0
4	1001	424776.97968748616	1
4	1003	424776.97968748616	0
4	1022	428867.757473820131	1
4	1027	428972.59979030143	0
4	1033	430877.833725177778	1
4	1035	430877.833725177778	0
4	1050	440722.039254111005	1
4	1052	440722.039254111005	0
4	1067	444514.08729829916	1
4	1069	444514.08729829916	0
4	1083	449453.451801192977	1
4	1085	449453.451801192977	0
4	1101	465455.693914213818	1
4	1103	465455.693914213818	0
4	1119	480363.046659788566	1
4	1121	480363.046659788566	0
4	1138	504628.372986732567	1
4	1140	504628.372986732567	0
4	1156	527812.24575665482	1
4	1158	527812.24575665482	0
4	1173	538282.59060371886	1
4	1175	538282.59060371886	0
4	1190	547515.527127062853	1
4	1192	547515.527127062853	0
4	1207	552279.439100969586	1
4	1209	552279.439100969586	0
4	1231	555853.448423800452	1
4	1233	555853.448423800452	0
4	1239	557446.440410793937	1
4	1241	557446.440410793937	0
4	1257	569652.078471698606	1
4	1259	569652.078471698606	0
4	1279	579610.87809757759	1
4	1284	580456.443288316571	0
4	1290	582344.685476499983	1
4	1292	582344.685476499983	0
4	1312	592429.295508370065	1
4	1317	592927.143519677477	0
4	1324	594838.28249371952	1
4	1326	594838.28249371952	0
4	1341	607075.410180270195	1
4	1343	607075.410180270195	0
4	1361	641990.106166909553	1
4	1363	641990.106166909553	0
4	1385	645543.408810133489	1
4	1387	645543.408810133489	0
4	1390	646150.015189852072	1
4	1395	646386.647885258267	0
4	1410	651451.082794597603	1
4	1412	651451.082794597603	0
4	1427	659250.381376294498	1
4	1429	659250.381376294498	0
4	1445	676030.807588110116	1
4	1447	676030.807588110116	0
4	1471	698850.104455694577	1
4	1473	698850.104455694577	0
4	1484	700525.067447987916	1
4	1489	700701.849950471368	0
4	1501	702132.998457879704	1
4	1506	702297.597321711794	0
4	1512	703990.087785664758	1
4	1514	703990.087785664758	0
4	1529	716322.925347929713	1
4	1531	716322.925347929713	0
4	1546	722883.35107370991	1
4	1548	722883.35107370991	0
4	1571	734464.031631506455	1
4	1573	734464.031631506455	0
4	1584	735579.586546976034	1
4	1605	737918.074094732212	0
4	1608	737951.965552843578	1
4	1614	738775.002439092522	0
4	1617	738803.907331691559	1
4	1622	739628.861239122843	0
4	1625	739750.041679545512	1
4	1630	740480.172431605547	0
4	1652	745493.536314783932	1
4	1654	745493.536314783932	0
4	1665	746701.530015033638	1
4	1671	747690.290083100202	0
4	1677	749404.712697253912	1
4	1679	749404.712697253912	0
4	1694	756801.430533033683	1
4	1696	756801.430533033683	0
4	1710	760494.702760917868	1
4	1712	760494.702760917868	0
4	1736	775338.209483237919	1
4	1738	775338.209483237919	0
4	1744	776536.488574354423	1
4	1746	776536.488574354423	0
4	1761	785073.075171274522	1
4	1763	785073.075171274522	0
4	1777	791834.431046668991	1
4	1779	791834.431046668991	0
4	1794	798612.849835932726	1
4	1796	798612.849835932726	0
4	1816	805383.680222583673	1
4	1821	805449.878059209803	0
4	1827	807514.436537725733	1
4	1829	807514.436537725733	0
4	1852	813943.250715746677	1
4	1854	813943.250715746677	0
4	1857	814862.371257910202	1
4	1862	814892.164093459359	0
4	1876	818673.5623294041	1
4	1878	818673.5623294041	0
4	1893	822003.011775196573	1
4	1895	822003.011775196573	0
4	1909	825646.223205976661	1
4	1911	825646.223205976661	0
4	1931	829955.237683731793	1
4	1944	831366.814344331361	0
4	1947	832011.685873667711	1
4	1952	832165.751521562185	0
4	1958	833306.769512854351	1
4	1960	833306.769512854351	0
4	1977	855836.713681828855	1
4	1979	855836.713681828855	0
4	2002	866785.073625388699	1
4	2004	866785.073625388699	0
4	2010	868069.8476101529	1
4	2012	868069.8476101529	0
4	2035	875640.133912296677	1
4	2037	875640.133912296677	0
4	2043	877181.463833100403	1
4	2045	877181.463833100403	0
4	2068	883426.337651383439	1
4	2070	883426.337651383439	0
4	2076	884864.504694686543	1
4	2078	884864.504694686543	0
4	2100	889936.796670900077	1
4	2102	889936.796670900077	0
4	2105	890397.830651208269	1
4	2110	890777.359587100841	0
4	2125	895227.843594305324	1
4	2127	895227.843594305324	0
4	2143	917354.297025455617	1
4	2145	917354.297025455617	0
4	2160	921185.642680446378	1
4	2162	921185.642680446378	0
4	2178	937640.714831782496	1
4	2180	937640.714831782496	0
4	2194	941929.175223299164	1
4	2196	941929.175223299164	0
4	2211	950192.033708721989	1
4	2213	950192.033708721989	0
4	2232	953681.520975353045	1
4	2237	953891.061837331317	0
4	2244	955580.473264776237	1
4	2246	955580.473264776237	0
4	2260	959664.983699824823	1
4	2262	959664.983699824823	0
4	2277	966085.660104389916	1
4	2279	966085.660104389916	0
4	2295	981025.335210419311	1
4	2297	981025.335210419311	0
4	2311	986324.216969086463	1
4	2313	986324.216969086463	0
4	2328	998931.510987136982	1
4	2330	998931.510987136982	0
4	2359	1010668.96453520822	1
4	2364	1010750.317926033792	0
4	2367	1011201.054192578592	1
4	2372	1011767.228153326202	0
4	2378	1012900.423613194938	1
4	2380	1012900.423613194938	0
4	2403	1020584.069843717902	1
4	2405	1020584.069843717902	0
4	2408	1021342.504943401938	1
4	2413	1021675.785075372854	0
4	2430	1048424.238508889584	1
4	2432	1048424.238508889584	0
4	2448	1062413.905473553437	1
4	2450	1062413.905473553437	0
4	2472	1066261.960767747287	1
4	2474	1066261.960767747287	0
4	2477	1066741.701780813154	1
4	2482	1067283.329186582293	0
4	2497	1071173.572917318319	1
4	2499	1071173.572917318319	0
4	2513	1074559.592202518067	1
4	2515	1074559.592202518067	0
4	2536	1093877.127743879933	1
4	2549	1095008.492260411378	0
4	2555	1096142.409599348072	1
4	2557	1096142.409599348072	0
4	2560	1096883.284748772182	1
4	2565	1097133.560048507125	0
4	2580	1105158.54880321965	1
4	2582	1105158.54880321965	0
4	2606	1118567.648355413755	1
4	2608	1118567.648355413755	0
4	2614	1119540.340274901494	1
4	2616	1119540.340274901494	0
4	2631	1128950.702298794934	1
4	2633	1128950.702298794934	0
4	2649	1147729.371414098363	1
4	2651	1147729.371414098363	0
4	2666	1157561.460348039349	1
4	2668	1157561.460348039349	0
5	754	306000	1
5	763	315000	1
5	780	324000	1
5	802	333000	1
5	838	342000	2
5	855	351000	1
5	856	360000	0
5	894	369000	2
5	930	378000	3
5	939	387000	0
5	956	396000	1
5	965	405000	1
5	974	414000	0
5	999	423000	2
5	1040	432000	2
5	1054	441000	1
5	1087	450000	2
5	1091	459000	0
5	1108	468000	1
5	1109	477000	0
5	1126	486000	1
5	1127	495000	0
5	1136	504000	1
5	1145	513000	0
5	1146	522000	0
5	1163	531000	1
5	1180	540000	1
5	1197	549000	1
5	1243	558000	3
5	1252	567000	0
5	1264	576000	1
5	1297	585000	2
5	1319	594000	2
5	1331	603000	0
5	1348	612000	1
5	1349	621000	0
5	1350	630000	0
5	1351	639000	0
5	1400	648000	3
5	1422	657000	1
5	1434	666000	1
5	1443	675000	1
5	1452	684000	0
5	1453	693000	0
5	1499	702000	3
5	1519	711000	1
5	1536	720000	1
5	1553	729000	1
5	1610	738000	5
5	1667	747000	2
5	1692	756000	2
5	1717	765000	1
5	1731	774000	1
5	1756	783000	1
5	1781	792000	2
5	1801	801000	1
5	1834	810000	2
5	1883	819000	3
5	1921	828000	2
5	1965	837000	3
5	1966	846000	0
5	1975	855000	1
5	1984	864000	0
5	2022	873000	2
5	2058	882000	3
5	2112	891000	3
5	2132	900000	1
5	2133	909000	0
5	2147	918000	1
5	2167	927000	1
5	2176	936000	1
5	2201	945000	1
5	2239	954000	3
5	2267	963000	1
5	2284	972000	1
5	2293	981000	1
5	2318	990000	1
5	2332	999000	1
5	2341	1008000	0
5	2385	1017000	3
5	2418	1026000	2
5	2419	1035000	0
5	2420	1044000	0
5	2437	1053000	1
5	2446	1062000	1
5	2495	1071000	3
5	2520	1080000	1
5	2521	1089000	0
5	2567	1098000	3
5	2587	1107000	1
5	2593	1116000	0
5	2621	1125000	2
5	2638	1134000	1
5	2639	1143000	0
5	2656	1152000	1
5	2673	1161000	1
6	754	306000	1
6	763	315000	0
6	780	324000	1
6	802	333000	1
6	838	342000	3
6	855	351000	1
6	856	360000	0
6	894	369000	2
6	930	378000	2
6	939	387000	1
6	956	396000	1
6	965	405000	0
6	974	414000	1
6	999	423000	1
6	1040	432000	3
6	1054	441000	0
6	1087	450000	2
6	1091	459000	1
6	1108	468000	1
6	1109	477000	0
6	1126	486000	1
6	1127	495000	0
6	1136	504000	0
6	1145	513000	1
6	1146	522000	0
6	1163	531000	1
6	1180	540000	1
6	1197	549000	1
6	1243	558000	2
6	1252	567000	1
6	1264	576000	1
6	1297	585000	2
6	1319	594000	0
6	1331	603000	2
6	1348	612000	1
6	1349	621000	0
6	1350	630000	0
6	1351	639000	0
6	1400	648000	3
6	1422	657000	1
6	1434	666000	1
6	1443	675000	0
6	1452	684000	1
6	1453	693000	0
6	1499	702000	2
6	1519	711000	2
6	1536	720000	1
6	1553	729000	1
6	1610	738000	1
6	1667	747000	5
6	1692	756000	2
6	1717	765000	2
6	1731	774000	0
6	1756	783000	2
6	1781	792000	1
6	1801	801000	2
6	1834	810000	2
6	1883	819000	2
6	1921	828000	3
6	1965	837000	3
6	1966	846000	0
6	1975	855000	0
6	1984	864000	1
6	2022	873000	2
6	2058	882000	2
6	2112	891000	3
6	2132	900000	2
6	2133	909000	0
6	2147	918000	0
6	2167	927000	2
6	2176	936000	0
6	2201	945000	2
6	2239	954000	1
6	2267	963000	3
6	2284	972000	1
6	2293	981000	0
6	2318	990000	2
6	2332	999000	0
6	2341	1008000	1
6	2385	1017000	3
6	2418	1026000	2
6	2419	1035000	0
6	2420	1044000	0
6	2437	1053000	1
6	2446	1062000	0
6	2495	1071000	3
6	2520	1080000	2
6	2521	1089000	0
6	2567	1098000	2
6	2587	1107000	2
6	2593	1116000	0
6	2621	1125000	2
6	2638	1134000	1
6	2639	1143000	0
6	2656	1152000	1
6	2673	1161000	1
7	746	301205.340729989046	0
7	761	313428.49148663731	1
7	764	315435.852272689961	0
7	778	323395.364605610276	1
7	781	325234.796213083907	0
7	795	330757.152698959136	1
7	797	332480.03018200055	0
7	812	336592.267756078564	1
7	820	337829.439570455764	2
7	822	338639.470357107969	1
7	830	339653.661987384649	0
7	845	348180.262454466389	1
7	847	349629.2623513555	0
7	863	363177.132173838882	1
7	871	365003.904535071015	2
7	873	365274.235552892523	1
7	881	366864.570237444844	0
7	896	369046.234722210261	1
7	898	370915.348807337005	0
7	912	374108.381652319435	1
7	914	375709.098930893861	0
7	928	377869.695093012781	1
7	931	379840.445057138961	0
7	946	390376.456374965892	1
7	948	392159.707400677531	0
7	963	404626.429328675804	1
7	966	406418.379509456905	0
7	981	417481.716436368577	1
7	983	419667.147152535582	0
7	997	422920.561757398025	1
7	1000	424776.97968748616	0
7	1014	427194.11055047872	1
7	1021	428867.757473820131	0
7	1025	428972.59979030143	1
7	1032	430877.833725177778	0
7	1047	438984.788068843506	1
7	1049	440722.039254111005	0
7	1064	442660.592088823393	1
7	1066	444514.08729829916	0
7	1080	447690.139239564627	1
7	1082	449453.451801192977	0
7	1098	463400.657756928301	1
7	1100	465455.693914213818	0
7	1116	478666.411644617383	1
7	1118	480363.046659788566	0
7	1134	502896.656469827462	1
7	1137	504628.372986732567	0
7	1153	526025.20638071942	1
7	1155	527812.24575665482	0
7	1170	536294.145381326672	1
7	1172	538282.59060371886	0
7	1187	545622.135743093144	1
7	1189	547515.527127062853	0
7	1204	550537.100408453929	1
7	1206	552279.439100969586	0
7	1220	554185.7956408715	1
7	1228	555369.119138644494	2
7	1230	555853.448423800452	1
7	1238	557446.440410793937	0
7	1254	567746.452345556893	1
7	1256	569652.078471698606	0
7	1271	577822.733381094614	1
7	1278	579610.87809757759	0
7	1282	580456.443288316571	1
7	1289	582344.685476499983	0
7	1304	591034.709618017773	1
7	1311	592429.295508370065	0
7	1315	592927.143519677477	1
7	1323	594838.28249371952	0
7	1338	605256.012161846046	1
7	1340	607075.410180270195	0
7	1358	640139.92267389752	1
7	1360	641990.106166909553	0
7	1377	643581.050132629576	1
7	1382	644508.256006879573	2
7	1384	645543.408810133489	1
7	1389	646150.015189852072	0
7	1407	649699.403124583805	1
7	1409	651451.082794597603	0
7	1424	657670.726374422369	1
7	1426	659250.381376294498	0
7	1441	674637.324288695935	1
7	1444	676030.807588110116	0
7	1460	697248.557596889025	1
7	1468	698650.060248582865	2
7	1470	698850.104455694577	1
7	1483	700525.067447987916	0
7	1487	700701.849950471368	1
7	1500	702132.998457879704	0
7	1504	702297.597321711794	1
7	1511	703990.087785664758	0
7	1526	714439.768943385172	1
7	1528	716322.925347929713	0
7	1543	721067.748640775607	1
7	1545	722883.35107370991	0
7	1563	732685.823019301284	1
7	1568	733487.347732545132	2
7	1570	734464.031631506455	1
7	1583	735579.586546976034	0
7	1590	736110.570763908171	1
7	1598	736878.011927286571	2
7	1603	737918.074094732212	3
7	1607	737951.965552843578	2
7	1616	738803.907331691559	1
7	1624	739750.041679545512	0
7	1641	743636.607276556264	1
7	1649	744878.243826739474	2
7	1651	745493.536314783932	1
7	1664	746701.530015033638	0
7	1669	747690.290083100202	1
7	1676	749404.712697253912	0
7	1690	755317.581601271598	1
7	1693	756801.430533033683	0
7	1707	758522.271514836222	1
7	1709	760494.702760917868	0
7	1727	773614.804010839747	1
7	1733	774526.792227668687	2
7	1735	775338.209483237919	1
7	1743	776536.488574354423	0
7	1758	783419.114676012013	1
7	1760	785073.075171274522	0
7	1774	790051.549141947073	1
7	1776	791834.431046668991	0
7	1791	797051.791847660593	1
7	1793	798612.849835932726	0
7	1808	803617.419272949407	1
7	1815	805383.680222583673	0
7	1819	805449.878059209803	1
7	1826	807514.436537725733	0
7	1844	811982.726060141565	1
7	1849	812949.294806282085	2
7	1851	813943.250715746677	1
7	1856	814862.371257910202	0
7	1873	816915.380950387469	1
7	1875	818673.5623294041	0
7	1890	820147.61215812678	1
7	1892	822003.011775196573	0
7	1906	823742.723292093389	1
7	1908	825646.223205976661	0
7	1923	828547.325120235567	1
7	1930	829955.237683731793	0
7	1937	830501.056568012797	1
7	1942	831366.814344331361	2
7	1946	832011.685873667711	1
7	1957	833306.769512854351	0
7	1973	853954.867158209366	1
7	1976	855836.713681828855	0
7	1994	865111.314978107495	1
7	1999	865994.857947454857	2
7	2001	866785.073625388699	1
7	2009	868069.8476101529	0
7	2024	873794.798682271272	1
7	2032	875494.965063073053	2
7	2034	875640.133912296677	1
7	2042	877181.463833100403	0
7	2056	881885.043368856642	1
7	2065	883186.799773035919	2
7	2067	883426.337651383439	1
7	2075	884864.504694686543	0
7	2092	888117.23961238681	1
7	2097	888846.445849233052	2
7	2099	889936.796670900077	1
7	2104	890397.830651208269	0
7	2122	893551.179357924163	1
7	2124	895227.843594305324	0
7	2140	915347.519769269435	1
7	2142	917354.297025455617	0
7	2157	919420.312035552253	1
7	2159	921185.642680446378	0
7	2174	935790.971583656563	1
7	2177	937640.714831782496	0
7	2191	940392.94941398385	1
7	2193	941929.175223299164	0
7	2208	948319.758524672777	1
7	2210	950192.033708721989	0
7	2224	951861.355597428203	1
7	2231	953681.520975353045	0
7	2235	953891.061837331317	1
7	2243	955580.473264776237	0
7	2257	957817.933980057173	1
7	2259	959664.983699824823	0
7	2274	964150.974745892077	1
7	2276	966085.660104389916	0
7	2291	979121.956939241423	1
7	2294	981025.335210419311	0
7	2308	984561.63672128474	1
7	2310	986324.216969086463	0
7	2325	996903.566455872737	1
7	2327	998931.510987136982	0
7	2346	1008530.346650605525	1
7	2351	1009479.74629911226	2
7	2358	1010668.96453520822	1
7	2362	1010750.317926033792	2
7	2366	1011201.054192578592	1
7	2377	1012900.423613194938	0
7	2395	1018870.55858060814	1
7	2400	1019671.916010299792	2
7	2402	1020584.069843717902	1
7	2407	1021342.504943401938	0
7	2427	1046530.709037197509	1
7	2429	1048424.238508889584	0
7	2444	1060731.859632842579	1
7	2447	1062413.905473553437	0
7	2464	1064182.028557867445	1
7	2469	1065120.813935835819	2
7	2471	1066261.960767747287	1
7	2476	1066741.701780813154	0
7	2493	1069502.853343152877	1
7	2496	1071173.572917318319	0
7	2510	1072793.410563743425	1
7	2512	1074559.592202518067	0
7	2528	1091943.7562631509	1
7	2535	1093877.127743879933	0
7	2542	1094237.345096534832	1
7	2547	1095008.492260411378	2
7	2554	1096142.409599348072	1
7	2559	1096883.284748772182	0
7	2577	1103590.033367504815	1
7	2579	1105158.54880321965	0
7	2595	1116561.344713955418	1
7	2603	1118130.291362939379	2
7	2605	1118567.648355413755	1
7	2613	1119540.340274901494	0
7	2628	1127193.127525998729	1
7	2630	1128950.702298794934	0
7	2646	1145851.670745752387	1
7	2648	1147729.371414098363	0
7	2663	1155566.504825170721	1
7	2665	1157561.460348039349	0
