version 2
run WarmupMeasurement-3-20170109-15:30:46-1835
attr configname WarmupMeasurement
attr datetime 20170109-15:30:46
attr experiment WarmupMeasurement
attr inifile responseStudy.ini
attr iterationvars ""
attr iterationvars2 $repetition=3
attr measurement ""
attr network controltower.SimNetwork
attr processid 1835
attr repetition 3
attr replication #3
attr resultdir results
attr runnumber 3
attr seedset 3
param SimNetwork.a.parkingLot.parkingDelay "truncnormal(30min, 3min)"
param SimNetwork.a.runway.landingTime "truncnormal(15min, 1.5min)"
param SimNetwork.a.runway.takeoffTime "truncnormal(15min, 1.5min)"
param SimNetwork.a.runway.throughputCheckInterval 150min
param SimNetwork.wg.interArrivalTime exponential(150min)

vector 2  SimNetwork.a.landingQueue  queueLength:vector  ETV
attr source  queueLengthSignal
vector 1  SimNetwork.a.landingQueue  queueTime:vector  ETV
attr source  queueTimeSignal
vector 7  SimNetwork.a.parkingLot  parkingOccupancy:vector  ETV
attr source  parkingOccupancy
vector 5  SimNetwork.a.runway  landedThroughput:vector  ETV
attr source  landedThroughputSignal
vector 6  SimNetwork.a.runway  tookoffThroughput:vector  ETV
attr source  tookoffThroughputSignal
vector 4  SimNetwork.a.takeoffQueue  queueLength:vector  ETV
attr source  queueLengthSignal
vector 3  SimNetwork.a.takeoffQueue  queueTime:vector  ETV
attr source  queueTimeSignal
vector 0  SimNetwork.wg  responseTime:vector  ETV
attr source  responseTimeSignal
0	24	10799.183753999223	10799.183753999
0	70	15228.573503507344	8026.0319854737
0	78	16114.471708584986	8251.7762488718
0	86	16935.839696834628	5979.2555624507
0	91	17811.966849180798	6482.0696561808
0	100	18685.044999891101	6879.5975477845
0	113	22174.452092293965	9485.015123256
0	130	29554.682654538266	11372.195895145
0	147	43828.075374709885	17695.097114736
0	165	54820.163956118275	15047.150258465
0	183	75823.620627389437	24644.494079227
0	207	80949.70715572445	8788.5613059185
0	216	82756.412751518579	5789.6670186816
0	233	95092.827781160264	15831.418844594
0	261	103090.071293490729	11418.10213632
0	274	104799.097503355313	5184.6250567274
0	282	106206.314827791148	5888.2412450706
0	299	109693.832745696362	7351.9432845998
0	315	114233.877433573222	7842.431021346
0	349	131361.185392498478	20759.842064717
0	360	132488.28787723578	6142.0177405963
0	365	133411.146489521132	4563.2062209676
0	393	142160.56065990892	13119.532182101
0	406	143756.122692131968	5254.4245737169
0	415	145487.589693389689	5242.9503646445
0	432	154819.63875302529	13328.94271887
0	450	178518.062686798596	27167.947762789
0	468	192604.998785940116	17732.977636092
0	486	215144.524898205856	25760.363491951
0	503	222506.280231038619	11044.035459723
0	521	235985.230498120624	17428.293558043
0	537	241281.047197086911	8892.7044053173
0	555	255688.920794988909	17597.173440333
0	572	262650.681447590183	10614.606954434
0	597	273134.369605038992	13455.608293637
0	605	275195.072666906665	6317.0334659685
0	622	284492.07233028118	12937.999805139
0	650	288900.32741618517	7868.9382536076
0	663	290856.127409615432	5868.014467393
0	671	292519.88249759685	6753.2051464269
0	688	302429.605027041181	14445.242231316
0	705	314482.989012388565	15900.38393125
0	731	325170.083573464095	14167.969560339
0	742	326259.264502693827	4571.2377693488
0	755	329532.648302623634	6947.4185794727
0	780	340947.514208331355	14972.758476919
0	792	342713.248100216349	5789.8409916961
0	805	346488.080725748443	7500.6369688861
0	823	361898.236481172736	19668.539882131
0	842	365893.053251959931	7518.3552860665
0	856	369246.241834132031	6811.5954587217
0	881	383232.58711588969	17850.217306515
0	889	385179.502269219701	6071.9241900192
0	918	402182.814460932859	20713.1736339
0	931	403937.121962702973	5135.9142148014
0	940	405595.78949864199	6375.4984176824
1	4	7202.541518033614	0
1	12	8178.186711748955	315.49125203577
1	29	10956.584134383931	0
1	43	11857.397945271394	527.50075227135
1	51	12770.943428886787	965.49597678017
1	59	13659.77743299862	970.34046396064
1	102	18685.044999891101	502.55824049774
1	118	26132.97825997414	0
1	136	39773.013697653192	0
1	153	51179.126548162402	0
1	172	72161.14584980591	0
1	188	76966.745732837014	0
1	196	79261.408936566141	0
1	222	91671.969157171121	0
1	239	99614.472446627933	0
1	247	100518.52602476557	200.452442045
1	263	103090.071293490729	748.18183239419
1	287	106391.446412227263	0
1	304	110601.343327781157	0
1	322	126346.270136639485	0
1	330	128847.940268553493	0
1	341	129610.755197331313	569.72671952348
1	371	138501.698118415065	0
1	379	140244.639328745234	0
1	395	142160.56065990892	669.86462575396
1	420	151350.114924009933	0
1	439	174872.021149848169	0
1	457	189384.161406255175	0
1	475	211462.244771316087	0
1	492	218556.936940077507	0
1	509	232388.342791769651	0
1	526	238091.747354656353	0
1	544	252036.074493155805	0
1	560	259678.761311402041	0
1	577	268878.039200938207	0
1	586	271554.072525141993	0
1	611	281031.389162577545	0
1	627	284988.11294222242	0
1	635	286060.90942192064	294.23207075071
1	652	288900.32741618517	915.96462045993
1	677	298582.605081138632	0
1	694	311002.114013125166	0
1	711	321688.026733345022	0
1	719	322585.229723150931	0
1	744	326259.264502693827	284.50877128195
1	761	336923.407108520278	0
1	769	338987.443756862296	0
1	794	342713.248100216349	483.5515011743
1	811	358374.697965893384	0
1	828	362434.646375410288	0
1	844	365893.053251959931	510.68344258529
1	862	379107.578079200463	0
1	870	381469.64082703254	0
1	896	398801.207747901574	0
1	904	399719.082262648182	498.79118168855
1	920	402182.814460932859	698.91022221458
2	2	7202.541518033614	1
2	4	7202.541518033614	0
2	7	7862.695459713185	1
2	12	8178.186711748955	0
2	27	10956.584134383931	1
2	29	10956.584134383931	0
2	35	11329.897193000042	1
2	38	11805.447452106613	2
2	43	11857.397945271394	1
2	46	12689.436969037982	2
2	51	12770.943428886787	1
2	59	13659.77743299862	0
2	97	18182.486759393364	1
2	102	18685.044999891101	0
2	116	26132.97825997414	1
2	118	26132.97825997414	0
2	134	39773.013697653192	1
2	136	39773.013697653192	0
2	151	51179.126548162402	1
2	153	51179.126548162402	0
2	170	72161.14584980591	1
2	172	72161.14584980591	0
2	186	76966.745732837014	1
2	188	76966.745732837014	0
2	194	79261.408936566141	1
2	196	79261.408936566141	0
2	220	91671.969157171121	1
2	222	91671.969157171121	0
2	237	99614.472446627933	1
2	239	99614.472446627933	0
2	242	100318.073582720572	1
2	247	100518.52602476557	0
2	258	102341.889461096538	1
2	263	103090.071293490729	0
2	285	106391.446412227263	1
2	287	106391.446412227263	0
2	302	110601.343327781157	1
2	304	110601.343327781157	0
2	320	126346.270136639485	1
2	322	126346.270136639485	0
2	328	128847.940268553493	1
2	330	128847.940268553493	0
2	333	129041.028477807833	1
2	341	129610.755197331313	0
2	369	138501.698118415065	1
2	371	138501.698118415065	0
2	377	140244.639328745234	1
2	379	140244.639328745234	0
2	390	141490.696034154963	1
2	395	142160.56065990892	0
2	418	151350.114924009933	1
2	420	151350.114924009933	0
2	437	174872.021149848169	1
2	439	174872.021149848169	0
2	455	189384.161406255175	1
2	457	189384.161406255175	0
2	473	211462.244771316087	1
2	475	211462.244771316087	0
2	490	218556.936940077507	1
2	492	218556.936940077507	0
2	507	232388.342791769651	1
2	509	232388.342791769651	0
2	524	238091.747354656353	1
2	526	238091.747354656353	0
2	542	252036.074493155805	1
2	544	252036.074493155805	0
2	558	259678.761311402041	1
2	560	259678.761311402041	0
2	575	268878.039200938207	1
2	577	268878.039200938207	0
2	584	271554.072525141993	1
2	586	271554.072525141993	0
2	609	281031.389162577545	1
2	611	281031.389162577545	0
2	625	284988.11294222242	1
2	627	284988.11294222242	0
2	630	285766.677351169931	1
2	635	286060.90942192064	0
2	646	287984.362795725236	1
2	652	288900.32741618517	0
2	675	298582.605081138632	1
2	677	298582.605081138632	0
2	692	311002.114013125166	1
2	694	311002.114013125166	0
2	709	321688.026733345022	1
2	711	321688.026733345022	0
2	717	322585.229723150931	1
2	719	322585.229723150931	0
2	739	325974.755731411878	1
2	744	326259.264502693827	0
2	759	336923.407108520278	1
2	761	336923.407108520278	0
2	767	338987.443756862296	1
2	769	338987.443756862296	0
2	789	342229.696599042052	1
2	794	342713.248100216349	0
2	809	358374.697965893384	1
2	811	358374.697965893384	0
2	826	362434.646375410288	1
2	828	362434.646375410288	0
2	839	365382.369809374645	1
2	844	365893.053251959931	0
2	860	379107.578079200463	1
2	862	379107.578079200463	0
2	868	381469.64082703254	1
2	870	381469.64082703254	0
2	894	398801.207747901574	1
2	896	398801.207747901574	0
2	899	399220.291080959632	1
2	904	399719.082262648182	0
2	915	401483.904238718279	1
2	920	402182.814460932859	0
3	21	9886.84791616538	0
3	67	14471.561115282188	3348.5782006607
3	72	15228.573503507344	1637.1191982353
3	80	16114.471708584986	1660.6359200477
3	88	16935.839696834628	1551.257994606
3	93	17811.966849180798	1146.8501897423
3	110	21269.017130984811	0
3	127	28799.756386134866	0
3	144	42989.346393646567	0
3	161	53840.972181863338	0
3	180	74839.257067835169	0
3	204	80106.376650055894	732.03599489078
3	213	81949.57455919224	0
3	230	94276.43884019494	0
3	255	102253.435280462832	0
3	271	103849.637030429551	758.8039002147
3	279	105361.974859597986	0
3	296	108894.480689374263	0
3	312	113344.221735587315	0
3	346	130405.24064612769	1179.0890501014
3	354	131404.016491254557	0
3	362	132488.28787723578	613.65025926361
3	387	141224.108226163491	0
3	403	142995.284745602274	158.54825921612
3	412	144650.306812092929	0
3	429	154103.947876877391	0
3	447	177512.800487493909	0
3	465	191880.870254644494	0
3	483	214202.290081434905	0
3	500	221662.240166834508	0
3	518	235147.049564735045	0
3	534	240359.775742297235	0
3	552	254650.89518826668	0
3	569	261682.95529311912	0
3	594	272263.550455189054	698.98028769851
3	602	274010.540685687475	0
3	619	283570.777111636301	0
3	643	287962.015219257663	0
3	660	289880.762846626704	838.57312078174
3	668	291528.51746704211	0
3	685	301483.599220267098	0
3	702	313711.006303851366	0
3	728	324171.883899777657	0
3	736	325282.332703148882	0
3	752	328546.482109618749	0
3	777	340070.932206234735	287.8447440576
3	785	341807.873686183408	0
3	802	345544.188876461695	0
3	820	361060.803272705877	0
3	836	364886.463080732257	0
3	852	368476.385301556456	0
3	878	382450.630809604917	600.27812509905
3	886	384168.881814540496	0
3	912	401334.729580320052	0
3	928	402974.36211044073	745.81116657786
3	936	404856.55220812591	0
4	19	9886.84791616538	1
4	21	9886.84791616538	0
4	32	11122.982914621526	1
4	54	13591.454305272081	2
4	62	14453.835788537247	3
4	67	14471.561115282188	2
4	72	15228.573503507344	1
4	75	15384.581702228592	2
4	80	16114.471708584986	1
4	83	16665.11665943851	2
4	88	16935.839696834628	1
4	93	17811.966849180798	0
4	108	21269.017130984811	1
4	110	21269.017130984811	0
4	125	28799.756386134866	1
4	127	28799.756386134866	0
4	142	42989.346393646567	1
4	144	42989.346393646567	0
4	159	53840.972181863338	1
4	161	53840.972181863338	0
4	178	74839.257067835169	1
4	180	74839.257067835169	0
4	199	79374.340655165116	1
4	204	80106.376650055894	0
4	211	81949.57455919224	1
4	213	81949.57455919224	0
4	228	94276.43884019494	1
4	230	94276.43884019494	0
4	253	102253.435280462832	1
4	255	102253.435280462832	0
4	266	103090.833130214846	1
4	271	103849.637030429551	0
4	277	105361.974859597986	1
4	279	105361.974859597986	0
4	294	108894.480689374263	1
4	296	108894.480689374263	0
4	310	113344.221735587315	1
4	312	113344.221735587315	0
4	336	129226.151596026336	1
4	346	130405.24064612769	0
4	352	131404.016491254557	1
4	354	131404.016491254557	0
4	357	131874.637617972168	1
4	362	132488.28787723578	0
4	385	141224.108226163491	1
4	387	141224.108226163491	0
4	398	142836.736486386153	1
4	403	142995.284745602274	0
4	410	144650.306812092929	1
4	412	144650.306812092929	0
4	427	154103.947876877391	1
4	429	154103.947876877391	0
4	445	177512.800487493909	1
4	447	177512.800487493909	0
4	463	191880.870254644494	1
4	465	191880.870254644494	0
4	481	214202.290081434905	1
4	483	214202.290081434905	0
4	498	221662.240166834508	1
4	500	221662.240166834508	0
4	516	235147.049564735045	1
4	518	235147.049564735045	0
4	532	240359.775742297235	1
4	534	240359.775742297235	0
4	550	254650.89518826668	1
4	552	254650.89518826668	0
4	567	261682.95529311912	1
4	569	261682.95529311912	0
4	589	271564.570167490541	1
4	594	272263.550455189054	0
4	600	274010.540685687475	1
4	602	274010.540685687475	0
4	617	283570.777111636301	1
4	619	283570.777111636301	0
4	641	287962.015219257663	1
4	643	287962.015219257663	0
4	655	289042.189725844961	1
4	660	289880.762846626704	0
4	666	291528.51746704211	1
4	668	291528.51746704211	0
4	683	301483.599220267098	1
4	685	301483.599220267098	0
4	700	313711.006303851366	1
4	702	313711.006303851366	0
4	726	324171.883899777657	1
4	728	324171.883899777657	0
4	734	325282.332703148882	1
4	736	325282.332703148882	0
4	750	328546.482109618749	1
4	752	328546.482109618749	0
4	772	339783.087462177131	1
4	777	340070.932206234735	0
4	783	341807.873686183408	1
4	785	341807.873686183408	0
4	800	345544.188876461695	1
4	802	345544.188876461695	0
4	818	361060.803272705877	1
4	820	361060.803272705877	0
4	834	364886.463080732257	1
4	836	364886.463080732257	0
4	850	368476.385301556456	1
4	852	368476.385301556456	0
4	873	381850.35268450587	1
4	878	382450.630809604917	0
4	884	384168.881814540496	1
4	886	384168.881814540496	0
4	910	401334.729580320052	1
4	912	401334.729580320052	0
4	923	402228.550943862871	1
4	928	402974.36211044073	0
4	934	404856.55220812591	1
4	936	404856.55220812591	0
5	14	9000	1
5	95	18000	5
5	123	27000	2
5	132	36000	0
5	149	45000	1
5	163	54000	1
5	167	63000	0
5	168	72000	0
5	209	81000	3
5	218	90000	0
5	235	99000	1
5	292	108000	4
5	317	117000	1
5	318	126000	0
5	367	135000	3
5	408	144000	3
5	425	153000	1
5	434	162000	0
5	435	171000	0
5	452	180000	1
5	453	189000	0
5	470	198000	1
5	471	207000	0
5	488	216000	1
5	505	225000	1
5	514	234000	1
5	539	243000	1
5	540	252000	0
5	565	261000	2
5	582	270000	1
5	607	279000	1
5	648	288000	3
5	673	297000	1
5	690	306000	1
5	707	315000	1
5	724	324000	2
5	757	333000	1
5	787	342000	2
5	807	351000	1
5	816	360000	1
5	854	369000	2
5	858	378000	0
5	891	387000	2
5	892	396000	0
5	938	405000	3
5	942	414000	0
5	943	423000	0
5	944	432000	0
6	14	9000	0
6	95	18000	5
6	123	27000	2
6	132	36000	1
6	149	45000	1
6	163	54000	0
6	167	63000	1
6	168	72000	0
6	209	81000	2
6	218	90000	1
6	235	99000	1
6	292	108000	3
6	317	117000	2
6	318	126000	0
6	367	135000	3
6	408	144000	2
6	425	153000	1
6	434	162000	1
6	435	171000	0
6	452	180000	1
6	453	189000	0
6	470	198000	1
6	471	207000	0
6	488	216000	1
6	505	225000	1
6	514	234000	0
6	539	243000	2
6	540	252000	0
6	565	261000	1
6	582	270000	1
6	607	279000	2
6	648	288000	1
6	673	297000	3
6	690	306000	1
6	707	315000	1
6	724	324000	0
6	757	333000	3
6	787	342000	1
6	807	351000	2
6	816	360000	0
6	854	369000	2
6	858	378000	1
6	891	387000	2
6	892	396000	0
6	938	405000	2
6	942	414000	1
6	943	423000	0
6	944	432000	0
7	10	8178.186711748955	1
7	16	9169.559606867756	2
7	18	9886.84791616538	1
7	31	11122.982914621526	0
7	41	11857.397945271394	1
7	49	12770.943428886787	2
7	53	13591.454305272081	1
7	57	13659.77743299862	2
7	61	14453.835788537247	1
7	65	14471.561115282188	2
7	74	15384.581702228592	1
7	82	16665.11665943851	0
7	105	19569.921209647844	1
7	107	21269.017130984811	0
7	121	26975.404893646791	1
7	124	28799.756386134866	0
7	139	40882.500174488091	1
7	141	42989.346393646567	0
7	156	52171.803458496597	1
7	158	53840.972181863338	0
7	175	73091.44199425782	1
7	177	74839.257067835169	0
7	191	77801.481311979358	1
7	198	79374.340655165116	0
7	202	80106.376650055894	1
7	210	81949.57455919224	0
7	225	92533.920999575214	1
7	227	94276.43884019494	0
7	245	100518.52602476557	1
7	250	101565.851831410595	2
7	252	102253.435280462832	1
7	265	103090.833130214846	0
7	269	103849.637030429551	1
7	276	105361.974859597986	0
7	290	107206.123532509071	1
7	293	108894.480689374263	0
7	307	111422.161822764637	1
7	309	113344.221735587315	0
7	325	127406.932626965477	1
7	335	129226.151596026336	0
7	339	129610.755197331313	1
7	344	130405.24064612769	2
7	351	131404.016491254557	1
7	356	131874.637617972168	0
7	374	139453.257957870187	1
7	382	141002.659838489084	2
7	384	141224.108226163491	1
7	397	142836.736486386153	0
7	401	142995.284745602274	1
7	409	144650.306812092929	0
7	423	152338.676432469839	1
7	426	154103.947876877391	0
7	442	175670.445615364521	1
7	444	177512.800487493909	0
7	460	190178.700115566272	1
7	462	191880.870254644494	0
7	478	212390.265072362538	1
7	480	214202.290081434905	0
7	495	219680.363405476819	1
7	497	221662.240166834508	0
7	512	233249.307868336548	1
7	515	235147.049564735045	0
7	529	238920.842413377586	1
7	531	240359.775742297235	0
7	547	252905.235798464874	1
7	549	254650.89518826668	0
7	563	260594.513010182987	1
7	566	261682.95529311912	0
7	580	269767.760566704158	1
7	588	271564.570167490541	0
7	592	272263.550455189054	1
7	599	274010.540685687475	0
7	614	281839.329026888516	1
7	616	283570.777111636301	0
7	633	286060.90942192064	1
7	638	287132.459652878569	2
7	640	287962.015219257663	1
7	654	289042.189725844961	0
7	658	289880.762846626704	1
7	665	291528.51746704211	0
7	680	299513.113927370793	1
7	682	301483.599220267098	0
7	697	311944.049390792687	1
7	699	313711.006303851366	0
7	714	322467.673692118929	1
7	722	323371.180734235715	2
7	725	324171.883899777657	1
7	733	325282.332703148882	0
7	747	327089.601872163152	1
7	749	328546.482109618749	0
7	764	337826.550308267735	1
7	771	339783.087462177131	0
7	775	340070.932206234735	1
7	782	341807.873686183408	0
7	797	343709.923043228343	1
7	799	345544.188876461695	0
7	814	359327.265787797108	1
7	817	361060.803272705877	0
7	831	363275.414100521395	1
7	833	364886.463080732257	0
7	847	366839.591016431628	1
7	849	368476.385301556456	0
7	865	380049.103451518133	1
7	872	381850.35268450587	0
7	876	382450.630809604917	1
7	883	384168.881814540496	0
7	902	399719.082262648182	1
7	907	400634.762974560623	2
7	909	401334.729580320052	1
7	922	402228.550943862871	0
7	926	402974.36211044073	1
7	933	404856.55220812591	0
