version 2
run ResponseMeasurement-69-20170110-19:42:48-22188
attr configname ResponseMeasurement
attr datetime 20170110-19:42:48
attr experiment ResponseMeasurement
attr inifile responseStudy.ini
attr iterationvars ""
attr iterationvars2 $repetition=69
attr measurement ""
attr network controltower.SimNetwork
attr processid 22188
attr repetition 69
attr replication #69
attr resultdir results
attr runnumber 69
attr seedset 69
param SimNetwork.a.parkingLot.parkingDelay "truncnormal(60min, 6min)"
param SimNetwork.a.runway.landingTime "truncnormal(5min, 0.5min)"
param SimNetwork.a.runway.takeoffTime "truncnormal(15min, 1.5min)"
param SimNetwork.a.runway.throughputCheckInterval 100min
param SimNetwork.wg.interArrivalTime exponential(100min)

vector 2  SimNetwork.a.landingQueue  queueLength:vector  ETV
attr source  queueLengthSignal
vector 1  SimNetwork.a.landingQueue  queueTime:vector  ETV
attr source  queueTimeSignal
vector 7  SimNetwork.a.parkingLot  parkingOccupancy:vector  ETV
attr source  parkingOccupancy
vector 5  SimNetwork.a.runway  landedThroughput:vector  ETV
attr source  landedThroughputSignal
vector 6  SimNetwork.a.runway  tookoffThroughput:vector  ETV
attr source  tookoffThroughputSignal
vector 4  SimNetwork.a.takeoffQueue  queueLength:vector  ETV
attr source  queueLengthSignal
vector 3  SimNetwork.a.takeoffQueue  queueTime:vector  ETV
attr source  queueTimeSignal
vector 0  SimNetwork.wg  responseTime:vector  ETV
attr source  responseTimeSignal
0	601	206770.540579040097	15447.364641781
0	610	210675.433210934447	8796.4020596325
0	631	223146.070316496191	17531.03076488
0	652	227407.745027217249	8780.2722538302
0	664	230967.025220382401	8750.4757603917
0	678	235839.074821369745	10241.517474354
0	709	241161.841646754491	10540.918300722
0	727	242636.855563823093	5764.2976094723
0	738	245845.179979811802	8867.1055809634
0	744	246701.623440059017	6333.3796151848
0	761	256204.801670113951	15056.491201709
0	800	277580.988587466565	26591.052198839
0	805	278624.060456348446	6160.0400859372
0	813	280592.471428097015	7072.3475524865
0	832	294357.499517808256	18379.12931764
0	860	300537.684133145563	4932.9609533985
0	865	301460.830758507518	11807.762564495
0	895	318446.73294064498	22016.02753364
0	900	319252.086955743238	5277.0669991677
0	939	328556.611474104758	14351.844612041
0	950	329528.216999941582	5671.4347632801
0	974	331178.702757284429	7061.2629471023
0	996	334524.617615260687	10067.549622382
0	1001	335313.746657959972	6113.9734514015
0	1007	336220.334773048142	7101.7232359154
0	1015	337408.205741192863	7542.4629228727
0	1052	348323.477024593231	15433.919842416
0	1057	349364.113875666564	6447.7912881687
0	1065	350287.734862091244	6676.2868600941
0	1090	357190.366891182731	11864.775440391
0	1098	358393.44300506663	6396.3319200436
0	1125	372054.382560928691	17548.518527005
0	1133	375739.088537693441	8789.1487602107
0	1162	388761.991601812841	17946.426344566
0	1187	392474.09149656732	8735.9748156817
0	1195	393468.299370048346	6114.3404315161
0	1216	395950.896340900204	7546.6221212009
0	1225	398396.866157102962	7614.9678883788
0	1233	399704.165166178361	6348.5801974195
0	1260	416376.347862053473	21670.148663483
0	1268	418448.814504985135	6051.2307686282
0	1287	433270.013385319355	19548.807511109
0	1316	445055.316871995015	16686.41518691
0	1321	446065.690933526883	5586.621686751
0	1346	452312.93815559112	11178.480274781
0	1354	454169.435138967594	5994.9266428079
0	1372	466687.855313802517	17358.865694133
0	1389	472267.919677605532	10468.835115923
0	1406	477918.386260935472	10076.166507855
0	1426	483098.3210958467	10205.282537957
0	1448	487562.842073459069	9331.928991159
0	1472	489706.13348192945	7384.7374326878
0	1481	492423.780278020829	8048.1900175749
0	1489	493729.105658937933	6112.6558836383
0	1518	507952.787618960613	19441.733066222
0	1531	509341.946400848008	6583.4946122663
0	1556	513220.264863233971	8346.1680810743
0	1567	514929.780618344836	7248.00396633
0	1575	515824.869830892727	5341.0862085862
0	1597	521288.636823264227	10615.96290373
0	1606	522796.876877674688	7177.5515219057
0	1622	527967.341809410285	10390.455285975
0	1641	541655.020260728223	18449.15721418
0	1667	552255.763494814298	15722.590004874
0	1675	555270.398802651316	7416.4576841152
0	1711	560692.834646840428	10625.206408569
0	1716	561708.918632677713	6321.7870055867
0	1727	563512.246553736472	6806.6683342183
0	1741	567931.090409907935	8480.167127381
0	1766	574989.281156299763	11956.516843672
0	1775	576624.580362328348	6944.6551422411
0	1793	592570.463560788056	20710.967876588
0	1818	599832.069279357372	11942.328227701
0	1827	602879.059085258175	7603.727194542
0	1853	612055.316674307809	14152.163921001
0	1861	613510.631020558761	5590.5623635791
0	1886	620832.991346429255	12060.22589714
0	1902	622579.377230902785	6643.6691517914
0	1914	625828.258535284834	8174.9187087772
0	1928	630210.559661643434	9130.7530133134
0	1945	636952.84394287947	11370.570440302
0	1962	642601.48314319259	9979.8906447601
0	1991	654583.408212130296	16416.14554731
0	2004	656905.273029922611	7114.4966870584
0	2020	659588.100194329759	7308.79433525
0	2029	662789.667637063291	8777.8129116953
0	2057	669298.242510159161	11299.172379056
0	2062	670079.136341201038	5637.3279942005
0	2087	676558.948147467605	11595.045580989
0	2095	677580.141416101688	5139.4608580004
0	2121	686388.088125575187	13350.063648434
0	2132	688172.184590085963	6645.0056477145
0	2157	693071.218618300217	10057.953812016
0	2162	693784.472647824221	6003.2065825131
0	2179	700252.329999310017	11824.633158811
0	2196	705055.720482335755	9638.7426715541
0	2221	711724.505327927353	10875.432675235
0	2238	715006.243028069972	8270.9996576945
0	2246	717129.918494429369	6620.1491719819
0	2264	731383.794319766533	19245.924882741
0	2290	739326.034023527493	13295.915322444
0	2306	742605.471861151719	8069.9325208685
0	2315	744389.763498421981	6322.5574822955
0	2340	751251.37034867171	11467.532789159
0	2348	754161.148177014116	7689.4066105009
0	2368	776581.422996268861	27556.596112157
0	2386	791131.567973954442	19380.753781407
0	2404	802821.545632939652	17022.498863682
0	2422	814053.142155040468	16059.003658647
0	2453	819933.597560097474	11018.648763219
0	2463	821258.587712031195	6190.842353288
0	2472	825408.917817037909	9794.189781727
0	2491	841239.378736104076	21477.301113222
0	2516	847001.309252439666	11188.557488556
0	2535	850441.372334611376	8370.0418373181
0	2557	853099.394047918804	7812.798134289
0	2568	855025.949014762965	6627.7230621209
0	2573	855977.177320627583	6002.6562254176
0	2601	876514.132544920581	25687.486537796
0	2609	877470.948432880268	5566.8113244567
0	2634	882173.139180942278	9714.3828474491
0	2642	883685.103337523641	6213.9584881271
0	2659	888389.235181406262	8865.8111974685
0	2676	894677.877938981478	10884.879368186
0	2693	904018.193160256525	14598.883235455
0	2711	917983.138883509415	18778.316295204
0	2739	923402.747807777474	5028.6634052422
0	2745	924329.48136066313	10822.922141194
0	2765	930085.392127935939	11448.039732408
0	2778	934892.175267477048	9792.9614073265
0	2795	940073.82570915895	10839.036513517
0	2812	947993.783028024807	12715.997563561
0	2830	955856.268128096214	12456.113994817
0	2847	963157.350831577038	12344.442089268
0	2864	970413.10769670684	11502.5977815
0	2882	978759.610930588957	12626.242441687
0	2911	995757.992153153924	22084.457005292
0	2917	996753.283311891318	6392.3549494841
0	2946	1012217.754035237412	20093.273581866
0	2954	1013248.967220196731	6102.8114122924
0	2979	1018340.910809856501	10736.001144241
0	2987	1019313.861748832421	6790.1174693679
0	3001	1023570.179547329559	10172.49897311
0	3018	1029960.78203256473	11527.718542216
0	3035	1036787.830794702404	12162.693304107
1	581	201879.031151301989	0
1	590	205615.039551616409	0
1	616	218627.472773387031	0
1	633	223146.070316496191	929.52085650552
1	641	225597.557347015448	0
1	666	230967.025220382401	346.10187434996
1	683	236872.557954350834	0
1	691	237149.612789784879	171.53839093651
1	711	241161.841646754491	793.5978218803
1	719	241445.100577675746	296.79010927128
1	749	250989.936388627283	0
1	769	272464.020370411271	0
1	777	273520.123875610503	0
1	785	275978.370200168515	0
1	820	289653.068194012151	0
1	837	295604.723179747071	0
1	845	296430.705407005397	0
1	872	313975.019956575573	0
1	880	314300.962738941382	96.195876877797
1	905	323856.782236661529	0
1	914	324164.436826426766	46.997016244657
1	922	324457.067992879056	0
1	952	329528.216999941582	409.60546280884
1	957	329839.199866087653	639.42665952916
1	966	330142.845060378578	277.10224205842
1	979	332889.557182177489	0
1	1021	342916.322587497869	0
1	1029	343611.448001997129	0
1	1037	345325.5914507921	0
1	1070	351997.111085023042	0
1	1079	354505.864033923881	0
1	1105	366949.939777482721	0
1	1113	370815.565257246996	0
1	1139	383738.116680885596	0
1	1148	387353.958938532221	0
1	1164	388761.991601812841	357.7173821135
1	1173	390781.898268724149	0
1	1197	393468.299370048346	112.71440128948
1	1205	394706.19919857089	0
1	1240	412397.583736356958	0
1	1248	413721.205874210147	0
1	1275	428368.901685084641	0
1	1293	440479.069246775911	0
1	1301	441134.457880810085	0
1	1326	448174.508496159739	0
1	1334	449328.989619669782	0
1	1360	461799.08456168285	0
1	1377	467842.219753080812	0
1	1394	472893.03855788968	0
1	1411	478230.913082300108	0
1	1428	483098.3210958467	776.92504660502
1	1436	484375.590260445955	0
1	1453	487616.449775299621	0
1	1461	488511.054552738593	0
1	1495	502758.451788581743	0
1	1504	504874.096782159688	0
1	1520	507952.787618960613	271.01096694581
1	1537	510483.783622306537	0
1	1545	510848.807993723627	176.1340741896
1	1577	515824.869830892727	205.54447512373
1	1586	517576.886523434936	0
1	1611	523205.863046548628	0
1	1629	536533.173489940546	0
1	1647	547853.94111853611	0
1	1655	550067.628238271632	0
1	1680	555387.131627090988	0
1	1688	556705.578219518189	0
1	1697	559450.923282526942	0
1	1729	563512.246553736472	479.48224110824
1	1746	569679.925220087279	0
1	1755	571859.495684199965	0
1	1781	587889.741051656447	0
1	1799	595275.331890716201	0
1	1807	597903.152753306797	0
1	1833	607920.068656979683	0
1	1841	608772.765449289519	0
1	1866	615935.708079111347	0
1	1874	617653.339826507604	0
1	1891	621079.806648330048	0
1	1916	625828.258535284834	245.98503270735
1	1933	632621.592498432506	0
1	1950	638167.262664819896	0
1	1968	649790.776342864212	0
1	1976	652279.30585907973	0
1	1993	654583.408212130296	571.5534867623
1	2009	657999.070131103	0
1	2034	664441.808347000564	0
1	2042	664963.902566478629	0
1	2068	672440.680558101265	0
1	2076	673038.024477140687	0
1	2101	681527.178942371501	0
1	2109	683013.264806283906	0
1	2134	688172.184590085963	390.91852477486
1	2142	688481.152159088642	53.455318589773
1	2167	695416.977810781617	0
1	2184	700849.072652692817	0
1	2201	706735.243370375441	0
1	2210	710509.769322447469	0
1	2226	712137.869437025468	0
1	2253	726030.11870108327	0
1	2270	734535.539340283192	0
1	2279	738067.20601612646	0
1	2295	739783.837559513157	0
1	2320	746471.741566513249	0
1	2328	749024.826884112082	0
1	2356	771750.814192547638	0
1	2374	785799.04676925761	0
1	2392	797994.138496393822	0
1	2410	808914.948796878164	0
1	2427	815067.745358743146	0
1	2435	815614.728035310932	0
1	2455	819933.597560097474	171.5199372155
1	2479	835812.751763883425	0
1	2496	842071.330497293265	0
1	2504	845286.595913629805	0
1	2521	848398.225952642045	0
1	2537	850441.372334611376	466.8512394014
1	2545	850826.646007124687	0
1	2581	871904.137108423603	0
1	2589	872458.756333493136	0
1	2614	877471.14484939659	0
1	2622	879523.423983937807	0
1	2647	883792.998570795327	0
1	2664	889419.309924801455	0
1	2681	899204.822588305715	0
1	2700	913506.559219469333	0
1	2717	918374.084402535245	0
1	2725	918682.787643915167	45.435248387605
1	2750	925099.213860150516	0
1	2767	930085.392127935939	850.60293229396
1	2783	935277.785464464297	0
1	2801	943400.154133278983	0
1	2818	950812.908742308941	0
1	2835	958910.509915206375	0
1	2853	966133.368488901557	0
1	2870	973673.535147862331	0
1	2889	990360.928362407241	0
1	2897	992124.480453371223	0
1	2923	1007146.155807904371	0
1	2931	1007604.909665615729	0
1	2956	1013248.967220196731	725.22294073223
1	2964	1013604.155312588138	206.47473836841
1	2989	1019313.861748832421	880.79825848332
1	3006	1024625.137490595262	0
1	3023	1031922.660755878098	0
2	579	201879.031151301989	1
2	581	201879.031151301989	0
2	588	205615.039551616409	1
2	590	205615.039551616409	0
2	614	218627.472773387031	1
2	616	218627.472773387031	0
2	628	222216.549459990667	1
2	633	223146.070316496191	0
2	639	225597.557347015448	1
2	641	225597.557347015448	0
2	661	230620.923346032438	1
2	666	230967.025220382401	0
2	681	236872.557954350834	1
2	683	236872.557954350834	0
2	686	236978.074398848364	1
2	691	237149.612789784879	0
2	703	240368.243824874191	1
2	706	241148.310468404469	2
2	711	241161.841646754491	1
2	719	241445.100577675746	0
2	747	250989.936388627283	1
2	749	250989.936388627283	0
2	767	272464.020370411271	1
2	769	272464.020370411271	0
2	775	273520.123875610503	1
2	777	273520.123875610503	0
2	783	275978.370200168515	1
2	785	275978.370200168515	0
2	818	289653.068194012151	1
2	820	289653.068194012151	0
2	835	295604.723179747071	1
2	837	295604.723179747071	0
2	843	296430.705407005397	1
2	845	296430.705407005397	0
2	870	313975.019956575573	1
2	872	313975.019956575573	0
2	875	314204.766862063585	1
2	880	314300.962738941382	0
2	903	323856.782236661529	1
2	905	323856.782236661529	0
2	909	324117.439810182109	1
2	914	324164.436826426766	0
2	920	324457.067992879056	1
2	922	324457.067992879056	0
2	944	329118.611537132738	1
2	947	329199.773206558497	2
2	952	329528.216999941582	1
2	957	329839.199866087653	0
2	960	329865.742818320155	1
2	966	330142.845060378578	0
2	977	332889.557182177489	1
2	979	332889.557182177489	0
2	1019	342916.322587497869	1
2	1021	342916.322587497869	0
2	1027	343611.448001997129	1
2	1029	343611.448001997129	0
2	1035	345325.5914507921	1
2	1037	345325.5914507921	0
2	1068	351997.111085023042	1
2	1070	351997.111085023042	0
2	1077	354505.864033923881	1
2	1079	354505.864033923881	0
2	1103	366949.939777482721	1
2	1105	366949.939777482721	0
2	1111	370815.565257246996	1
2	1113	370815.565257246996	0
2	1137	383738.116680885596	1
2	1139	383738.116680885596	0
2	1146	387353.958938532221	1
2	1148	387353.958938532221	0
2	1159	388404.274219699338	1
2	1164	388761.991601812841	0
2	1171	390781.898268724149	1
2	1173	390781.898268724149	0
2	1192	393355.584968758868	1
2	1197	393468.299370048346	0
2	1203	394706.19919857089	1
2	1205	394706.19919857089	0
2	1238	412397.583736356958	1
2	1240	412397.583736356958	0
2	1246	413721.205874210147	1
2	1248	413721.205874210147	0
2	1273	428368.901685084641	1
2	1275	428368.901685084641	0
2	1291	440479.069246775911	1
2	1293	440479.069246775911	0
2	1299	441134.457880810085	1
2	1301	441134.457880810085	0
2	1324	448174.508496159739	1
2	1326	448174.508496159739	0
2	1332	449328.989619669782	1
2	1334	449328.989619669782	0
2	1358	461799.08456168285	1
2	1360	461799.08456168285	0
2	1375	467842.219753080812	1
2	1377	467842.219753080812	0
2	1392	472893.03855788968	1
2	1394	472893.03855788968	0
2	1409	478230.913082300108	1
2	1411	478230.913082300108	0
2	1423	482321.396049241675	1
2	1428	483098.3210958467	0
2	1434	484375.590260445955	1
2	1436	484375.590260445955	0
2	1451	487616.449775299621	1
2	1453	487616.449775299621	0
2	1459	488511.054552738593	1
2	1461	488511.054552738593	0
2	1493	502758.451788581743	1
2	1495	502758.451788581743	0
2	1502	504874.096782159688	1
2	1504	504874.096782159688	0
2	1515	507681.776652014803	1
2	1520	507952.787618960613	0
2	1535	510483.783622306537	1
2	1537	510483.783622306537	0
2	1540	510672.673919534031	1
2	1545	510848.807993723627	0
2	1572	515619.325355768993	1
2	1577	515824.869830892727	0
2	1584	517576.886523434936	1
2	1586	517576.886523434936	0
2	1609	523205.863046548628	1
2	1611	523205.863046548628	0
2	1627	536533.173489940546	1
2	1629	536533.173489940546	0
2	1645	547853.94111853611	1
2	1647	547853.94111853611	0
2	1653	550067.628238271632	1
2	1655	550067.628238271632	0
2	1678	555387.131627090988	1
2	1680	555387.131627090988	0
2	1686	556705.578219518189	1
2	1688	556705.578219518189	0
2	1695	559450.923282526942	1
2	1697	559450.923282526942	0
2	1724	563032.764312628227	1
2	1729	563512.246553736472	0
2	1744	569679.925220087279	1
2	1746	569679.925220087279	0
2	1753	571859.495684199965	1
2	1755	571859.495684199965	0
2	1779	587889.741051656447	1
2	1781	587889.741051656447	0
2	1797	595275.331890716201	1
2	1799	595275.331890716201	0
2	1805	597903.152753306797	1
2	1807	597903.152753306797	0
2	1831	607920.068656979683	1
2	1833	607920.068656979683	0
2	1839	608772.765449289519	1
2	1841	608772.765449289519	0
2	1864	615935.708079111347	1
2	1866	615935.708079111347	0
2	1872	617653.339826507604	1
2	1874	617653.339826507604	0
2	1889	621079.806648330048	1
2	1891	621079.806648330048	0
2	1911	625582.273502577482	1
2	1916	625828.258535284834	0
2	1931	632621.592498432506	1
2	1933	632621.592498432506	0
2	1948	638167.262664819896	1
2	1950	638167.262664819896	0
2	1966	649790.776342864212	1
2	1968	649790.776342864212	0
2	1974	652279.30585907973	1
2	1976	652279.30585907973	0
2	1988	654011.854725367994	1
2	1993	654583.408212130296	0
2	2007	657999.070131103	1
2	2009	657999.070131103	0
2	2032	664441.808347000564	1
2	2034	664441.808347000564	0
2	2040	664963.902566478629	1
2	2042	664963.902566478629	0
2	2066	672440.680558101265	1
2	2068	672440.680558101265	0
2	2074	673038.024477140687	1
2	2076	673038.024477140687	0
2	2099	681527.178942371501	1
2	2101	681527.178942371501	0
2	2107	683013.264806283906	1
2	2109	683013.264806283906	0
2	2129	687781.266065311104	1
2	2134	688172.184590085963	0
2	2137	688427.696840498869	1
2	2142	688481.152159088642	0
2	2165	695416.977810781617	1
2	2167	695416.977810781617	0
2	2182	700849.072652692817	1
2	2184	700849.072652692817	0
2	2199	706735.243370375441	1
2	2201	706735.243370375441	0
2	2208	710509.769322447469	1
2	2210	710509.769322447469	0
2	2224	712137.869437025468	1
2	2226	712137.869437025468	0
2	2251	726030.11870108327	1
2	2253	726030.11870108327	0
2	2268	734535.539340283192	1
2	2270	734535.539340283192	0
2	2277	738067.20601612646	1
2	2279	738067.20601612646	0
2	2293	739783.837559513157	1
2	2295	739783.837559513157	0
2	2318	746471.741566513249	1
2	2320	746471.741566513249	0
2	2326	749024.826884112082	1
2	2328	749024.826884112082	0
2	2354	771750.814192547638	1
2	2356	771750.814192547638	0
2	2372	785799.04676925761	1
2	2374	785799.04676925761	0
2	2390	797994.138496393822	1
2	2392	797994.138496393822	0
2	2408	808914.948796878164	1
2	2410	808914.948796878164	0
2	2425	815067.745358743146	1
2	2427	815067.745358743146	0
2	2433	815614.728035310932	1
2	2435	815614.728035310932	0
2	2450	819762.077622881969	1
2	2455	819933.597560097474	0
2	2477	835812.751763883425	1
2	2479	835812.751763883425	0
2	2494	842071.330497293265	1
2	2496	842071.330497293265	0
2	2502	845286.595913629805	1
2	2504	845286.595913629805	0
2	2519	848398.225952642045	1
2	2521	848398.225952642045	0
2	2532	849974.521095209974	1
2	2537	850441.372334611376	0
2	2543	850826.646007124687	1
2	2545	850826.646007124687	0
2	2579	871904.137108423603	1
2	2581	871904.137108423603	0
2	2587	872458.756333493136	1
2	2589	872458.756333493136	0
2	2612	877471.14484939659	1
2	2614	877471.14484939659	0
2	2620	879523.423983937807	1
2	2622	879523.423983937807	0
2	2645	883792.998570795327	1
2	2647	883792.998570795327	0
2	2662	889419.309924801455	1
2	2664	889419.309924801455	0
2	2679	899204.822588305715	1
2	2681	899204.822588305715	0
2	2698	913506.559219469333	1
2	2700	913506.559219469333	0
2	2715	918374.084402535245	1
2	2717	918374.084402535245	0
2	2720	918637.352395527562	1
2	2725	918682.787643915167	0
2	2748	925099.213860150516	1
2	2750	925099.213860150516	0
2	2761	929234.789195641981	1
2	2767	930085.392127935939	0
2	2781	935277.785464464297	1
2	2783	935277.785464464297	0
2	2799	943400.154133278983	1
2	2801	943400.154133278983	0
2	2816	950812.908742308941	1
2	2818	950812.908742308941	0
2	2833	958910.509915206375	1
2	2835	958910.509915206375	0
2	2851	966133.368488901557	1
2	2853	966133.368488901557	0
2	2868	973673.535147862331	1
2	2870	973673.535147862331	0
2	2887	990360.928362407241	1
2	2889	990360.928362407241	0
2	2895	992124.480453371223	1
2	2897	992124.480453371223	0
2	2921	1007146.155807904371	1
2	2923	1007146.155807904371	0
2	2929	1007604.909665615729	1
2	2931	1007604.909665615729	0
2	2951	1012523.744279464499	1
2	2956	1013248.967220196731	0
2	2959	1013397.680574219724	1
2	2964	1013604.155312588138	0
2	2984	1018433.063490349096	1
2	2989	1019313.861748832421	0
2	3004	1024625.137490595262	1
2	3006	1024625.137490595262	0
2	3021	1031922.660755878098	1
2	3023	1031922.660755878098	0
3	598	205912.53258316072	135.27277028087
3	606	209590.551089153338	0
3	625	222166.958237023769	0
3	649	226576.402102442704	0
3	658	230056.52457927597	0
3	675	235123.227384202816	0
3	700	240275.837730319369	0
3	724	241732.394115661878	289.41900129218
3	732	244933.171001724048	0
3	740	245845.179979811802	239.84485591742
3	758	255220.786077142576	0
3	794	276669.051560306669	0
3	802	277580.988587466565	701.74805664159
3	810	279727.118722065503	0
3	828	293420.948969483712	0
3	853	299556.085377241179	0
3	862	300537.684133145563	212.29680712499
3	888	317563.006953536093	0
3	897	318446.73294064498	605.4632370665
3	930	327694.252757509377	0
3	941	328556.611474104758	350.53223650888
3	971	330434.147361015173	2030.5528495229
3	987	333603.345254254871	0
3	998	334524.617615260687	645.95385895049
3	1003	335313.746657959972	973.74042531593
3	1012	336507.065452677055	0
3	1045	347415.852026629892	0
3	1054	348323.477024593231	490.28469359623
3	1062	349497.986704720118	0
3	1087	356190.217920646094	0
3	1095	357486.942396857582	0
3	1121	371119.595553237327	171.57946582015
3	1130	374810.892460719817	0
3	1156	387858.950041490489	0
3	1181	391617.913494100936	0
3	1189	392474.09149656732	214.40536761374
3	1213	395015.363973893588	34.069065576148
3	1222	397517.108274550936	0
3	1230	398908.09062468056	0
3	1257	415460.299392017018	0
3	1265	417643.532647167283	0
3	1284	432448.898803112595	0
3	1310	444066.91505697811	0
3	1318	445055.316871995015	116.20398868404
3	1343	451649.230913113208	0
3	1351	453305.005135235489	0
3	1369	465632.772476590523	0
3	1386	471521.042277128936	0
3	1403	477162.823724738668	0
3	1420	482163.203689946908	0
3	1445	486717.365632709438	0
3	1469	488830.384312488932	117.90496237046
3	1477	491483.512757173718	0
3	1486	492900.247695142209	0
3	1512	507067.33615892526	0
3	1528	508265.479264855113	199.98283235817
3	1553	512142.15361669644	0
3	1561	514052.773423177176	0
3	1569	514929.780618344836	532.85964059967
3	1594	520301.113708128446	0
3	1602	521921.262528969347	0
3	1619	526992.452358245856	0
3	1638	540623.829271786189	0
3	1663	551380.89497194959	0
3	1672	554394.427038332637	0
3	1705	559694.07722656065	94.780678408749
3	1713	560692.834646840428	578.27775603613
3	1721	562712.927090976785	0
3	1738	567168.397496201969	0
3	1763	574012.805232205504	0
3	1771	575849.632942729978	0
3	1790	591726.108355813529	0
3	1815	598797.291717052161	0
3	1824	602028.473085119638	0
3	1849	611129.461706127156	0
3	1858	612615.435547143221	0
3	1883	619903.807572393287	0
3	1899	621659.974647399385	0
3	1908	624824.116728798914	0
3	1924	629323.477988932873	0
3	1941	635981.799935648474	0
3	1958	641777.996612630515	0
3	1984	653598.275915728829	0
3	2001	655960.324609425284	0
3	2017	658756.325405182406	0
3	2026	661950.832025377111	0
3	2051	668378.603241681398	0
3	2059	669298.242510159161	241.09259357829
3	2084	675789.39290054508	0
3	2092	676729.096015663488	0
3	2118	685516.728459199849	0
3	2126	687166.828872258277	0
3	2151	692043.33092184497	0
3	2159	693071.218618300217	1025.614950652
3	2176	699395.640774048407	0
3	2193	704210.254861420526	0
3	2218	710794.94244174913	240.91468123643
3	2235	714095.11993717895	0
3	2243	716045.867142583701	0
3	2261	730327.973167479641	0
3	2287	738384.707650770072	0
3	2303	741543.029400668313	0
3	2311	743394.452537251681	0
3	2337	750328.105418974001	0
3	2345	753059.453924120566	0
3	2365	775714.216189943793	0
3	2383	790369.799222959405	0
3	2401	801839.031781337788	0
3	2419	813158.975006151684	0
3	2444	819091.174383507231	0
3	2460	820279.316057635486	996.31688562891
3	2469	824416.596565134498	0
3	2488	840173.230353670393	0
3	2513	846293.143636133345	0
3	2529	849391.82421930498	0
3	2554	852239.185287505511	0
3	2562	853960.625481062495	0
3	2570	855025.949014762965	439.2826215354
3	2597	875504.195517601637	0
3	2606	876627.977482201593	0
3	2630	881310.120984530236	0
3	2639	882830.111347161227	0
3	2655	887639.303803938905	0
3	2672	893961.366223763156	0
3	2690	903169.493220504124	0
3	2708	917047.854769144949	0
3	2733	922516.300746866614	0
3	2741	923402.747807777474	874.67536113097
3	2758	929080.871650246315	0
3	2775	934095.775702011067	0
3	2792	939119.788924054616	0
3	2809	947170.515934564524	0
3	2827	955077.619990934923	0
3	2844	962290.151359595307	0
3	2861	969472.964737124264	0
3	2878	977907.412655802444	0
3	2905	994808.826629316585	0
3	2913	995757.992153153924	233.78519517195
3	2940	1011352.855544324293	0
3	2948	1012217.754035237412	787.16740767114
3	2973	1017489.044791896234	0
3	2981	1018340.910809856501	461.05326100899
3	2998	1022666.007859442943	0
3	3015	1029147.480246175245	0
3	3032	1035953.969152733249	0
4	593	205777.259812879846	1
4	598	205912.53258316072	0
4	604	209590.551089153338	1
4	606	209590.551089153338	0
4	623	222166.958237023769	1
4	625	222166.958237023769	0
4	647	226576.402102442704	1
4	649	226576.402102442704	0
4	656	230056.52457927597	1
4	658	230056.52457927597	0
4	673	235123.227384202816	1
4	675	235123.227384202816	0
4	698	240275.837730319369	1
4	700	240275.837730319369	0
4	714	241442.975114369697	1
4	724	241732.394115661878	0
4	730	244933.171001724048	1
4	732	244933.171001724048	0
4	735	245605.335123894384	1
4	740	245845.179979811802	0
4	756	255220.786077142576	1
4	758	255220.786077142576	0
4	792	276669.051560306669	1
4	794	276669.051560306669	0
4	797	276879.24053082497	1
4	802	277580.988587466565	0
4	808	279727.118722065503	1
4	810	279727.118722065503	0
4	826	293420.948969483712	1
4	828	293420.948969483712	0
4	851	299556.085377241179	1
4	853	299556.085377241179	0
4	857	300325.387326020574	1
4	862	300537.684133145563	0
4	886	317563.006953536093	1
4	888	317563.006953536093	0
4	891	317841.269703578483	1
4	897	318446.73294064498	0
4	928	327694.252757509377	1
4	930	327694.252757509377	0
4	933	328206.079237595874	1
4	936	328403.594511492297	2
4	941	328556.611474104758	1
4	971	330434.147361015173	0
4	985	333603.345254254871	1
4	987	333603.345254254871	0
4	990	333878.663756310193	1
4	993	334340.00623264404	2
4	998	334524.617615260687	1
4	1003	335313.746657959972	0
4	1010	336507.065452677055	1
4	1012	336507.065452677055	0
4	1043	347415.852026629892	1
4	1045	347415.852026629892	0
4	1048	347833.192330997001	1
4	1054	348323.477024593231	0
4	1060	349497.986704720118	1
4	1062	349497.986704720118	0
4	1085	356190.217920646094	1
4	1087	356190.217920646094	0
4	1093	357486.942396857582	1
4	1095	357486.942396857582	0
4	1116	370948.016087417182	1
4	1121	371119.595553237327	0
4	1128	374810.892460719817	1
4	1130	374810.892460719817	0
4	1154	387858.950041490489	1
4	1156	387858.950041490489	0
4	1179	391617.913494100936	1
4	1181	391617.913494100936	0
4	1184	392259.686128953578	1
4	1189	392474.09149656732	0
4	1208	394981.29490831744	1
4	1213	395015.363973893588	0
4	1220	397517.108274550936	1
4	1222	397517.108274550936	0
4	1228	398908.09062468056	1
4	1230	398908.09062468056	0
4	1255	415460.299392017018	1
4	1257	415460.299392017018	0
4	1263	417643.532647167283	1
4	1265	417643.532647167283	0
4	1282	432448.898803112595	1
4	1284	432448.898803112595	0
4	1308	444066.91505697811	1
4	1310	444066.91505697811	0
4	1313	444939.112883310976	1
4	1318	445055.316871995015	0
4	1341	451649.230913113208	1
4	1343	451649.230913113208	0
4	1349	453305.005135235489	1
4	1351	453305.005135235489	0
4	1367	465632.772476590523	1
4	1369	465632.772476590523	0
4	1384	471521.042277128936	1
4	1386	471521.042277128936	0
4	1401	477162.823724738668	1
4	1403	477162.823724738668	0
4	1418	482163.203689946908	1
4	1420	482163.203689946908	0
4	1443	486717.365632709438	1
4	1445	486717.365632709438	0
4	1464	488712.479350118469	1
4	1469	488830.384312488932	0
4	1475	491483.512757173718	1
4	1477	491483.512757173718	0
4	1484	492900.247695142209	1
4	1486	492900.247695142209	0
4	1510	507067.33615892526	1
4	1512	507067.33615892526	0
4	1523	508065.496432496938	1
4	1528	508265.479264855113	0
4	1551	512142.15361669644	1
4	1553	512142.15361669644	0
4	1559	514052.773423177176	1
4	1561	514052.773423177176	0
4	1564	514396.920977745169	1
4	1569	514929.780618344836	0
4	1592	520301.113708128446	1
4	1594	520301.113708128446	0
4	1600	521921.262528969347	1
4	1602	521921.262528969347	0
4	1617	526992.452358245856	1
4	1619	526992.452358245856	0
4	1636	540623.829271786189	1
4	1638	540623.829271786189	0
4	1661	551380.89497194959	1
4	1663	551380.89497194959	0
4	1670	554394.427038332637	1
4	1672	554394.427038332637	0
4	1700	559599.296548151901	1
4	1705	559694.07722656065	0
4	1708	560114.556890804296	1
4	1713	560692.834646840428	0
4	1719	562712.927090976785	1
4	1721	562712.927090976785	0
4	1736	567168.397496201969	1
4	1738	567168.397496201969	0
4	1761	574012.805232205504	1
4	1763	574012.805232205504	0
4	1769	575849.632942729978	1
4	1771	575849.632942729978	0
4	1788	591726.108355813529	1
4	1790	591726.108355813529	0
4	1813	598797.291717052161	1
4	1815	598797.291717052161	0
4	1822	602028.473085119638	1
4	1824	602028.473085119638	0
4	1847	611129.461706127156	1
4	1849	611129.461706127156	0
4	1856	612615.435547143221	1
4	1858	612615.435547143221	0
4	1881	619903.807572393287	1
4	1883	619903.807572393287	0
4	1897	621659.974647399385	1
4	1899	621659.974647399385	0
4	1906	624824.116728798914	1
4	1908	624824.116728798914	0
4	1922	629323.477988932873	1
4	1924	629323.477988932873	0
4	1939	635981.799935648474	1
4	1941	635981.799935648474	0
4	1956	641777.996612630515	1
4	1958	641777.996612630515	0
4	1982	653598.275915728829	1
4	1984	653598.275915728829	0
4	1999	655960.324609425284	1
4	2001	655960.324609425284	0
4	2015	658756.325405182406	1
4	2017	658756.325405182406	0
4	2024	661950.832025377111	1
4	2026	661950.832025377111	0
4	2049	668378.603241681398	1
4	2051	668378.603241681398	0
4	2054	669057.149916580867	1
4	2059	669298.242510159161	0
4	2082	675789.39290054508	1
4	2084	675789.39290054508	0
4	2090	676729.096015663488	1
4	2092	676729.096015663488	0
4	2116	685516.728459199849	1
4	2118	685516.728459199849	0
4	2124	687166.828872258277	1
4	2126	687166.828872258277	0
4	2149	692043.33092184497	1
4	2151	692043.33092184497	0
4	2154	692045.603667648191	1
4	2159	693071.218618300217	0
4	2174	699395.640774048407	1
4	2176	699395.640774048407	0
4	2191	704210.254861420526	1
4	2193	704210.254861420526	0
4	2213	710554.027760512698	1
4	2218	710794.94244174913	0
4	2233	714095.11993717895	1
4	2235	714095.11993717895	0
4	2241	716045.867142583701	1
4	2243	716045.867142583701	0
4	2259	730327.973167479641	1
4	2261	730327.973167479641	0
4	2285	738384.707650770072	1
4	2287	738384.707650770072	0
4	2301	741543.029400668313	1
4	2303	741543.029400668313	0
4	2309	743394.452537251681	1
4	2311	743394.452537251681	0
4	2335	750328.105418974001	1
4	2337	750328.105418974001	0
4	2343	753059.453924120566	1
4	2345	753059.453924120566	0
4	2363	775714.216189943793	1
4	2365	775714.216189943793	0
4	2381	790369.799222959405	1
4	2383	790369.799222959405	0
4	2399	801839.031781337788	1
4	2401	801839.031781337788	0
4	2417	813158.975006151684	1
4	2419	813158.975006151684	0
4	2442	819091.174383507231	1
4	2444	819091.174383507231	0
4	2447	819282.999172006575	1
4	2460	820279.316057635486	0
4	2467	824416.596565134498	1
4	2469	824416.596565134498	0
4	2486	840173.230353670393	1
4	2488	840173.230353670393	0
4	2511	846293.143636133345	1
4	2513	846293.143636133345	0
4	2527	849391.82421930498	1
4	2529	849391.82421930498	0
4	2552	852239.185287505511	1
4	2554	852239.185287505511	0
4	2560	853960.625481062495	1
4	2562	853960.625481062495	0
4	2565	854586.666393227568	1
4	2570	855025.949014762965	0
4	2595	875504.195517601637	1
4	2597	875504.195517601637	0
4	2604	876627.977482201593	1
4	2606	876627.977482201593	0
4	2628	881310.120984530236	1
4	2630	881310.120984530236	0
4	2637	882830.111347161227	1
4	2639	882830.111347161227	0
4	2653	887639.303803938905	1
4	2655	887639.303803938905	0
4	2670	893961.366223763156	1
4	2672	893961.366223763156	0
4	2688	903169.493220504124	1
4	2690	903169.493220504124	0
4	2706	917047.854769144949	1
4	2708	917047.854769144949	0
4	2731	922516.300746866614	1
4	2733	922516.300746866614	0
4	2736	922528.072446646506	1
4	2741	923402.747807777474	0
4	2756	929080.871650246315	1
4	2758	929080.871650246315	0
4	2773	934095.775702011067	1
4	2775	934095.775702011067	0
4	2790	939119.788924054616	1
4	2792	939119.788924054616	0
4	2807	947170.515934564524	1
4	2809	947170.515934564524	0
4	2825	955077.619990934923	1
4	2827	955077.619990934923	0
4	2842	962290.151359595307	1
4	2844	962290.151359595307	0
4	2859	969472.964737124264	1
4	2861	969472.964737124264	0
4	2876	977907.412655802444	1
4	2878	977907.412655802444	0
4	2903	994808.826629316585	1
4	2905	994808.826629316585	0
4	2908	995524.206957981974	1
4	2913	995757.992153153924	0
4	2938	1011352.855544324293	1
4	2940	1011352.855544324293	0
4	2943	1011430.58662756627	1
4	2948	1012217.754035237412	0
4	2971	1017489.044791896234	1
4	2973	1017489.044791896234	0
4	2976	1017879.857548847509	1
4	2981	1018340.910809856501	0
4	2996	1022666.007859442943	1
4	2998	1022666.007859442943	0
4	3013	1029147.480246175245	1
4	3015	1029147.480246175245	0
4	3030	1035953.969152733249	1
4	3032	1035953.969152733249	0
5	586	204000	1
5	608	210000	1
5	612	216000	0
5	621	222000	1
5	654	228000	2
5	671	234000	1
5	696	240000	2
5	742	246000	2
5	754	252000	1
5	763	258000	0
5	764	264000	0
5	765	270000	0
5	787	276000	2
5	815	282000	1
5	816	288000	0
5	830	294000	1
5	855	300000	2
5	867	306000	0
5	868	312000	0
5	893	318000	2
5	907	324000	0
5	962	330000	4
5	1005	336000	3
5	1017	342000	0
5	1050	348000	3
5	1075	354000	1
5	1100	360000	1
5	1101	366000	0
5	1123	372000	2
5	1135	378000	0
5	1141	384000	0
5	1169	390000	3
5	1218	396000	3
5	1235	402000	0
5	1236	408000	0
5	1250	414000	1
5	1270	420000	1
5	1271	426000	0
5	1280	432000	1
5	1289	438000	0
5	1306	444000	2
5	1339	450000	2
5	1356	456000	0
5	1362	462000	0
5	1379	468000	1
5	1399	474000	2
5	1416	480000	1
5	1441	486000	2
5	1479	492000	2
5	1491	498000	0
5	1500	504000	1
5	1533	510000	2
5	1579	516000	2
5	1604	522000	2
5	1624	528000	1
5	1625	534000	0
5	1634	540000	1
5	1643	546000	0
5	1665	552000	2
5	1693	558000	2
5	1734	564000	2
5	1751	570000	1
5	1773	576000	1
5	1777	582000	0
5	1783	588000	0
5	1795	594000	1
5	1820	600000	2
5	1829	606000	0
5	1851	612000	2
5	1879	618000	2
5	1904	624000	1
5	1926	630000	1
5	1943	636000	1
5	1960	642000	1
5	1964	648000	0
5	1986	654000	2
5	2022	660000	2
5	2047	666000	2
5	2064	672000	0
5	2097	678000	2
5	2114	684000	2
5	2147	690000	2
5	2172	696000	1
5	2189	702000	1
5	2206	708000	1
5	2231	714000	2
5	2248	720000	0
5	2249	726000	0
5	2266	732000	1
5	2275	738000	1
5	2313	744000	2
5	2333	750000	2
5	2350	756000	0
5	2351	762000	0
5	2352	768000	0
5	2361	774000	1
5	2370	780000	0
5	2376	786000	0
5	2388	792000	1
5	2394	798000	0
5	2406	804000	1
5	2415	810000	1
5	2440	816000	2
5	2465	822000	1
5	2474	828000	0
5	2475	834000	0
5	2484	840000	1
5	2509	846000	2
5	2550	852000	3
5	2575	858000	0
5	2576	864000	0
5	2577	870000	0
5	2599	876000	2
5	2632	882000	2
5	2657	888000	1
5	2674	894000	1
5	2686	900000	1
5	2695	906000	0
5	2696	912000	0
5	2713	918000	1
5	2743	924000	2
5	2763	930000	1
5	2788	936000	2
5	2797	942000	0
5	2814	948000	1
5	2823	954000	1
5	2840	960000	1
5	2849	966000	0
5	2866	972000	1
5	2880	978000	1
5	2884	984000	0
5	2885	990000	0
5	2915	996000	2
5	2919	1002000	0
5	2936	1008000	2
5	2969	1014000	2
5	2994	1020000	1
5	3011	1026000	1
5	3025	1032000	0
5	3037	1038000	1
5	3038	1044000	0
5	3039	1050000	0
5	3040	1056000	0
5	3041	1062000	0
6	586	204000	0
6	608	210000	1
6	612	216000	1
6	621	222000	0
6	654	228000	2
6	671	234000	1
6	696	240000	1
6	742	246000	3
6	754	252000	1
6	763	258000	1
6	764	264000	0
6	765	270000	0
6	787	276000	0
6	815	282000	3
6	816	288000	0
6	830	294000	0
6	855	300000	1
6	867	306000	2
6	868	312000	0
6	893	318000	0
6	907	324000	2
6	962	330000	2
6	1005	336000	3
6	1017	342000	2
6	1050	348000	0
6	1075	354000	3
6	1100	360000	2
6	1101	366000	0
6	1123	372000	0
6	1135	378000	2
6	1141	384000	0
6	1169	390000	1
6	1218	396000	3
6	1235	402000	2
6	1236	408000	0
6	1250	414000	0
6	1270	420000	2
6	1271	426000	0
6	1280	432000	0
6	1289	438000	1
6	1306	444000	0
6	1339	450000	2
6	1356	456000	2
6	1362	462000	0
6	1379	468000	1
6	1399	474000	1
6	1416	480000	1
6	1441	486000	1
6	1479	492000	2
6	1491	498000	2
6	1500	504000	0
6	1533	510000	2
6	1579	516000	3
6	1604	522000	1
6	1624	528000	2
6	1625	534000	0
6	1634	540000	0
6	1643	546000	1
6	1665	552000	0
6	1693	558000	2
6	1734	564000	3
6	1751	570000	1
6	1773	576000	1
6	1777	582000	1
6	1783	588000	0
6	1795	594000	1
6	1820	600000	1
6	1829	606000	1
6	1851	612000	0
6	1879	618000	2
6	1904	624000	2
6	1926	630000	1
6	1943	636000	1
6	1960	642000	1
6	1964	648000	1
6	1986	654000	0
6	2022	660000	3
6	2047	666000	1
6	2064	672000	2
6	2097	678000	2
6	2114	684000	0
6	2147	690000	2
6	2172	696000	2
6	2189	702000	1
6	2206	708000	1
6	2231	714000	1
6	2248	720000	2
6	2249	726000	0
6	2266	732000	1
6	2275	738000	0
6	2313	744000	2
6	2333	750000	1
6	2350	756000	2
6	2351	762000	0
6	2352	768000	0
6	2361	774000	0
6	2370	780000	1
6	2376	786000	0
6	2388	792000	1
6	2394	798000	0
6	2406	804000	1
6	2415	810000	0
6	2440	816000	1
6	2465	822000	2
6	2474	828000	1
6	2475	834000	0
6	2484	840000	0
6	2509	846000	1
6	2550	852000	2
6	2575	858000	3
6	2576	864000	0
6	2577	870000	0
6	2599	876000	0
6	2632	882000	2
6	2657	888000	2
6	2674	894000	1
6	2686	900000	1
6	2695	906000	1
6	2696	912000	0
6	2713	918000	1
6	2743	924000	1
6	2763	930000	1
6	2788	936000	2
6	2797	942000	1
6	2814	948000	1
6	2823	954000	0
6	2840	960000	1
6	2849	966000	1
6	2866	972000	1
6	2880	978000	0
6	2884	984000	1
6	2885	990000	0
6	2915	996000	1
6	2919	1002000	1
6	2936	1008000	0
6	2969	1014000	2
6	2994	1020000	2
6	3011	1026000	1
6	3025	1032000	1
6	3037	1038000	1
6	3038	1044000	0
6	3039	1050000	0
6	3040	1056000	0
6	3041	1062000	0
7	584	202151.51417273705	1
7	592	205777.259812879846	0
7	596	205912.53258316072	1
7	603	209590.551089153338	0
7	619	218949.601974105247	1
7	622	222166.958237023769	0
7	636	223437.58486588923	1
7	644	225902.485335715895	2
7	646	226576.402102442704	1
7	655	230056.52457927597	0
7	669	231256.056101723607	1
7	672	235123.227384202816	0
7	689	237149.612789784879	1
7	694	237460.67762608047	2
7	697	240275.837730319369	1
7	713	241442.975114369697	0
7	717	241445.100577675746	1
7	722	241732.394115661878	2
7	729	244933.171001724048	1
7	734	245605.335123894384	0
7	752	251266.642298865184	1
7	755	255220.786077142576	0
7	772	272714.13262517579	1
7	780	273803.714798253764	2
7	789	276247.819142637905	3
7	791	276669.051560306669	2
7	796	276879.24053082497	1
7	807	279727.118722065503	0
7	823	289940.215089220275	1
7	825	293420.948969483712	0
7	840	295865.435685209153	1
7	848	296711.663034620617	2
7	850	299556.085377241179	1
7	856	300325.387326020574	0
7	878	314300.962738941382	1
7	883	314669.813515840378	2
7	885	317563.006953536093	1
7	890	317841.269703578483	0
7	912	324164.436826426766	1
7	917	324446.309826016384	2
7	925	324730.110606855791	3
7	927	327694.252757509377	2
7	932	328206.079237595874	1
7	935	328403.594511492297	0
7	955	329839.199866087653	1
7	964	330142.845060378578	2
7	969	330434.147361015173	3
7	982	333174.066988487723	4
7	984	333603.345254254871	3
7	989	333878.663756310193	2
7	992	334340.00623264404	1
7	1009	336507.065452677055	0
7	1024	343214.086315853785	1
7	1032	343899.267410028624	2
7	1040	345651.539284221868	3
7	1042	347415.852026629892	2
7	1047	347833.192330997001	1
7	1059	349497.986704720118	0
7	1073	352299.266646227984	1
7	1082	354871.434791242364	2
7	1084	356190.217920646094	1
7	1092	357486.942396857582	0
7	1108	367217.531556005486	1
7	1115	370948.016087417182	0
7	1119	371119.595553237327	1
7	1127	374810.892460719817	0
7	1143	384042.893353494684	1
7	1151	387698.993837523066	2
7	1153	387858.950041490489	1
7	1167	389032.192862237443	2
7	1176	391047.703257845216	3
7	1178	391617.913494100936	2
7	1183	392259.686128953578	1
7	1200	393865.67603092867	2
7	1207	394981.29490831744	1
7	1211	395015.363973893588	2
7	1219	397517.108274550936	1
7	1227	398908.09062468056	0
7	1243	412766.871684253919	1
7	1252	414059.716105366114	2
7	1254	415460.299392017018	1
7	1262	417643.532647167283	0
7	1278	428689.783418552131	1
7	1281	432448.898803112595	0
7	1296	440815.520410545504	1
7	1304	441406.59103479074	2
7	1307	444066.91505697811	1
7	1312	444939.112883310976	0
7	1329	448496.358497936252	1
7	1337	449597.121361086177	2
7	1340	451649.230913113208	1
7	1348	453305.005135235489	0
7	1364	462118.71764370039	1
7	1366	465632.772476590523	0
7	1381	468130.88145949841	1
7	1383	471521.042277128936	0
7	1397	473185.322927300449	1
7	1400	477162.823724738668	0
7	1414	478528.996697070158	1
7	1417	482163.203689946908	0
7	1431	483415.811577661875	1
7	1439	484696.259792473094	2
7	1442	486717.365632709438	1
7	1456	487923.412672500206	2
7	1463	488712.479350118469	1
7	1467	488830.384312488932	2
7	1474	491483.512757173718	1
7	1483	492900.247695142209	0
7	1498	503116.402838866482	1
7	1507	505194.651419095285	2
7	1509	507067.33615892526	1
7	1522	508065.496432496938	0
7	1526	508265.479264855113	1
7	1543	510848.807993723627	2
7	1548	511119.643784102373	3
7	1550	512142.15361669644	2
7	1558	514052.773423177176	1
7	1563	514396.920977745169	0
7	1581	516080.957478037278	1
7	1589	517913.886097261821	2
7	1591	520301.113708128446	1
7	1599	521921.262528969347	0
7	1614	523489.14752931924	1
7	1616	526992.452358245856	0
7	1632	536823.703097209291	1
7	1635	540623.829271786189	0
7	1650	548119.45085868393	1
7	1658	550355.189556520866	2
7	1660	551380.89497194959	1
7	1669	554394.427038332637	0
7	1683	555720.203933870653	1
7	1691	557018.632094177145	2
7	1699	559599.296548151901	1
7	1703	559694.07722656065	2
7	1707	560114.556890804296	1
7	1718	562712.927090976785	0
7	1732	563810.566345072885	1
7	1735	567168.397496201969	0
7	1749	569987.804755524553	1
7	1758	572176.73873101148	2
7	1760	574012.805232205504	1
7	1768	575849.632942729978	0
7	1785	588188.472461568136	1
7	1787	591726.108355813529	0
7	1802	595528.022936678806	1
7	1810	598239.268188471216	2
7	1812	598797.291717052161	1
7	1821	602028.473085119638	0
7	1836	608198.619138397362	1
7	1844	609117.299629281779	2
7	1846	611129.461706127156	1
7	1855	612615.435547143221	0
7	1869	616200.960369757674	1
7	1877	617921.586405872079	2
7	1880	619903.807572393287	1
7	1894	621390.162103767845	2
7	1896	621659.974647399385	1
7	1905	624824.116728798914	0
7	1919	626165.84695300307	1
7	1921	629323.477988932873	0
7	1936	632934.609824179018	1
7	1938	635981.799935648474	0
7	1953	638442.760991286861	1
7	1955	641777.996612630515	0
7	1971	650089.065435522647	1
7	1979	652571.247451450349	2
7	1981	653598.275915728829	1
7	1996	654906.139274344147	2
7	1998	655960.324609425284	1
7	2012	658311.680309696597	2
7	2014	658756.325405182406	1
7	2023	661950.832025377111	0
7	2037	664780.004412071712	1
7	2045	665300.084810976464	2
7	2048	668378.603241681398	1
7	2053	669057.149916580867	0
7	2071	672741.358729531782	1
7	2079	673347.079603881271	2
7	2081	675789.39290054508	1
7	2089	676729.096015663488	0
7	2104	681832.757159950818	1
7	2112	683282.204282834077	2
7	2115	685516.728459199849	1
7	2123	687166.828872258277	0
7	2140	688481.152159088642	1
7	2145	688824.421460316505	2
7	2148	692043.33092184497	1
7	2153	692045.603667648191	0
7	2170	695718.035775810032	1
7	2173	699395.640774048407	0
7	2187	701144.020600507161	1
7	2190	704210.254861420526	0
7	2204	707024.541774177345	1
7	2212	710554.027760512698	0
7	2216	710794.94244174913	1
7	2229	712414.216420677142	2
7	2232	714095.11993717895	1
7	2240	716045.867142583701	0
7	2256	726335.588585551703	1
7	2258	730327.973167479641	0
7	2273	734881.578016809985	1
7	2282	738325.650061769743	2
7	2284	738384.707650770072	1
7	2298	740075.386092632509	2
7	2300	741543.029400668313	1
7	2308	743394.452537251681	0
7	2323	746797.656456426833	1
7	2331	749289.763555420068	2
7	2334	750328.105418974001	1
7	2342	753059.453924120566	0
7	2359	772056.856864447662	1
7	2362	775714.216189943793	0
7	2378	786122.894608350966	1
7	2380	790369.799222959405	0
7	2396	798307.23425528223	1
7	2398	801839.031781337788	0
7	2413	809234.533432448435	1
7	2416	813158.975006151684	0
7	2430	815355.491710620594	1
7	2438	815884.389646835647	2
7	2441	819091.174383507231	1
7	2446	819282.999172006575	0
7	2458	820279.316057635486	1
7	2466	824416.596565134498	0
7	2482	836112.879892021888	1
7	2485	840173.230353670393	0
7	2499	842320.352065751983	1
7	2507	845559.031569396782	2
7	2510	846293.143636133345	1
7	2524	848739.503323111637	2
7	2526	849391.82421930498	1
7	2540	850788.248124535332	2
7	2548	851164.402008878327	3
7	2551	852239.185287505511	2
7	2559	853960.625481062495	1
7	2564	854586.666393227568	0
7	2584	872186.037611793703	1
7	2592	872805.573730313163	2
7	2594	875504.195517601637	1
7	2603	876627.977482201593	0
7	2617	877736.244354478218	1
7	2625	879835.937746718792	2
7	2627	881310.120984530236	1
7	2636	882830.111347161227	0
7	2650	884124.757192736956	1
7	2652	887639.303803938905	0
7	2667	889741.982294525981	1
7	2669	893961.366223763156	0
7	2684	899497.724719317392	1
7	2687	903169.493220504124	0
7	2703	913809.897227008134	1
7	2705	917047.854769144949	0
7	2723	918682.787643915167	1
7	2728	919019.779181983137	2
7	2730	922516.300746866614	1
7	2735	922528.072446646506	0
7	2753	925390.968123777641	1
7	2755	929080.871650246315	0
7	2770	930420.633353648823	1
7	2772	934095.775702011067	0
7	2786	935626.316177589148	1
7	2789	939119.788924054616	0
7	2804	943732.731866769156	1
7	2806	947170.515934564524	0
7	2821	951111.708944332618	1
7	2824	955077.619990934923	0
7	2838	959188.729270933366	1
7	2841	962290.151359595307	0
7	2856	966448.055725161515	1
7	2858	969472.964737124264	0
7	2873	973959.511572104326	1
7	2875	977907.412655802444	0
7	2892	990637.948509181845	1
7	2900	992368.07993604865	2
7	2902	994808.826629316585	1
7	2907	995524.206957981974	0
7	2926	1007429.880427221775	1
7	2934	1007920.81678575038	2
7	2937	1011352.855544324293	1
7	2942	1011430.58662756627	0
7	2962	1013604.155312588138	1
7	2967	1013905.470919402824	2
7	2970	1017489.044791896234	1
7	2975	1017879.857548847509	0
7	2992	1019586.843316757922	1
7	2995	1022666.007859442943	0
7	3009	1024856.607075268208	1
7	3012	1029147.480246175245	0
7	3027	1032215.616248740296	1
7	3029	1035953.969152733249	0
