version 2
run ResponseMeasurement-101-20170110-19:43:01-22220
attr configname ResponseMeasurement
attr datetime 20170110-19:43:01
attr experiment ResponseMeasurement
attr inifile responseStudy.ini
attr iterationvars ""
attr iterationvars2 $repetition=101
attr measurement ""
attr network controltower.SimNetwork
attr processid 22220
attr repetition 101
attr replication #101
attr resultdir results
attr runnumber 101
attr seedset 101
param SimNetwork.a.parkingLot.parkingDelay "truncnormal(60min, 6min)"
param SimNetwork.a.runway.landingTime "truncnormal(5min, 0.5min)"
param SimNetwork.a.runway.takeoffTime "truncnormal(15min, 1.5min)"
param SimNetwork.a.runway.throughputCheckInterval 100min
param SimNetwork.wg.interArrivalTime exponential(100min)

vector 2  SimNetwork.a.landingQueue  queueLength:vector  ETV
attr source  queueLengthSignal
vector 1  SimNetwork.a.landingQueue  queueTime:vector  ETV
attr source  queueTimeSignal
vector 7  SimNetwork.a.parkingLot  parkingOccupancy:vector  ETV
attr source  parkingOccupancy
vector 4  SimNetwork.a.takeoffQueue  queueLength:vector  ETV
attr source  queueLengthSignal
vector 3  SimNetwork.a.takeoffQueue  queueTime:vector  ETV
attr source  queueTimeSignal
vector 5  SimNetwork.a.runway  landedThroughput:vector  ETV
attr source  landedThroughputSignal
vector 6  SimNetwork.a.runway  tookoffThroughput:vector  ETV
attr source  tookoffThroughputSignal
vector 0  SimNetwork.wg  responseTime:vector  ETV
attr source  responseTimeSignal
0	521	204440.816728850354	15499.442100114
0	532	207402.464448792462	8282.1021809529
0	554	212695.763129033106	10385.244219178
0	562	214016.27601044882	7187.5020065882
0	589	229726.631998551556	20299.90653913
0	600	231099.971975461081	6099.6319422908
0	622	235422.81649131288	8787.9663974154
0	638	238059.913339026056	7282.7506611538
0	647	240281.91032022095	6745.4111006742
0	672	247203.557497147825	11455.165240116
0	683	248482.012156131642	6299.7580654157
0	697	253145.474904358199	9611.1866645589
0	715	264820.194160087466	16347.629396377
0	732	271573.772691487405	12092.793658829
0	749	279260.269728671831	12648.922761537
0	775	288612.741742226408	14415.932997144
0	783	289929.907334717109	6636.208044526
0	804	319140.193093613945	34366.376765669
0	824	325220.064159399248	11015.847032171
0	849	330073.101713557131	9366.9250712221
0	854	330940.060433571001	6503.5038432541
0	872	343510.111236700508	17373.061975379
0	889	349485.855126317103	10793.807557955
0	930	356858.986103111014	12028.871508707
0	944	359936.091513910569	8080.6225520636
0	950	360890.082529669714	5659.4724634958
0	955	361939.498686232275	6701.752391141
0	973	376076.980882925357	20625.35458295
0	994	385920.760252950867	14429.030689035
0	1027	391199.550720773939	9662.1386666849
0	1032	392110.476064630344	6952.6924938256
0	1046	394767.898834589735	7534.9329620493
0	1076	400180.548360977658	10166.430572976
0	1084	401163.181918027807	7031.7088788539
0	1090	402118.990625981472	7568.4794220458
0	1107	410084.016914071575	12822.67435793
0	1137	428705.402464319979	23530.64316568
0	1159	432052.752371203113	8125.8006787856
0	1170	433456.684317901488	5600.3067628977
0	1175	434252.829536819505	6870.7740564498
0	1192	439579.742927436561	10497.473889974
0	1217	449659.592228514908	14677.553476128
0	1226	450701.620755460967	6264.9479386904
0	1263	467837.142548132234	22075.799457257
0	1269	468774.540814633782	5777.3763415301
0	1277	470059.686869393233	6430.3425782493
0	1319	482356.342360792022	16486.369808714
0	1327	484391.511207772166	6996.261755284
0	1338	485796.966891110153	4924.296451427
0	1347	486711.97328040157	7289.8545449922
0	1360	491573.043459967446	10624.619410284
0	1413	499778.987703215157	13945.843467069
0	1435	500957.63737252606	6022.758217556
0	1440	501772.831910546314	5857.5743710548
0	1445	502585.319858865031	6588.9485533469
0	1453	503444.330376679306	7340.9480422843
0	1459	504244.881603978507	7254.8478622452
0	1476	513360.580169539036	14011.546999899
0	1497	525336.978650594351	16694.646434162
0	1511	530623.324022997504	9498.2876677012
0	1530	547043.331959196178	22124.255860082
0	1558	557420.036791781735	4714.4960457086
0	1567	558396.329539122714	15995.574088033
0	1580	562858.995340209986	10079.352660374
0	1597	568064.7432214707	9943.6427829876
0	1617	575664.672783209501	11640.985982534
0	1639	580250.669010344336	9925.7232428115
0	1650	581958.317122656183	6768.0740945922
0	1664	585953.898516504496	9223.6882981211
0	1690	598518.696517763802	17258.770771452
0	1699	600350.019635232251	6027.3080426981
0	1717	612691.937305791736	17039.601725584
0	1743	625253.09415674022	17640.12310514
0	1751	627595.290875354542	7262.2250749371
0	1777	640613.320971403449	18106.869432605
0	1786	642877.998247713253	7777.4079200557
0	1803	648019.909457076418	10677.637791553
0	1821	663679.905146687207	19899.332793794
0	1864	679979.563654198213	21023.866688713
0	1875	682097.632733708951	4674.5801582523
0	1886	682967.777034025887	7428.6033968429
0	1905	684527.90635704572	6913.1681452475
0	1916	687651.003504046069	5378.6698872268
0	1921	688462.503035788404	10661.768609943
0	1944	726010.586755724004	42859.774181897
0	1985	733834.479816222732	12275.559162076
0	1999	735632.384067597436	6604.5860609007
0	2004	736724.359393338924	5678.4799145307
0	2009	737538.755267511227	6328.3475970038
0	2043	744335.010028826628	12473.503051438
0	2062	747205.168333613911	8283.5221163036
0	2067	748008.077581225068	6103.7678879749
0	2078	749591.33463897778	6466.6780229685
0	2103	754346.361907848095	9345.5198860551
0	2117	756288.733324650661	6968.7196321671
0	2133	758689.834807370567	6712.595587121
0	2144	761592.249027776371	7832.158768207
0	2166	766304.649789478235	9460.4413738883
0	2174	767243.27619293779	5883.7277706568
0	2199	773658.341173132891	11085.247099104
0	2208	774983.869983716223	6012.3743564715
0	2232	779599.263500921594	9668.6849456303
0	2241	780472.953841831353	5351.0245178206
0	2258	788301.725346572349	12536.752045191
0	2284	802113.093722863762	4333.037033812
0	2292	803112.247711155094	19776.851401478
0	2309	807895.248563945881	9850.1307534402
0	2337	831611.35199232219	28157.220442735
0	2360	834460.048658484879	7362.7672636243
0	2381	836945.503174846579	7831.7163322693
0	2405	839114.505084240438	5256.661205412
0	2410	839898.985341971209	8113.6788065689
0	2422	842459.665458215457	8143.7433304072
0	2427	843412.703559314013	6820.3100625602
0	2468	849719.890127983977	11782.416921228
0	2483	852360.307178913571	7417.6251899432
0	2488	853228.996307814456	5714.7053926931
0	2496	854186.083444776207	6178.9420235811
0	2518	859444.824147741532	11007.850439794
0	2526	862841.807931025535	8790.0608078931
0	2546	869666.193981830521	11443.791972169
0	2560	874534.44206589795	9418.0070791363
0	2586	885051.77705881714	16044.920252302
0	2595	888392.455859025374	8225.0742625408
0	2619	892626.929861974227	8848.9563809349
0	2628	894350.433681376311	5806.3293665716
0	2669	900821.569603051986	11602.34564475
0	2680	902257.874901998954	6934.6898237869
0	2688	903316.389398600521	5879.249228314
0	2693	904206.247762221246	6620.5819340659
0	2724	927993.591453661003	30365.494750967
0	2732	929014.574653809913	6138.1254642576
0	2749	933721.921462926202	10748.230148722
0	2771	938779.431803000325	10210.930962293
0	2779	940258.272019761511	6866.7365255088
0	2804	946556.220256246111	10833.651820404
0	2813	948017.861275837273	6545.6347171419
0	2849	955255.934524744488	12346.965221809
0	2865	957740.380286624455	7449.7656304205
0	2870	958788.354230326534	5649.8349940336
0	2879	960380.269460851674	7022.2551379308
0	2897	973315.52824579188	18322.103654432
0	2925	981986.528771712562	13251.44524072
0	2939	984510.584102504089	7229.4277516363
0	2950	987395.882465603635	8260.6320470383
0	2964	991889.439688704564	10484.710631102
0	2981	997245.00926411307	10041.840007978
0	3011	1014572.656539119719	21924.752727754
0	3024	1017788.999856271419	8198.4577285552
0	3032	1019731.024580354904	7304.7645032649
0	3050	1028899.661684926753	14642.56702646
0	3071	1041930.689724162635	18166.652103521
0	3085	1046854.351209628056	9236.2037354089
0	3102	1052636.153804457429	11033.976030422
0	3119	1058755.582381136264	10726.242135792
1	509	202310.518909854952	0
1	534	207402.464448792462	573.69044493184
1	542	209426.725459421673	0
1	569	225000.340033170305	0
1	577	226634.850093897514	0
1	602	231099.971975461081	322.80929758886
1	610	233536.499219546774	0
1	627	235748.392257032153	0
1	652	242182.254090715935	0
1	660	243534.28823979933	0
1	685	248482.012156131642	9.447392421344
1	703	259480.979032658302	0
1	720	266611.346967134522	0
1	737	274196.808745081924	0
1	755	283293.699290191154	0
1	763	284773.816327944586	0
1	792	314204.217127228418	0
1	809	320706.176642334982	0
1	826	325220.064159399248	783.50756908236
1	834	326137.049261321562	0
1	860	338692.047568361762	0
1	877	344830.114594403622	0
1	894	351855.46896184694	0
1	903	355230.610066173957	0
1	917	355535.057993090761	297.31169799952
1	922	355853.872898270404	402.24659829522
1	961	371491.729563915461	0
1	979	381537.412054089067	0
1	996	385920.760252950867	762.97668214611
1	1004	387232.965872540415	0
1	1013	390014.117788001308	0
1	1048	394767.898834589735	636.42579541586
1	1053	395027.889722509377	477.37851857374
1	1062	397261.342556141836	0
1	1095	405174.759298640218	0
1	1114	423926.951692417506	0
1	1123	427382.055480369698	0
1	1139	428705.402464319979	849.02490931622
1	1147	429082.269037462424	0
1	1180	434982.03875238645	0
1	1198	444436.672816770518	0
1	1206	445761.343090875257	0
1	1233	462997.164473103731	0
1	1241	463629.34429114391	0
1	1249	465869.97255207787	0
1	1283	477395.249452488168	0
1	1291	479422.118735409324	0
1	1300	480872.67043968311	0
1	1308	481149.17470863431	200.7506589506
1	1349	486711.97328040157	878.82904425517
1	1366	494934.879154970069	0
1	1374	495915.257539491471	0
1	1385	496316.885161990999	320.51385647285
1	1390	496605.444443040007	502.06210864503
1	1398	496990.03374173334	0
1	1415	499778.987703215157	429.95453357533
1	1464	508642.332216432139	0
1	1482	521125.036355296257	0
1	1499	525336.978650594351	417.90255147983
1	1518	542400.755451089233	0
1	1536	552705.540746073171	0
1	1544	552974.853202698282	195.21052286256
1	1569	558396.329539122714	275.22910063963
1	1586	564023.686800675788	0
1	1603	570324.945767532816	0
1	1619	575664.672783209501	474.42975514549
1	1628	576730.210218383388	0
1	1652	581958.317122656183	698.39137634415
1	1671	594322.711592534146	0
1	1679	595652.335580208117	0
1	1705	607612.971051600113	0
1	1723	620333.065800417491	0
1	1731	622506.451538798305	0
1	1757	635100.590327657565	0
1	1766	637342.271665523762	0
1	1791	643780.57235289363	0
1	1809	658955.696965484816	0
1	1828	675539.173637182966	0
1	1836	677423.052575456612	0
1	1844	677665.67753082896	50.939319030709
1	1853	678016.980480866719	216.24605502151
1	1888	682967.777034025887	695.44341720662
1	1896	683289.334549479406	138.52197565209
1	1932	721558.920654146911	0
1	1949	729027.798006696711	0
1	1957	731045.879478808233	0
1	1965	731326.426604644333	116.01893413692
1	1973	731861.5069773885	0
1	2015	738921.646217310338	0
1	2023	741904.309693250156	0
1	2031	743124.656616009307	0
1	2048	745000.84202179297	0
1	2080	749591.33463897778	271.32094649422
1	2089	751977.239220249549	0
1	2105	754346.361907848095	586.2716482787
1	2122	756844.208415589956	0
1	2146	761592.249027776371	232.70060549541
1	2155	762573.094074028589	0
1	2180	768971.495627244765	0
1	2188	769930.578555291343	0
1	2213	775121.929324010727	0
1	2221	775764.973301381837	0
1	2246	783335.396309677051	0
1	2264	797780.056689051793	0
1	2273	798101.816274923266	56.698464417573
1	2297	803454.131549586843	0
1	2317	827097.281394860543	0
1	2326	829113.786842577325	0
1	2342	831785.306535402292	0
1	2362	834460.048658484879	602.20477965647
1	2367	834731.46854758782	415.54641977961
1	2383	836945.503174846579	353.10967809273
1	2391	837937.4732067557	0
1	2432	844942.681988970324	0
1	2441	847514.29091512132	0
1	2449	848007.141421195143	0
1	2457	848436.97370794781	0
1	2498	854186.083444776207	134.33632164378
1	2507	858222.402009661834	0
1	2532	865116.434986761672	0
1	2548	869666.193981830521	659.33717531563
1	2566	880167.381596484594	0
1	2575	883777.97348103932	0
1	2600	888544.104314804742	0
1	2608	889219.223958302091	0
1	2633	895323.185078212021	0
1	2641	897437.140170286514	0
1	2652	897795.334507719215	209.6686795639
1	2657	898139.586151625251	511.48944893079
1	2701	922876.44918955236	0
1	2709	923199.728503764281	226.03718956011
1	2734	929014.574653809913	446.07381310292
1	2751	933721.921462926202	330.38596867352
1	2759	935722.568435842453	0
1	2784	941472.226558695347	0
1	2793	942908.96930293597	0
1	2818	950290.614656203992	0
1	2826	953138.519236292889	0
1	2834	953435.544187990054	77.529865069146
1	2851	955255.934524744488	262.50993338437
1	2885	968735.083530992937	0
1	2902	977281.156350867799	0
1	2911	979135.250418565291	0
1	2927	981986.528771712562	581.79971411043
1	2952	987395.882465603635	192.7132094686
1	2969	992647.903811365538	0
1	2988	1009590.542127716244	0
1	2996	1012426.260077090034	0
1	3013	1014572.656539119719	315.56188065277
1	3038	1023764.03762064136	0
1	3056	1037618.147474219182	0
1	3073	1041930.689724162635	328.51195012698
1	3090	1048029.340245344365	0
1	3107	1054578.347924148459	0
2	507	202310.518909854952	1
2	509	202310.518909854952	0
2	529	206828.774003860624	1
2	534	207402.464448792462	0
2	540	209426.725459421673	1
2	542	209426.725459421673	0
2	567	225000.340033170305	1
2	569	225000.340033170305	0
2	575	226634.850093897514	1
2	577	226634.850093897514	0
2	597	230777.162677872218	1
2	602	231099.971975461081	0
2	608	233536.499219546774	1
2	610	233536.499219546774	0
2	625	235748.392257032153	1
2	627	235748.392257032153	0
2	650	242182.254090715935	1
2	652	242182.254090715935	0
2	658	243534.28823979933	1
2	660	243534.28823979933	0
2	680	248472.564763710298	1
2	685	248482.012156131642	0
2	701	259480.979032658302	1
2	703	259480.979032658302	0
2	718	266611.346967134522	1
2	720	266611.346967134522	0
2	735	274196.808745081924	1
2	737	274196.808745081924	0
2	753	283293.699290191154	1
2	755	283293.699290191154	0
2	761	284773.816327944586	1
2	763	284773.816327944586	0
2	790	314204.217127228418	1
2	792	314204.217127228418	0
2	807	320706.176642334982	1
2	809	320706.176642334982	0
2	821	324436.55659031689	1
2	826	325220.064159399248	0
2	832	326137.049261321562	1
2	834	326137.049261321562	0
2	858	338692.047568361762	1
2	860	338692.047568361762	0
2	875	344830.114594403622	1
2	877	344830.114594403622	0
2	892	351855.46896184694	1
2	894	351855.46896184694	0
2	901	355230.610066173957	1
2	903	355230.610066173957	0
2	906	355237.746295091244	1
2	909	355451.626299975181	2
2	917	355535.057993090761	1
2	922	355853.872898270404	0
2	959	371491.729563915461	1
2	961	371491.729563915461	0
2	977	381537.412054089067	1
2	979	381537.412054089067	0
2	991	385157.783570804761	1
2	996	385920.760252950867	0
2	1002	387232.965872540415	1
2	1004	387232.965872540415	0
2	1011	390014.117788001308	1
2	1013	390014.117788001308	0
2	1040	394131.47303917387	1
2	1043	394550.511203935635	2
2	1048	394767.898834589735	1
2	1053	395027.889722509377	0
2	1060	397261.342556141836	1
2	1062	397261.342556141836	0
2	1093	405174.759298640218	1
2	1095	405174.759298640218	0
2	1112	423926.951692417506	1
2	1114	423926.951692417506	0
2	1121	427382.055480369698	1
2	1123	427382.055480369698	0
2	1134	427856.377555003758	1
2	1139	428705.402464319979	0
2	1145	429082.269037462424	1
2	1147	429082.269037462424	0
2	1178	434982.03875238645	1
2	1180	434982.03875238645	0
2	1196	444436.672816770518	1
2	1198	444436.672816770518	0
2	1204	445761.343090875257	1
2	1206	445761.343090875257	0
2	1231	462997.164473103731	1
2	1233	462997.164473103731	0
2	1239	463629.34429114391	1
2	1241	463629.34429114391	0
2	1247	465869.97255207787	1
2	1249	465869.97255207787	0
2	1281	477395.249452488168	1
2	1283	477395.249452488168	0
2	1289	479422.118735409324	1
2	1291	479422.118735409324	0
2	1298	480872.67043968311	1
2	1300	480872.67043968311	0
2	1303	480948.424049683711	1
2	1308	481149.17470863431	0
2	1343	485833.144236146401	1
2	1349	486711.97328040157	0
2	1364	494934.879154970069	1
2	1366	494934.879154970069	0
2	1372	495915.257539491471	1
2	1374	495915.257539491471	0
2	1377	495996.371305518146	1
2	1380	496103.382334394977	2
2	1385	496316.885161990999	1
2	1390	496605.444443040007	0
2	1396	496990.03374173334	1
2	1398	496990.03374173334	0
2	1410	499349.033169639827	1
2	1415	499778.987703215157	0
2	1462	508642.332216432139	1
2	1464	508642.332216432139	0
2	1480	521125.036355296257	1
2	1482	521125.036355296257	0
2	1494	524919.076099114517	1
2	1499	525336.978650594351	0
2	1516	542400.755451089233	1
2	1518	542400.755451089233	0
2	1534	552705.540746073171	1
2	1536	552705.540746073171	0
2	1539	552779.642679835726	1
2	1544	552974.853202698282	0
2	1564	558121.100438483082	1
2	1569	558396.329539122714	0
2	1584	564023.686800675788	1
2	1586	564023.686800675788	0
2	1601	570324.945767532816	1
2	1603	570324.945767532816	0
2	1614	575190.243028064014	1
2	1619	575664.672783209501	0
2	1626	576730.210218383388	1
2	1628	576730.210218383388	0
2	1647	581259.925746312032	1
2	1652	581958.317122656183	0
2	1669	594322.711592534146	1
2	1671	594322.711592534146	0
2	1677	595652.335580208117	1
2	1679	595652.335580208117	0
2	1703	607612.971051600113	1
2	1705	607612.971051600113	0
2	1721	620333.065800417491	1
2	1723	620333.065800417491	0
2	1729	622506.451538798305	1
2	1731	622506.451538798305	0
2	1755	635100.590327657565	1
2	1757	635100.590327657565	0
2	1764	637342.271665523762	1
2	1766	637342.271665523762	0
2	1789	643780.57235289363	1
2	1791	643780.57235289363	0
2	1807	658955.696965484816	1
2	1809	658955.696965484816	0
2	1826	675539.173637182966	1
2	1828	675539.173637182966	0
2	1834	677423.052575456612	1
2	1836	677423.052575456612	0
2	1839	677614.738211798251	1
2	1844	677665.67753082896	0
2	1847	677800.734425845211	1
2	1853	678016.980480866719	0
2	1880	682272.333616819263	1
2	1888	682967.777034025887	0
2	1891	683150.812573827319	1
2	1896	683289.334549479406	0
2	1930	721558.920654146911	1
2	1932	721558.920654146911	0
2	1947	729027.798006696711	1
2	1949	729027.798006696711	0
2	1955	731045.879478808233	1
2	1957	731045.879478808233	0
2	1960	731210.407670507415	1
2	1965	731326.426604644333	0
2	1971	731861.5069773885	1
2	1973	731861.5069773885	0
2	2013	738921.646217310338	1
2	2015	738921.646217310338	0
2	2021	741904.309693250156	1
2	2023	741904.309693250156	0
2	2029	743124.656616009307	1
2	2031	743124.656616009307	0
2	2046	745000.84202179297	1
2	2048	745000.84202179297	0
2	2075	749320.013692483562	1
2	2080	749591.33463897778	0
2	2087	751977.239220249549	1
2	2089	751977.239220249549	0
2	2100	753760.090259569399	1
2	2105	754346.361907848095	0
2	2120	756844.208415589956	1
2	2122	756844.208415589956	0
2	2141	761359.548422280964	1
2	2146	761592.249027776371	0
2	2153	762573.094074028589	1
2	2155	762573.094074028589	0
2	2178	768971.495627244765	1
2	2180	768971.495627244765	0
2	2186	769930.578555291343	1
2	2188	769930.578555291343	0
2	2211	775121.929324010727	1
2	2213	775121.929324010727	0
2	2219	775764.973301381837	1
2	2221	775764.973301381837	0
2	2244	783335.396309677051	1
2	2246	783335.396309677051	0
2	2262	797780.056689051793	1
2	2264	797780.056689051793	0
2	2268	798045.117810505693	1
2	2273	798101.816274923266	0
2	2295	803454.131549586843	1
2	2297	803454.131549586843	0
2	2315	827097.281394860543	1
2	2317	827097.281394860543	0
2	2324	829113.786842577325	1
2	2326	829113.786842577325	0
2	2340	831785.306535402292	1
2	2342	831785.306535402292	0
2	2353	833857.843878828409	1
2	2357	834315.92212780821	2
2	2362	834460.048658484879	1
2	2367	834731.46854758782	0
2	2378	836592.393496753853	1
2	2383	836945.503174846579	0
2	2389	837937.4732067557	1
2	2391	837937.4732067557	0
2	2430	844942.681988970324	1
2	2432	844942.681988970324	0
2	2439	847514.29091512132	1
2	2441	847514.29091512132	0
2	2447	848007.141421195143	1
2	2449	848007.141421195143	0
2	2455	848436.97370794781	1
2	2457	848436.97370794781	0
2	2493	854051.747123132426	1
2	2498	854186.083444776207	0
2	2505	858222.402009661834	1
2	2507	858222.402009661834	0
2	2530	865116.434986761672	1
2	2532	865116.434986761672	0
2	2543	869006.856806514892	1
2	2548	869666.193981830521	0
2	2564	880167.381596484594	1
2	2566	880167.381596484594	0
2	2573	883777.97348103932	1
2	2575	883777.97348103932	0
2	2598	888544.104314804742	1
2	2600	888544.104314804742	0
2	2606	889219.223958302091	1
2	2608	889219.223958302091	0
2	2631	895323.185078212021	1
2	2633	895323.185078212021	0
2	2639	897437.140170286514	1
2	2641	897437.140170286514	0
2	2644	897585.665828155316	1
2	2647	897628.096702694464	2
2	2652	897795.334507719215	1
2	2657	898139.586151625251	0
2	2699	922876.44918955236	1
2	2701	922876.44918955236	0
2	2704	922973.69131420417	1
2	2709	923199.728503764281	0
2	2729	928568.500840706994	1
2	2734	929014.574653809913	0
2	2746	933391.535494252684	1
2	2751	933721.921462926202	0
2	2757	935722.568435842453	1
2	2759	935722.568435842453	0
2	2782	941472.226558695347	1
2	2784	941472.226558695347	0
2	2791	942908.96930293597	1
2	2793	942908.96930293597	0
2	2816	950290.614656203992	1
2	2818	950290.614656203992	0
2	2824	953138.519236292889	1
2	2826	953138.519236292889	0
2	2829	953358.014322920908	1
2	2834	953435.544187990054	0
2	2846	954993.424591360115	1
2	2851	955255.934524744488	0
2	2883	968735.083530992937	1
2	2885	968735.083530992937	0
2	2900	977281.156350867799	1
2	2902	977281.156350867799	0
2	2909	979135.250418565291	1
2	2911	979135.250418565291	0
2	2922	981404.729057602128	1
2	2927	981986.528771712562	0
2	2947	987203.169256135036	1
2	2952	987395.882465603635	0
2	2967	992647.903811365538	1
2	2969	992647.903811365538	0
2	2986	1009590.542127716244	1
2	2988	1009590.542127716244	0
2	2994	1012426.260077090034	1
2	2996	1012426.260077090034	0
2	3008	1014257.094658466954	1
2	3013	1014572.656539119719	0
2	3036	1023764.03762064136	1
2	3038	1023764.03762064136	0
2	3054	1037618.147474219182	1
2	3056	1037618.147474219182	0
2	3068	1041602.177774035651	1
2	3073	1041930.689724162635	0
2	3088	1048029.340245344365	1
2	3090	1048029.340245344365	0
2	3105	1054578.347924148459	1
2	3107	1054578.347924148459	0
3	517	203494.002742250636	0
3	526	206432.526092761704	0
3	551	211597.263379045412	0
3	559	213049.106958642503	0
3	586	228928.913683601416	0
3	594	230334.710922447118	0
3	619	234608.174845792242	0
3	635	237132.529628266764	0
3	643	239321.237424392585	0
3	669	246211.860658248439	0
3	677	247705.686416762678	0
3	694	252190.876726893632	0
3	712	264057.812539571899	0
3	729	270729.405250949331	0
3	746	278378.110493551496	0
3	771	287739.835453754263	0
3	780	288918.89445278453	0
3	801	318124.74216379694	0
3	818	324299.01341660164	0
3	842	329065.313229389997	0
3	851	330073.101713557131	182.14017174695
3	869	342426.462677563673	0
3	886	348544.402067629585	0
3	927	356135.285502899574	625.93295488567
3	935	359121.585317078968	0
3	946	359936.091513910569	771.29969651606
3	952	360890.082529669714	1290.5941198594
3	970	375306.867574993776	0
3	988	384927.327240887113	0
3	1021	390320.999071154993	41.567472828389
3	1029	391199.550720773939	85.78703545704
3	1037	393957.064694595425	0
3	1070	399190.037181006072	0
3	1078	400180.548360977658	885.09982036671
3	1086	401163.181918027807	207.43094068164
3	1104	409136.839611388919	0
3	1131	427711.685213941009	254.91857647696
3	1155	431234.383525437406	0
3	1164	432538.710380272532	0
3	1172	433456.684317901488	808.15638127663
3	1189	438682.864511985934	0
3	1214	448876.756928017987	0
3	1222	449859.735337955566	0
3	1257	466978.729592915424	0
3	1265	467837.142548132234	479.6090774803
3	1274	469239.648202689842	0
3	1316	481412.99773109571	0
3	1324	483609.657433436394	0
3	1332	484795.479338848506	0
3	1340	485796.966891110153	688.39402292659
3	1357	490704.290233583513	0
3	1407	499187.176605283665	0
3	1423	500061.345163008018	154.07991793413
3	1437	500957.63737252606	662.22401731943
3	1442	501772.831910546314	1245.9778277794
3	1447	502585.319858865031	2040.8790524704
3	1455	503444.330376679306	131.06949702057
3	1473	512431.047980522172	0
3	1491	524533.014771082958	0
3	1508	529687.210546915126	0
3	1527	546173.261589707336	0
3	1552	556434.073725575436	0
3	1560	557420.036791781735	533.64624082904
3	1577	561950.470538557942	0
3	1594	567083.112365120847	0
3	1611	574776.19921335257	0
3	1636	579375.098313087229	0
3	1644	581082.509114547615	0
3	1661	584949.084008695687	0
3	1687	597701.289947963579	0
3	1695	599432.204601285024	0
3	1713	611849.500908614802	0
3	1740	624436.213380856134	0
3	1748	626536.660407619835	0
3	1774	639592.721556284712	0
3	1782	641951.441909039904	0
3	1799	647182.726640582025	0
3	1818	662636.969455929091	0
3	1861	679102.326071750536	0
3	1869	681188.584793979229	0
3	1877	682097.632733708951	661.45437073816
3	1901	683618.214899718261	1040.6819330552
3	1910	686813.341830920356	0
3	1918	687651.003504046069	745.55167819785
3	1940	725207.965328586254	0
3	1982	732841.36700949642	0
3	1990	734719.140946140972	0
3	2001	735632.384067597436	301.06697182418
3	2006	736724.359393338924	1168.6545248354
3	2039	743437.582137848757	283.76872332085
3	2056	746328.097897882635	0
3	2064	747205.168333613911	57.883114167823
3	2072	748725.905488398805	0
3	2097	753429.919815864078	0
3	2113	755379.060482710638	0
3	2130	757857.646547115751	0
3	2138	760765.712463775226	0
3	2163	765391.231517865273	0
3	2171	766404.484407372641	0
3	2196	772655.214045149633	0
3	2204	773977.871010810272	0
3	2229	778622.555512547724	0
3	2237	779681.145629990272	0
3	2255	787283.106552532474	0
3	2281	801139.332356576116	0
3	2289	802170.900918514137	0
3	2306	806772.332300688034	0
3	2334	830848.133340271913	0
3	2350	833401.251336081119	0
3	2375	836070.54392054966	0
3	2399	838241.748303793028	4.283425389553
3	2407	839114.505084240438	509.40387794035
3	2416	841595.916679181837	0
3	2424	842459.665458215457	342.69436315242
3	2465	848861.711804325297	0
3	2473	851360.70601567556	0
3	2485	852360.307178913571	577.72293790705
3	2490	853228.996307814456	1011.5134645536
3	2515	858532.535577322984	137.60060759894
3	2523	861846.707067156113	0
3	2540	868721.376486143734	0
3	2557	873708.503494213669	0
3	2583	884169.247669552954	0
3	2591	887514.239965977817	0
3	2616	891698.188489670281	0
3	2624	893392.766154446451	0
3	2665	899923.307777694751	0
3	2674	901363.646139746906	0
3	2682	902257.874901998954	752.95236756238
3	2690	903316.389398600521	1049.8847949597
3	2718	927111.258897631904	0
3	2726	927993.591453661003	210.92035248072
3	2743	932939.497110541355	0
3	2768	937825.299959923927	0
3	2776	939384.589207069176	0
3	2801	945714.476264260395	0
3	2809	947121.323800669603	0
3	2843	954379.739382405016	0
3	2859	956842.902677448157	0
3	2867	957740.380286624455	294.67148067622
3	2875	959477.072559944039	0
3	2894	972562.497695978476	0
3	2919	981035.486925422544	0
3	2935	983618.810959923226	0
3	2944	986347.78975260665	0
3	2961	991112.462257688361	0
3	2978	996360.676758856764	0
3	3004	1013577.281415575794	0
3	3021	1016615.650713064468	0
3	3029	1018836.613625085443	0
3	3047	1027895.44406089656	0
3	3065	1041157.372052764602	0
3	3082	1046020.201576771378	0
3	3099	1051656.188782577721	0
3	3116	1057969.736266665098	0
4	515	203494.002742250636	1
4	517	203494.002742250636	0
4	524	206432.526092761704	1
4	526	206432.526092761704	0
4	549	211597.263379045412	1
4	551	211597.263379045412	0
4	557	213049.106958642503	1
4	559	213049.106958642503	0
4	584	228928.913683601416	1
4	586	228928.913683601416	0
4	592	230334.710922447118	1
4	594	230334.710922447118	0
4	617	234608.174845792242	1
4	619	234608.174845792242	0
4	633	237132.529628266764	1
4	635	237132.529628266764	0
4	641	239321.237424392585	1
4	643	239321.237424392585	0
4	667	246211.860658248439	1
4	669	246211.860658248439	0
4	675	247705.686416762678	1
4	677	247705.686416762678	0
4	692	252190.876726893632	1
4	694	252190.876726893632	0
4	710	264057.812539571899	1
4	712	264057.812539571899	0
4	727	270729.405250949331	1
4	729	270729.405250949331	0
4	744	278378.110493551496	1
4	746	278378.110493551496	0
4	769	287739.835453754263	1
4	771	287739.835453754263	0
4	778	288918.89445278453	1
4	780	288918.89445278453	0
4	799	318124.74216379694	1
4	801	318124.74216379694	0
4	816	324299.01341660164	1
4	818	324299.01341660164	0
4	840	329065.313229389997	1
4	842	329065.313229389997	0
4	845	329890.961541810178	1
4	851	330073.101713557131	0
4	867	342426.462677563673	1
4	869	342426.462677563673	0
4	884	348544.402067629585	1
4	886	348544.402067629585	0
4	912	355509.352548013908	1
4	927	356135.285502899574	0
4	933	359121.585317078968	1
4	935	359121.585317078968	0
4	938	359164.791817394512	1
4	941	359599.488409810277	2
4	946	359936.091513910569	1
4	952	360890.082529669714	0
4	968	375306.867574993776	1
4	970	375306.867574993776	0
4	986	384927.327240887113	1
4	988	384927.327240887113	0
4	1016	390279.431598326604	1
4	1021	390320.999071154993	0
4	1024	391113.763685316899	1
4	1029	391199.550720773939	0
4	1035	393957.064694595425	1
4	1037	393957.064694595425	0
4	1068	399190.037181006072	1
4	1070	399190.037181006072	0
4	1073	399295.44854061095	1
4	1078	400180.548360977658	0
4	1081	400955.750977346166	1
4	1086	401163.181918027807	0
4	1102	409136.839611388919	1
4	1104	409136.839611388919	0
4	1126	427456.766637464047	1
4	1131	427711.685213941009	0
4	1153	431234.383525437406	1
4	1155	431234.383525437406	0
4	1162	432538.710380272532	1
4	1164	432538.710380272532	0
4	1167	432648.527936624861	1
4	1172	433456.684317901488	0
4	1187	438682.864511985934	1
4	1189	438682.864511985934	0
4	1212	448876.756928017987	1
4	1214	448876.756928017987	0
4	1220	449859.735337955566	1
4	1222	449859.735337955566	0
4	1255	466978.729592915424	1
4	1257	466978.729592915424	0
4	1260	467357.533470651935	1
4	1265	467837.142548132234	0
4	1272	469239.648202689842	1
4	1274	469239.648202689842	0
4	1314	481412.99773109571	1
4	1316	481412.99773109571	0
4	1322	483609.657433436394	1
4	1324	483609.657433436394	0
4	1330	484795.479338848506	1
4	1332	484795.479338848506	0
4	1335	485108.572868183566	1
4	1340	485796.966891110153	0
4	1355	490704.290233583513	1
4	1357	490704.290233583513	0
4	1405	499187.176605283665	1
4	1407	499187.176605283665	0
4	1418	499907.265245073888	1
4	1423	500061.345163008018	0
4	1426	500295.413355206631	1
4	1429	500526.854082766886	2
4	1432	500544.440806394675	3
4	1437	500957.63737252606	2
4	1442	501772.831910546314	1
4	1447	502585.319858865031	0
4	1450	503313.260879658737	1
4	1455	503444.330376679306	0
4	1471	512431.047980522172	1
4	1473	512431.047980522172	0
4	1489	524533.014771082958	1
4	1491	524533.014771082958	0
4	1506	529687.210546915126	1
4	1508	529687.210546915126	0
4	1525	546173.261589707336	1
4	1527	546173.261589707336	0
4	1550	556434.073725575436	1
4	1552	556434.073725575436	0
4	1555	556886.390550952699	1
4	1560	557420.036791781735	0
4	1575	561950.470538557942	1
4	1577	561950.470538557942	0
4	1592	567083.112365120847	1
4	1594	567083.112365120847	0
4	1609	574776.19921335257	1
4	1611	574776.19921335257	0
4	1634	579375.098313087229	1
4	1636	579375.098313087229	0
4	1642	581082.509114547615	1
4	1644	581082.509114547615	0
4	1659	584949.084008695687	1
4	1661	584949.084008695687	0
4	1685	597701.289947963579	1
4	1687	597701.289947963579	0
4	1693	599432.204601285024	1
4	1695	599432.204601285024	0
4	1711	611849.500908614802	1
4	1713	611849.500908614802	0
4	1738	624436.213380856134	1
4	1740	624436.213380856134	0
4	1746	626536.660407619835	1
4	1748	626536.660407619835	0
4	1772	639592.721556284712	1
4	1774	639592.721556284712	0
4	1780	641951.441909039904	1
4	1782	641951.441909039904	0
4	1797	647182.726640582025	1
4	1799	647182.726640582025	0
4	1816	662636.969455929091	1
4	1818	662636.969455929091	0
4	1859	679102.326071750536	1
4	1861	679102.326071750536	0
4	1867	681188.584793979229	1
4	1869	681188.584793979229	0
4	1872	681436.178362970796	1
4	1877	682097.632733708951	0
4	1883	682577.53296666305	1
4	1901	683618.214899718261	0
4	1908	686813.341830920356	1
4	1910	686813.341830920356	0
4	1913	686905.451825848224	1
4	1918	687651.003504046069	0
4	1938	725207.965328586254	1
4	1940	725207.965328586254	0
4	1980	732841.36700949642	1
4	1982	732841.36700949642	0
4	1988	734719.140946140972	1
4	1990	734719.140946140972	0
4	1993	735331.317095773252	1
4	1996	735555.70486850356	2
4	2001	735632.384067597436	1
4	2006	736724.359393338924	0
4	2034	743153.813414527906	1
4	2039	743437.582137848757	0
4	2054	746328.097897882635	1
4	2056	746328.097897882635	0
4	2059	747147.285219446088	1
4	2064	747205.168333613911	0
4	2070	748725.905488398805	1
4	2072	748725.905488398805	0
4	2095	753429.919815864078	1
4	2097	753429.919815864078	0
4	2111	755379.060482710638	1
4	2113	755379.060482710638	0
4	2128	757857.646547115751	1
4	2130	757857.646547115751	0
4	2136	760765.712463775226	1
4	2138	760765.712463775226	0
4	2161	765391.231517865273	1
4	2163	765391.231517865273	0
4	2169	766404.484407372641	1
4	2171	766404.484407372641	0
4	2194	772655.214045149633	1
4	2196	772655.214045149633	0
4	2202	773977.871010810272	1
4	2204	773977.871010810272	0
4	2227	778622.555512547724	1
4	2229	778622.555512547724	0
4	2235	779681.145629990272	1
4	2237	779681.145629990272	0
4	2253	787283.106552532474	1
4	2255	787283.106552532474	0
4	2279	801139.332356576116	1
4	2281	801139.332356576116	0
4	2287	802170.900918514137	1
4	2289	802170.900918514137	0
4	2304	806772.332300688034	1
4	2306	806772.332300688034	0
4	2332	830848.133340271913	1
4	2334	830848.133340271913	0
4	2348	833401.251336081119	1
4	2350	833401.251336081119	0
4	2373	836070.54392054966	1
4	2375	836070.54392054966	0
4	2394	838237.464878403475	1
4	2399	838241.748303793028	0
4	2402	838605.101206300089	1
4	2407	839114.505084240438	0
4	2414	841595.916679181837	1
4	2416	841595.916679181837	0
4	2419	842116.971095063042	1
4	2424	842459.665458215457	0
4	2463	848861.711804325297	1
4	2465	848861.711804325297	0
4	2471	851360.70601567556	1
4	2473	851360.70601567556	0
4	2476	851782.584241006525	1
4	2480	852217.482843260814	2
4	2485	852360.307178913571	1
4	2490	853228.996307814456	0
4	2510	858394.934969724048	1
4	2515	858532.535577322984	0
4	2521	861846.707067156113	1
4	2523	861846.707067156113	0
4	2538	868721.376486143734	1
4	2540	868721.376486143734	0
4	2555	873708.503494213669	1
4	2557	873708.503494213669	0
4	2581	884169.247669552954	1
4	2583	884169.247669552954	0
4	2589	887514.239965977817	1
4	2591	887514.239965977817	0
4	2614	891698.188489670281	1
4	2616	891698.188489670281	0
4	2622	893392.766154446451	1
4	2624	893392.766154446451	0
4	2663	899923.307777694751	1
4	2665	899923.307777694751	0
4	2672	901363.646139746906	1
4	2674	901363.646139746906	0
4	2677	901504.922534436575	1
4	2682	902257.874901998954	0
4	2685	902266.504603640839	1
4	2690	903316.389398600521	0
4	2716	927111.258897631904	1
4	2718	927111.258897631904	0
4	2721	927782.671101180287	1
4	2726	927993.591453661003	0
4	2741	932939.497110541355	1
4	2743	932939.497110541355	0
4	2766	937825.299959923927	1
4	2768	937825.299959923927	0
4	2774	939384.589207069176	1
4	2776	939384.589207069176	0
4	2799	945714.476264260395	1
4	2801	945714.476264260395	0
4	2807	947121.323800669603	1
4	2809	947121.323800669603	0
4	2841	954379.739382405016	1
4	2843	954379.739382405016	0
4	2857	956842.902677448157	1
4	2859	956842.902677448157	0
4	2862	957445.708805948231	1
4	2867	957740.380286624455	0
4	2873	959477.072559944039	1
4	2875	959477.072559944039	0
4	2892	972562.497695978476	1
4	2894	972562.497695978476	0
4	2917	981035.486925422544	1
4	2919	981035.486925422544	0
4	2933	983618.810959923226	1
4	2935	983618.810959923226	0
4	2942	986347.78975260665	1
4	2944	986347.78975260665	0
4	2959	991112.462257688361	1
4	2961	991112.462257688361	0
4	2976	996360.676758856764	1
4	2978	996360.676758856764	0
4	3002	1013577.281415575794	1
4	3004	1013577.281415575794	0
4	3019	1016615.650713064468	1
4	3021	1016615.650713064468	0
4	3027	1018836.613625085443	1
4	3029	1018836.613625085443	0
4	3045	1027895.44406089656	1
4	3047	1027895.44406089656	0
4	3063	1041157.372052764602	1
4	3065	1041157.372052764602	0
4	3080	1046020.201576771378	1
4	3082	1046020.201576771378	0
4	3097	1051656.188782577721	1
4	3099	1051656.188782577721	0
4	3114	1057969.736266665098	1
4	3116	1057969.736266665098	0
5	519	204000	2
5	547	210000	2
5	564	216000	0
5	565	222000	0
5	582	228000	2
5	615	234000	2
5	645	240000	1
5	665	246000	2
5	690	252000	1
5	699	258000	0
5	708	264000	1
5	725	270000	1
5	742	276000	1
5	751	282000	0
5	773	288000	2
5	785	294000	0
5	786	300000	0
5	787	306000	0
5	788	312000	0
5	797	318000	1
5	814	324000	1
5	847	330000	2
5	856	336000	0
5	865	342000	1
5	882	348000	1
5	899	354000	1
5	948	360000	3
5	957	366000	0
5	966	372000	1
5	975	378000	0
5	984	384000	1
5	1009	390000	2
5	1058	396000	3
5	1088	402000	1
5	1100	408000	1
5	1109	414000	0
5	1110	420000	0
5	1119	426000	1
5	1157	432000	3
5	1185	438000	1
5	1194	444000	0
5	1224	450000	2
5	1228	456000	0
5	1229	462000	0
5	1267	468000	3
5	1279	474000	0
5	1296	480000	2
5	1345	486000	2
5	1362	492000	1
5	1403	498000	5
5	1457	504000	1
5	1469	510000	1
5	1478	516000	0
5	1487	522000	1
5	1504	528000	1
5	1513	534000	0
5	1514	540000	0
5	1523	546000	1
5	1532	552000	0
5	1562	558000	2
5	1582	564000	1
5	1599	570000	1
5	1624	576000	2
5	1654	582000	1
5	1666	588000	1
5	1667	594000	0
5	1697	600000	2
5	1701	606000	0
5	1715	612000	1
5	1719	618000	0
5	1736	624000	2
5	1753	630000	0
5	1762	636000	1
5	1784	642000	1
5	1801	648000	1
5	1805	654000	0
5	1814	660000	1
5	1823	666000	0
5	1824	672000	0
5	1849	678000	2
5	1903	684000	4
5	1923	690000	0
5	1924	696000	0
5	1925	702000	0
5	1926	708000	0
5	1927	714000	0
5	1928	720000	0
5	1942	726000	1
5	1975	732000	3
5	2011	738000	1
5	2041	744000	3
5	2085	750000	2
5	2115	756000	2
5	2151	762000	2
5	2176	768000	1
5	2206	774000	2
5	2239	780000	2
5	2251	786000	1
5	2260	792000	0
5	2266	798000	0
5	2302	804000	3
5	2311	810000	0
5	2312	816000	0
5	2313	822000	0
5	2322	828000	1
5	2355	834000	2
5	2412	840000	4
5	2437	846000	1
5	2478	852000	3
5	2503	858000	1
5	2528	864000	1
5	2553	870000	2
5	2562	876000	0
5	2571	882000	1
5	2593	888000	1
5	2626	894000	2
5	2667	900000	4
5	2695	906000	0
5	2696	912000	0
5	2697	918000	0
5	2714	924000	2
5	2739	930000	1
5	2764	936000	2
5	2789	942000	1
5	2811	948000	1
5	2839	954000	3
5	2877	960000	1
5	2881	966000	0
5	2890	972000	1
5	2907	978000	1
5	2937	984000	2
5	2957	990000	1
5	2974	996000	1
5	2983	1002000	0
5	2984	1008000	0
5	3006	1014000	2
5	3034	1020000	1
5	3043	1026000	1
5	3052	1032000	0
5	3061	1038000	1
5	3078	1044000	1
5	3095	1050000	1
5	3112	1056000	1
5	3121	1062000	0
6	519	204000	0
6	547	210000	2
6	564	216000	2
6	565	222000	0
6	582	228000	0
6	615	234000	2
6	645	240000	2
6	665	246000	1
6	690	252000	2
6	699	258000	1
6	708	264000	0
6	725	270000	1
6	742	276000	1
6	751	282000	1
6	773	288000	0
6	785	294000	2
6	786	300000	0
6	787	306000	0
6	788	312000	0
6	797	318000	0
6	814	324000	1
6	847	330000	1
6	856	336000	2
6	865	342000	0
6	882	348000	1
6	899	354000	1
6	948	360000	2
6	957	366000	2
6	966	372000	0
6	975	378000	1
6	984	384000	0
6	1009	390000	1
6	1058	396000	3
6	1088	402000	2
6	1100	408000	1
6	1109	414000	1
6	1110	420000	0
6	1119	426000	0
6	1157	432000	1
6	1185	438000	3
6	1194	444000	1
6	1224	450000	1
6	1228	456000	1
6	1229	462000	0
6	1267	468000	1
6	1279	474000	2
6	1296	480000	0
6	1345	486000	3
6	1362	492000	2
6	1403	498000	0
6	1457	504000	5
6	1469	510000	1
6	1478	516000	1
6	1487	522000	0
6	1504	528000	1
6	1513	534000	1
6	1514	540000	0
6	1523	546000	0
6	1532	552000	1
6	1562	558000	1
6	1582	564000	2
6	1599	570000	1
6	1624	576000	1
6	1654	582000	2
6	1666	588000	1
6	1667	594000	0
6	1697	600000	1
6	1701	606000	1
6	1715	612000	0
6	1719	618000	1
6	1736	624000	0
6	1753	630000	2
6	1762	636000	0
6	1784	642000	1
6	1801	648000	1
6	1805	654000	1
6	1814	660000	0
6	1823	666000	1
6	1824	672000	0
6	1849	678000	0
6	1903	684000	3
6	1923	690000	3
6	1924	696000	0
6	1925	702000	0
6	1926	708000	0
6	1927	714000	0
6	1928	720000	0
6	1942	726000	0
6	1975	732000	1
6	2011	738000	4
6	2041	744000	0
6	2085	750000	4
6	2115	756000	1
6	2151	762000	3
6	2176	768000	2
6	2206	774000	1
6	2239	780000	2
6	2251	786000	1
6	2260	792000	1
6	2266	798000	0
6	2302	804000	2
6	2311	810000	1
6	2312	816000	0
6	2313	822000	0
6	2322	828000	0
6	2355	834000	1
6	2412	840000	4
6	2437	846000	2
6	2478	852000	1
6	2503	858000	3
6	2528	864000	2
6	2553	870000	1
6	2562	876000	1
6	2571	882000	0
6	2593	888000	1
6	2626	894000	2
6	2667	900000	1
6	2695	906000	4
6	2696	912000	0
6	2697	918000	0
6	2714	924000	0
6	2739	930000	2
6	2764	936000	1
6	2789	942000	2
6	2811	948000	1
6	2839	954000	1
6	2877	960000	3
6	2881	966000	1
6	2890	972000	0
6	2907	978000	1
6	2937	984000	1
6	2957	990000	2
6	2974	996000	1
6	2983	1002000	1
6	2984	1008000	0
6	3006	1014000	0
6	3034	1020000	3
6	3043	1026000	0
6	3052	1032000	1
6	3061	1038000	0
6	3078	1044000	1
6	3095	1050000	1
6	3112	1056000	1
6	3121	1062000	1
7	512	202634.517598582995	2
7	514	203494.002742250636	1
7	523	206432.526092761704	0
7	537	207698.695331090561	1
7	545	209749.138899629114	2
7	548	211597.263379045412	1
7	556	213049.106958642503	0
7	572	225313.135016226704	1
7	580	226954.264337887239	2
7	583	228928.913683601416	1
7	591	230334.710922447118	0
7	605	231382.717250702619	1
7	613	233857.032379888521	2
7	616	234608.174845792242	1
7	630	236036.170471725443	2
7	632	237132.529628266764	1
7	640	239321.237424392585	0
7	655	242482.676894721105	1
7	663	243852.322160753468	2
7	666	246211.860658248439	1
7	674	247705.686416762678	0
7	688	248775.119654247621	1
7	691	252190.876726893632	0
7	706	259779.29652427977	1
7	709	264057.812539571899	0
7	723	266925.237962339276	1
7	726	270729.405250949331	0
7	740	274539.66476609577	1
7	743	278378.110493551496	0
7	758	283588.886828134995	1
7	766	285085.782100888961	2
7	768	287739.835453754263	1
7	777	288918.89445278453	0
7	795	314466.530721810243	1
7	798	318124.74216379694	0
7	812	321003.621458198879	1
7	815	324299.01341660164	0
7	829	325501.097784351833	1
7	837	326427.975451050063	2
7	839	329065.313229389997	1
7	844	329890.961541810178	0
7	863	339036.258066918239	1
7	866	342426.462677563673	0
7	880	345165.638483680577	1
7	883	348544.402067629585	0
7	897	352147.001945885434	1
7	911	355509.352548013908	0
7	915	355535.057993090761	1
7	920	355853.872898270404	2
7	925	356135.285502899574	3
7	932	359121.585317078968	2
7	937	359164.791817394512	1
7	940	359599.488409810277	0
7	964	371743.44387347137	1
7	967	375306.867574993776	0
7	982	381851.918067041683	1
7	985	384927.327240887113	0
7	999	386243.761779596396	1
7	1007	387525.766397823028	2
7	1015	390279.431598326604	1
7	1019	390320.999071154993	2
7	1023	391113.763685316899	1
7	1034	393957.064694595425	0
7	1051	395027.889722509377	1
7	1056	395304.509077613103	2
7	1065	397569.224421201587	3
7	1067	399190.037181006072	2
7	1072	399295.44854061095	1
7	1080	400955.750977346166	0
7	1098	405527.096609199837	1
7	1101	409136.839611388919	0
7	1117	424189.999598887886	1
7	1125	427456.766637464047	0
7	1129	427711.685213941009	1
7	1142	429035.541740939512	2
7	1150	429395.601704944547	3
7	1152	431234.383525437406	2
7	1161	432538.710380272532	1
7	1166	432648.527936624861	0
7	1183	435288.438740534	1
7	1186	438682.864511985934	0
7	1201	444757.939003619611	1
7	1209	446058.15542156359	2
7	1211	448876.756928017987	1
7	1219	449859.735337955566	0
7	1236	463330.159492371659	1
7	1244	463959.801264739581	2
7	1252	466151.891821669492	3
7	1254	466978.729592915424	2
7	1259	467357.533470651935	1
7	1271	469239.648202689842	0
7	1286	477677.836943996395	1
7	1294	479747.167977829465	2
7	1306	481149.17470863431	3
7	1311	481401.514325308283	4
7	1313	481412.99773109571	3
7	1321	483609.657433436394	2
7	1329	484795.479338848506	1
7	1334	485108.572868183566	0
7	1352	487036.02359064882	1
7	1354	490704.290233583513	0
7	1369	495238.283584040965	1
7	1383	496316.885161990999	2
7	1388	496605.444443040007	3
7	1393	496944.975095488312	4
7	1401	497333.821698715949	5
7	1404	499187.176605283665	4
7	1417	499907.265245073888	3
7	1421	500061.345163008018	4
7	1425	500295.413355206631	3
7	1428	500526.854082766886	2
7	1431	500544.440806394675	1
7	1449	503313.260879658737	0
7	1467	508957.282732655064	1
7	1470	512431.047980522172	0
7	1485	521460.083169589315	1
7	1488	524533.014771082958	0
7	1502	525654.740499393868	1
7	1505	529687.210546915126	0
7	1521	542671.171014601865	1
7	1524	546173.261589707336	0
7	1542	552974.853202698282	1
7	1547	553313.623540193165	2
7	1549	556434.073725575436	1
7	1554	556886.390550952699	0
7	1572	558721.243301041249	1
7	1574	561950.470538557942	0
7	1589	564376.200955084122	1
7	1591	567083.112365120847	0
7	1606	570619.049307479844	1
7	1608	574776.19921335257	0
7	1622	575937.961461225872	1
7	1631	576982.803148699195	2
7	1633	579375.098313087229	1
7	1641	581082.509114547615	0
7	1656	582269.170071645721	1
7	1658	584949.084008695687	0
7	1674	594552.729622287821	1
7	1682	595937.724084208373	2
7	1684	597701.289947963579	1
7	1692	599432.204601285024	0
7	1708	607880.963582659117	1
7	1710	611849.500908614802	0
7	1726	620649.071947352867	1
7	1734	622804.163620503348	2
7	1737	624436.213380856134	1
7	1745	626536.660407619835	0
7	1760	635408.69527665253	1
7	1769	637564.514568633429	2
7	1771	639592.721556284712	1
7	1779	641951.441909039904	0
7	1794	644064.101596828417	1
7	1796	647182.726640582025	0
7	1812	659190.497369077342	1
7	1815	662636.969455929091	0
7	1831	675818.690039593326	1
7	1842	677665.67753082896	2
7	1851	678016.980480866719	3
7	1856	678369.519039124201	4
7	1858	679102.326071750536	3
7	1866	681188.584793979229	2
7	1871	681436.178362970796	1
7	1882	682577.53296666305	0
7	1894	683289.334549479406	1
7	1899	683618.214899718261	2
7	1907	686813.341830920356	1
7	1912	686905.451825848224	0
7	1935	721827.454434096996	1
7	1937	725207.965328586254	0
7	1952	729351.779320214267	1
7	1963	731326.426604644333	2
7	1968	731601.099439300166	3
7	1977	732213.491554249005	4
7	1979	732841.36700949642	3
7	1987	734719.140946140972	2
7	1992	735331.317095773252	1
7	1995	735555.70486850356	0
7	2018	739217.347167114312	1
7	2026	742217.591760219927	2
7	2033	743153.813414527906	1
7	2037	743437.582137848757	2
7	2051	745315.431135344718	3
7	2053	746328.097897882635	2
7	2058	747147.285219446088	1
7	2069	748725.905488398805	0
7	2083	749817.175078359019	1
7	2092	752289.448872478234	2
7	2094	753429.919815864078	1
7	2108	754589.214269456718	2
7	2110	755379.060482710638	1
7	2125	757160.845486533408	2
7	2127	757857.646547115751	1
7	2135	760765.712463775226	0
7	2149	761906.582637849251	1
7	2158	762836.436631090172	2
7	2160	765391.231517865273	1
7	2168	766404.484407372641	0
7	2183	769352.800381216765	1
7	2191	770294.149502716839	2
7	2193	772655.214045149633	1
7	2201	773977.871010810272	0
7	2216	775480.315974246097	1
7	2224	776072.342362910414	2
7	2226	778622.555512547724	1
7	2234	779681.145629990272	0
7	2249	783660.456306966831	1
7	2252	787283.106552532474	0
7	2271	798101.816274923266	1
7	2276	798390.968855179556	2
7	2278	801139.332356576116	1
7	2286	802170.900918514137	0
7	2300	803717.281206312953	1
7	2303	806772.332300688034	0
7	2320	827383.31150198053	1
7	2329	829406.093777085604	2
7	2331	830848.133340271913	1
7	2345	832022.886265562637	2
7	2347	833401.251336081119	1
7	2365	834731.46854758782	2
7	2370	835019.6456532211	3
7	2372	836070.54392054966	2
7	2386	837219.802906510378	3
7	2393	838237.464878403475	2
7	2397	838241.748303793028	3
7	2401	838605.101206300089	2
7	2413	841595.916679181837	1
7	2418	842116.971095063042	0
7	2435	845211.033976600794	1
7	2444	847776.813268459138	2
7	2452	848281.069475340397	3
7	2460	848789.013698366392	4
7	2462	848861.711804325297	3
7	2470	851360.70601567556	2
7	2475	851782.584241006525	1
7	2479	852217.482843260814	0
7	2501	854436.979369973054	1
7	2509	858394.934969724048	0
7	2513	858532.535577322984	1
7	2520	861846.707067156113	0
7	2535	865389.575161897732	1
7	2537	868721.376486143734	0
7	2551	869950.298757600104	1
7	2554	873708.503494213669	0
7	2569	880516.299273990264	1
7	2578	884074.163834408049	2
7	2580	884169.247669552954	1
7	2588	887514.239965977817	0
7	2603	888857.429145732717	1
7	2611	889568.93011957901	2
7	2613	891698.188489670281	1
7	2621	893392.766154446451	0
7	2636	895619.445488833935	1
7	2650	897795.334507719215	2
7	2655	898139.586151625251	3
7	2660	898447.212795336874	4
7	2662	899923.307777694751	3
7	2671	901363.646139746906	2
7	2676	901504.922534436575	1
7	2684	902266.504603640839	0
7	2707	923199.728503764281	1
7	2712	923477.786219025711	2
7	2715	927111.258897631904	1
7	2720	927782.671101180287	0
7	2737	929325.920096842427	1
7	2740	932939.497110541355	0
7	2754	934046.273526795708	1
7	2762	935985.129789976111	2
7	2765	937825.299959923927	1
7	2773	939384.589207069176	0
7	2787	941822.910365235323	1
7	2796	943207.211746016612	2
7	2798	945714.476264260395	1
7	2806	947121.323800669603	0
7	2821	950594.765439922682	1
7	2832	953435.544187990054	2
7	2837	953736.160633832452	3
7	2840	954379.739382405016	2
7	2854	955572.742106398464	3
7	2856	956842.902677448157	2
7	2861	957445.708805948231	1
7	2872	959477.072559944039	0
7	2888	969011.923977543539	1
7	2891	972562.497695978476	0
7	2905	977543.578164317335	1
7	2914	979465.968886140201	2
7	2916	981035.486925422544	1
7	2930	982287.623577385075	2
7	2932	983618.810959923226	1
7	2941	986347.78975260665	0
7	2955	987592.488398232234	1
7	2958	991112.462257688361	0
7	2972	992927.89682153637	1
7	2975	996360.676758856764	0
7	2991	1009864.970960149867	1
7	2999	1012739.555383863071	2
7	3001	1013577.281415575794	1
7	3016	1014876.752646899849	2
7	3018	1016615.650713064468	1
7	3026	1018836.613625085443	0
7	3041	1024057.603019403869	1
7	3044	1027895.44406089656	0
7	3059	1037905.087329695735	1
7	3062	1041157.372052764602	0
7	3076	1042266.307756233164	1
7	3079	1046020.201576771378	0
7	3093	1048354.402610280863	1
7	3096	1051656.188782577721	0
7	3110	1054900.081337575496	1
7	3113	1057969.736266665098	0
