version 2
run ResponseMeasurement-144-20170110-19:43:19-22264
attr configname ResponseMeasurement
attr datetime 20170110-19:43:19
attr experiment ResponseMeasurement
attr inifile responseStudy.ini
attr iterationvars ""
attr iterationvars2 $repetition=144
attr measurement ""
attr network controltower.SimNetwork
attr processid 22264
attr repetition 144
attr replication #144
attr resultdir results
attr runnumber 144
attr seedset 144
param SimNetwork.a.parkingLot.parkingDelay "truncnormal(60min, 6min)"
param SimNetwork.a.runway.landingTime "truncnormal(5min, 0.5min)"
param SimNetwork.a.runway.takeoffTime "truncnormal(15min, 1.5min)"
param SimNetwork.a.runway.throughputCheckInterval 100min
param SimNetwork.wg.interArrivalTime exponential(100min)

vector 5  SimNetwork.a.runway  landedThroughput:vector  ETV
attr source  landedThroughputSignal
vector 6  SimNetwork.a.runway  tookoffThroughput:vector  ETV
attr source  tookoffThroughputSignal
vector 2  SimNetwork.a.landingQueue  queueLength:vector  ETV
attr source  queueLengthSignal
vector 1  SimNetwork.a.landingQueue  queueTime:vector  ETV
attr source  queueTimeSignal
vector 7  SimNetwork.a.parkingLot  parkingOccupancy:vector  ETV
attr source  parkingOccupancy
vector 4  SimNetwork.a.takeoffQueue  queueLength:vector  ETV
attr source  queueLengthSignal
vector 3  SimNetwork.a.takeoffQueue  queueTime:vector  ETV
attr source  queueTimeSignal
vector 0  SimNetwork.wg  responseTime:vector  ETV
attr source  responseTimeSignal
0	773	228993.689284491724	36301.190551339
0	791	243003.646860242033	19150.457101715
0	816	250369.806121563869	11639.963220825
0	825	253498.980681918655	8536.9037908395
0	842	259207.695602548098	10268.5230143
0	875	264835.266588528695	10082.292893791
0	886	266506.764692896423	5299.0581095358
0	891	267326.465277269485	5841.5080021127
0	938	273296.562832575943	4670.7450211583
0	946	274343.868441121059	11773.331190932
0	951	275298.369461966386	6413.438955639
0	957	276201.164956811141	7208.0538576313
0	982	282943.21144826454	13651.96795951
0	998	285422.522865911231	7571.2409822335
0	1007	288898.324514543898	8497.5140846782
0	1043	295683.650932733526	12185.017804585
0	1048	296514.612335883194	5843.7578862556
0	1064	299686.381771422596	8306.946136562
0	1073	300986.199017661462	6697.2246501488
0	1101	324338.208294077754	27781.674082273
0	1117	327912.945206679541	8795.6776250245
0	1125	329799.343595427101	6890.4001814637
0	1146	356387.898273085326	31837.992734497
0	1190	365991.201038242039	13801.867180727
0	1210	367983.623933329127	5031.79197445
0	1226	369314.942376962946	8150.8347092587
0	1239	370519.812164791922	7093.4661240687
0	1247	371557.904597132913	7889.6737749086
0	1253	372452.580506042166	7287.3101966671
0	1261	374654.626854648042	7405.1168302285
0	1289	382303.141609993997	13826.041280538
0	1306	385730.065608927968	8196.6002339459
0	1319	387744.672946887473	7057.1568002998
0	1331	390730.117442422433	8993.8024059262
0	1363	395947.903191417552	10570.389992983
0	1372	396847.312313077555	6117.7946899263
0	1377	397699.966558453692	6085.183451215
0	1408	420639.348814857348	27409.004407245
0	1413	421561.229407164387	6220.8409889409
0	1438	427539.278982778303	11407.701543432
0	1454	430695.6001517675	7744.713468014
0	1463	432113.925545593984	6563.9335596338
0	1510	442302.308262761253	14194.480134455
0	1523	443426.831071961456	6188.2004299741
0	1532	444268.354930243051	5932.1681699627
0	1545	445610.83567701019	6777.568357341
0	1553	446681.299643658202	5657.4344065426
0	1561	448254.747835621851	6662.5929329292
0	1585	457617.682456636625	13570.070101243
0	1603	461561.735309566788	8202.6605367355
0	1623	463484.663203513668	6114.6771491679
0	1636	465975.764847358068	8572.3062564296
0	1645	468421.494037814287	6734.5040687715
0	1662	475431.55852103554	12526.689094793
0	1687	482454.357107513764	12244.996284073
0	1698	483791.635756361786	6069.8540792625
0	1720	488656.537191437186	10066.559335559
0	1728	489740.188218430131	6099.7149282904
0	1767	497293.530908187808	12485.529018808
0	1778	498603.082989824392	5987.7613186865
0	1786	500545.671105447392	7114.3088853776
0	1802	502060.04203439494	7112.2388958481
0	1819	505744.730105840072	8533.8339807153
0	1830	508306.113022142308	7698.0922000404
0	1852	513319.253431811123	10482.206727599
0	1869	516382.606088767932	8642.7788442846
0	1885	519448.407774762825	7890.5831203445
0	1897	522845.364269032768	7911.9585530266
0	1919	528084.258280035623	9996.1987813109
0	1935	531017.119239764779	8835.2876561282
0	1952	535104.970012844945	9377.2865413954
0	1960	536141.490533682193	6322.2824779222
0	1977	544867.109650164681	12863.147898601
0	1998	555406.615665915282	15705.689907038
0	2012	560213.226304693959	9081.5112057757
0	2029	566840.707875493942	11505.735531332
0	2062	573812.197230515406	12197.118519333
0	2070	574814.086600379719	5627.3208885269
0	2078	575847.360536883073	5738.2793851619
0	2131	582182.199238863249	11188.687219392
0	2139	583232.935309200133	6708.7336623724
0	2161	584322.36352607975	7719.7654349194
0	2171	585678.169491378	5960.3089130264
0	2179	586494.766208860462	7361.0316414708
0	2196	588344.485156981742	8492.0787219017
0	2201	589120.346384329165	6019.4147645646
0	2225	591375.579890856701	7414.3626991467
0	2245	594534.908919636259	8127.4665461282
0	2250	595469.223015976248	6088.0150299471
0	2258	597380.132742025496	7977.5177738195
0	2275	603877.602039657514	11573.144592434
0	2292	611710.447548468784	12187.724151893
0	2310	620197.371532248549	13792.738696995
0	2335	627446.972290964817	12236.011106694
0	2343	629357.00753996536	6505.2670425694
0	2361	638081.512125437219	13377.974684387
0	2378	644151.225840005808	10922.36154906
0	2407	659284.743071464599	19944.696087267
0	2413	660391.426125782725	5663.3488238671
0	2430	670874.020742105937	15986.054071735
0	2448	682401.237434341688	16054.331993884
0	2474	690032.864037355319	12162.88682461
0	2485	693575.447429319834	8468.6486589304
0	2499	698388.609748679831	9778.7043010745
0	2527	705806.763023591467	12231.473848617
0	2532	706721.233291479476	5921.6305005715
0	2574	718529.491013059592	16870.884503964
0	2600	720692.130743072771	7325.0927434668
0	2610	721705.742926200993	5505.9544392816
0	2615	722537.864797144541	6018.8978632887
0	2623	724016.557611993533	6781.8733730395
0	2631	724966.143627699309	5485.7207885579
0	2650	739072.691224629336	19176.91736868
0	2671	755530.83096595516	20968.084308595
0	2685	760886.490841917882	10663.370781854
0	2722	769751.590550694959	4843.7130988218
0	2727	770684.682799791587	15920.229709052
0	2735	772062.221778595985	7125.643673252
0	2753	782449.273911671302	14967.237227027
0	2770	787102.976232671251	9189.0224264144
0	2804	793256.171352984144	5111.6173305272
0	2822	794607.809491247657	11525.912531122
0	2838	797867.466649628688	9662.7592633467
0	2850	798754.295993189408	5781.1497234872
0	2860	799968.460787840028	6863.3357373634
0	2868	803632.817094033126	9068.7856431831
0	2898	821422.671246991147	22850.677157244
0	2907	822379.698537224258	6355.2281788983
0	2920	827071.482995645992	10333.902621583
0	2937	832412.011478046826	10234.604402633
0	2954	839915.031281291544	12784.745937613
0	2972	847498.529554108789	12698.675690632
0	2989	853159.28169710734	10216.528583494
0	3005	857782.407501536688	9326.3273112018
0	3032	871205.646835039855	18040.082818879
0	3040	873992.924341118282	7316.2986979575
0	3068	881569.207444023725	11795.924550984
0	3074	882399.916631670461	6160.0987174672
0	3102	889392.867462503538	12107.525244537
0	3107	890322.834619431719	5570.4166388571
0	3132	897561.378858435205	11816.041842932
0	3141	900091.872668824151	7313.4735519543
0	3161	911074.595527365503	15876.491935156
0	3178	915782.097995205529	8840.2713279302
0	3195	920946.720665100643	9923.0096740164
0	3212	926096.049209285184	10323.188681816
0	3245	931238.611527814829	10896.367979833
0	3258	933265.880082012268	7304.4265854235
0	3266	934487.066147110354	5763.3596329727
0	3274	935873.31942504468	5990.0415204654
0	3292	946080.871022423616	15453.600846912
0	3309	952788.940918704212	11380.670609458
0	3327	964742.774652507862	16516.518889679
0	3361	975891.498130221428	15606.653454397
0	3378	978345.739751305617	6956.6350667396
0	3386	979623.952550803403	6752.8989240198
0	3405	981799.358129071899	7066.0650909697
0	3435	984562.374343124632	7690.8801725455
0	3443	986365.771646704002	5306.3694327382
0	3454	987513.421657593681	5675.466026765
0	3459	988433.795606816207	8371.9458071281
0	3476	993659.913073844182	11541.963398048
0	3493	998834.99449530233	10244.323274894
0	3511	1008244.42298277665	13852.21361218
0	3529	1023139.907290479983	19785.695218411
0	3566	1033252.96745065624	14511.68729286
0	3574	1034315.680900613415	5311.9950377937
0	3579	1035192.181708690098	4911.7475315877
0	3605	1048332.512857736762	17713.911471961
0	3614	1050239.608609560056	6653.4803826399
0	3634	1061356.73844456042	15939.427965221
1	761	223853.18975852725	0
1	779	238729.842900739274	0
1	796	244962.076891079116	0
1	805	248939.172588247855	0
1	830	254752.973694737805	0
1	847	261207.706583360605	0
1	855	261509.352248221031	24.39497306426
1	863	262570.537250189116	0
1	896	268625.817811417618	0
1	904	268943.086942160145	58.156435832797
1	915	269294.027122280116	300.91602310024
1	920	269580.683385619112	289.43989686464
1	962	277851.281883677734	0
1	970	280400.8104298657	0
1	987	283498.633128148228	0
1	1012	290670.854449627558	0
1	1020	291379.43563486057	0
1	1029	294288.974367512702	0
1	1053	296556.534211804942	0
1	1081	319117.267581654994	0
1	1089	322908.943413963432	0
1	1106	324549.905538588322	0
1	1134	352189.33385751457	0
1	1152	361164.107667704264	0
1	1160	362951.831958879129	0
1	1168	363426.346040723212	0
1	1176	363737.488617619402	69.257795395095
1	1192	365991.201038242039	825.93072886697
1	1212	367983.623933329127	734.11390890962
1	1228	369314.942376962946	837.84204750728
1	1266	377533.465374982034	0
1	1275	380687.516146587672	0
1	1291	382303.141609993997	566.82657349778
1	1308	385730.065608927968	352.55241049292
1	1333	390730.117442422433	0.599819271213
1	1341	391614.783107238686	0
1	1349	393230.344407612272	0
1	1385	415340.388418223508	0
1	1393	416131.577439346022	0
1	1418	422950.886683753478	0
1	1426	425549.991985960138	0
1	1443	428107.828128305756	0
1	1468	437238.630641987388	0
1	1477	438336.18676028038	0
1	1485	438833.267319669235	0
1	1493	441023.865237115573	0
1	1512	442302.308262761253	710.1533600686
1	1534	444268.354930243051	220.74257484901
1	1567	453359.074772831295	0
1	1587	457617.682456636625	247.69640229084
1	1592	457933.921633041855	530.46304211337
1	1608	461686.989969042813	0
1	1625	463484.663203513668	579.79377727088
1	1650	470209.360823440765	0
1	1667	477721.781677099267	0
1	1675	478589.977855877846	0
1	1700	483791.635756361786	151.16246622205
1	1708	484808.001889380044	0
1	1734	492615.32167113786	0
1	1742	493431.362220069789	0
1	1750	494947.803138546792	0
1	1769	497293.530908187808	82.634783063062
1	1791	500608.020822101887	0
1	1807	502837.046704212088	0
1	1832	508306.113022142308	566.28577765899
1	1841	511557.824654418356	0
1	1857	514933.405716006205	0
1	1874	518088.0594987247	0
1	1899	522845.364269032768	663.5326853962
1	1907	525727.683471449592	0
1	1924	529819.208055759946	0
1	1940	532003.961751563392	0
1	1965	539700.925758877156	0
1	1983	551131.715098918254	0
1	2000	555406.615665915282	71.643321753128
1	2017	561615.07871118231	0
1	2034	569186.765711852858	0
1	2043	570109.08115172122	0
1	2051	570993.51201947155	0
1	2084	576524.201646827734	0
1	2092	576814.888732096419	212.2906409361
1	2100	579133.734567389691	0
1	2108	579717.860578351586	0
1	2116	580020.289453042471	167.88301796246
1	2141	583232.935309200133	132.00368943557
1	2163	584322.36352607975	361.14633436971
1	2181	586494.766208860462	87.323835352378
1	2206	589381.207986029107	0
1	2214	589760.553827289142	357.9388590831
1	2230	592304.457447223618	0
1	2263	599522.72339657581	0
1	2281	606404.632835253714	0
1	2298	615210.961184270606	0
1	2315	622851.740497395918	0
1	2324	624703.537441049983	0
1	2349	633228.864290946191	0
1	2366	639340.046984197289	0
1	2385	654728.077301915673	0
1	2393	655001.956902575851	113.9902322048
1	2419	666346.905440457683	0
1	2436	677869.977212745651	0
1	2454	685106.798770389463	0
1	2462	688609.905447605358	0
1	2487	693575.447429319834	0.158254345294
1	2504	700799.602790908012	0
1	2512	701658.606509095583	0
1	2538	713367.037999605961	0
1	2547	716199.788486919438	0
1	2555	716518.966933855881	0
1	2563	717234.684238954005	0
1	2579	719480.422839141446	0
1	2602	720692.130743072771	796.35688712345
1	2638	734562.746657360042	0
1	2657	750223.120060064228	0
1	2673	755530.83096595516	766.3778752152
1	2691	764907.877451873188	0
1	2699	765207.620138023348	271.04203267941
1	2707	767482.036684644317	0
1	2741	777913.953806256805	0
1	2758	783081.896960125241	0
1	2775	788144.554022456929	0
1	2783	788490.938822827326	286.23143654535
1	2806	793256.171352984144	283.02508328197
1	2811	793576.562442499557	471.43739202295
1	2824	794607.809491247657	43.778040397622
1	2852	798754.295993189408	182.30190344247
1	2876	816024.470358325993	0
1	2884	816737.58037406267	0
1	2909	822379.698537224258	202.2914618105
1	2925	827130.285343679016	0
1	2943	834799.85386347699	0
1	2960	842942.75311361332	0
1	2977	848456.08019033484	0
1	2994	853165.564016160552	0
1	3012	866676.625643160754	0
1	3020	869773.282893039612	0
1	3046	876239.81791420326	0
1	3054	877285.342217966601	0
1	3079	884752.417980574605	0
1	3087	885745.337015503437	0
1	3112	892778.399116869877	0
1	3121	895198.103592209488	0
1	3147	906941.826667275298	0
1	3163	911074.595527365503	50.8845362813
1	3180	915782.097995205529	9.23746773621
1	3197	920946.720665100643	604.47711711896
1	3214	926096.049209285184	134.59571269638
1	3222	928723.706514137664	0
1	3230	929883.277904579239	0
1	3247	931238.611527814829	611.34135230307
1	3280	941408.270309246155	0
1	3298	948226.255762828945	0
1	3316	960284.844675824363	0
1	3333	971389.104684566031	0
1	3342	972871.053626783556	0
1	3350	974733.293038102169	0
1	3366	976871.494170579108	0
1	3391	980061.84979968812	0
1	3407	981799.358129071899	739.95591510614
1	3415	982052.216225165925	214.26059433729
1	3423	982351.570168240804	233.62049244438
1	3464	988590.671220408138	0
1	3481	994392.209370596328	0
1	3499	1003354.212072068834	0
1	3517	1018741.280157796168	0
1	3535	1029003.685862819722	0
1	3543	1030280.434177102445	0
1	3551	1030618.601385775476	0
1	3585	1043586.128226920188	0
1	3594	1045417.310479338984	0
1	3620	1056623.85748913228	0
1	3636	1061356.73844456042	93.50057557795
2	759	223853.18975852725	1
2	761	223853.18975852725	0
2	777	238729.842900739274	1
2	779	238729.842900739274	0
2	794	244962.076891079116	1
2	796	244962.076891079116	0
2	803	248939.172588247855	1
2	805	248939.172588247855	0
2	828	254752.973694737805	1
2	830	254752.973694737805	0
2	845	261207.706583360605	1
2	847	261207.706583360605	0
2	850	261484.957275156771	1
2	855	261509.352248221031	0
2	861	262570.537250189116	1
2	863	262570.537250189116	0
2	894	268625.817811417618	1
2	896	268625.817811417618	0
2	899	268884.930506327348	1
2	904	268943.086942160145	0
2	907	268993.111099179874	1
2	910	269291.243488754472	2
2	915	269294.027122280116	1
2	920	269580.683385619112	0
2	960	277851.281883677734	1
2	962	277851.281883677734	0
2	968	280400.8104298657	1
2	970	280400.8104298657	0
2	985	283498.633128148228	1
2	987	283498.633128148228	0
2	1010	290670.854449627558	1
2	1012	290670.854449627558	0
2	1018	291379.43563486057	1
2	1020	291379.43563486057	0
2	1027	294288.974367512702	1
2	1029	294288.974367512702	0
2	1051	296556.534211804942	1
2	1053	296556.534211804942	0
2	1079	319117.267581654994	1
2	1081	319117.267581654994	0
2	1087	322908.943413963432	1
2	1089	322908.943413963432	0
2	1104	324549.905538588322	1
2	1106	324549.905538588322	0
2	1132	352189.33385751457	1
2	1134	352189.33385751457	0
2	1150	361164.107667704264	1
2	1152	361164.107667704264	0
2	1158	362951.831958879129	1
2	1160	362951.831958879129	0
2	1166	363426.346040723212	1
2	1168	363426.346040723212	0
2	1171	363668.230822224307	1
2	1176	363737.488617619402	0
2	1187	365165.270309375073	1
2	1192	365991.201038242039	0
2	1207	367249.510024419505	1
2	1212	367983.623933329127	0
2	1223	368477.100329455662	1
2	1228	369314.942376962946	0
2	1264	377533.465374982034	1
2	1266	377533.465374982034	0
2	1273	380687.516146587672	1
2	1275	380687.516146587672	0
2	1286	381736.31503649622	1
2	1291	382303.141609993997	0
2	1303	385377.513198435052	1
2	1308	385730.065608927968	0
2	1328	390729.51762315122	1
2	1333	390730.117442422433	0
2	1339	391614.783107238686	1
2	1341	391614.783107238686	0
2	1347	393230.344407612272	1
2	1349	393230.344407612272	0
2	1383	415340.388418223508	1
2	1385	415340.388418223508	0
2	1391	416131.577439346022	1
2	1393	416131.577439346022	0
2	1416	422950.886683753478	1
2	1418	422950.886683753478	0
2	1424	425549.991985960138	1
2	1426	425549.991985960138	0
2	1441	428107.828128305756	1
2	1443	428107.828128305756	0
2	1466	437238.630641987388	1
2	1468	437238.630641987388	0
2	1475	438336.18676028038	1
2	1477	438336.18676028038	0
2	1483	438833.267319669235	1
2	1485	438833.267319669235	0
2	1491	441023.865237115573	1
2	1493	441023.865237115573	0
2	1504	441592.15490269265	1
2	1512	442302.308262761253	0
2	1529	444047.612355394045	1
2	1534	444268.354930243051	0
2	1565	453359.074772831295	1
2	1567	453359.074772831295	0
2	1579	457369.986054345786	1
2	1582	457403.458590928484	2
2	1587	457617.682456636625	1
2	1592	457933.921633041855	0
2	1606	461686.989969042813	1
2	1608	461686.989969042813	0
2	1620	462904.869426242791	1
2	1625	463484.663203513668	0
2	1648	470209.360823440765	1
2	1650	470209.360823440765	0
2	1665	477721.781677099267	1
2	1667	477721.781677099267	0
2	1673	478589.977855877846	1
2	1675	478589.977855877846	0
2	1695	483640.47329013974	1
2	1700	483791.635756361786	0
2	1706	484808.001889380044	1
2	1708	484808.001889380044	0
2	1732	492615.32167113786	1
2	1734	492615.32167113786	0
2	1740	493431.362220069789	1
2	1742	493431.362220069789	0
2	1748	494947.803138546792	1
2	1750	494947.803138546792	0
2	1764	497210.896125124746	1
2	1769	497293.530908187808	0
2	1789	500608.020822101887	1
2	1791	500608.020822101887	0
2	1805	502837.046704212088	1
2	1807	502837.046704212088	0
2	1827	507739.827244483318	1
2	1832	508306.113022142308	0
2	1839	511557.824654418356	1
2	1841	511557.824654418356	0
2	1855	514933.405716006205	1
2	1857	514933.405716006205	0
2	1872	518088.0594987247	1
2	1874	518088.0594987247	0
2	1894	522181.831583636568	1
2	1899	522845.364269032768	0
2	1905	525727.683471449592	1
2	1907	525727.683471449592	0
2	1922	529819.208055759946	1
2	1924	529819.208055759946	0
2	1938	532003.961751563392	1
2	1940	532003.961751563392	0
2	1963	539700.925758877156	1
2	1965	539700.925758877156	0
2	1981	551131.715098918254	1
2	1983	551131.715098918254	0
2	1995	555334.972344162154	1
2	2000	555406.615665915282	0
2	2015	561615.07871118231	1
2	2017	561615.07871118231	0
2	2032	569186.765711852858	1
2	2034	569186.765711852858	0
2	2041	570109.08115172122	1
2	2043	570109.08115172122	0
2	2049	570993.51201947155	1
2	2051	570993.51201947155	0
2	2082	576524.201646827734	1
2	2084	576524.201646827734	0
2	2087	576602.598091160321	1
2	2092	576814.888732096419	0
2	2098	579133.734567389691	1
2	2100	579133.734567389691	0
2	2106	579717.860578351586	1
2	2108	579717.860578351586	0
2	2111	579852.406435080014	1
2	2116	580020.289453042471	0
2	2136	583100.931619764567	1
2	2141	583232.935309200133	0
2	2158	583961.21719171004	1
2	2163	584322.36352607975	0
2	2176	586407.442373508084	1
2	2181	586494.766208860462	0
2	2204	589381.207986029107	1
2	2206	589381.207986029107	0
2	2209	589402.614968206038	1
2	2214	589760.553827289142	0
2	2228	592304.457447223618	1
2	2230	592304.457447223618	0
2	2261	599522.72339657581	1
2	2263	599522.72339657581	0
2	2279	606404.632835253714	1
2	2281	606404.632835253714	0
2	2296	615210.961184270606	1
2	2298	615210.961184270606	0
2	2313	622851.740497395918	1
2	2315	622851.740497395918	0
2	2322	624703.537441049983	1
2	2324	624703.537441049983	0
2	2347	633228.864290946191	1
2	2349	633228.864290946191	0
2	2364	639340.046984197289	1
2	2366	639340.046984197289	0
2	2383	654728.077301915673	1
2	2385	654728.077301915673	0
2	2388	654887.966670371053	1
2	2393	655001.956902575851	0
2	2417	666346.905440457683	1
2	2419	666346.905440457683	0
2	2434	677869.977212745651	1
2	2436	677869.977212745651	0
2	2452	685106.798770389463	1
2	2454	685106.798770389463	0
2	2460	688609.905447605358	1
2	2462	688609.905447605358	0
2	2482	693575.28917497454	1
2	2487	693575.447429319834	0
2	2502	700799.602790908012	1
2	2504	700799.602790908012	0
2	2510	701658.606509095583	1
2	2512	701658.606509095583	0
2	2536	713367.037999605961	1
2	2538	713367.037999605961	0
2	2545	716199.788486919438	1
2	2547	716199.788486919438	0
2	2553	716518.966933855881	1
2	2555	716518.966933855881	0
2	2561	717234.684238954005	1
2	2563	717234.684238954005	0
2	2577	719480.422839141446	1
2	2579	719480.422839141446	0
2	2590	719895.773855949318	1
2	2602	720692.130743072771	0
2	2636	734562.746657360042	1
2	2638	734562.746657360042	0
2	2655	750223.120060064228	1
2	2657	750223.120060064228	0
2	2668	754764.453090739962	1
2	2673	755530.83096595516	0
2	2689	764907.877451873188	1
2	2691	764907.877451873188	0
2	2694	764936.578105343938	1
2	2699	765207.620138023348	0
2	2705	767482.036684644317	1
2	2707	767482.036684644317	0
2	2739	777913.953806256805	1
2	2741	777913.953806256805	0
2	2756	783081.896960125241	1
2	2758	783081.896960125241	0
2	2773	788144.554022456929	1
2	2775	788144.554022456929	0
2	2778	788204.707386281974	1
2	2783	788490.938822827326	0
2	2798	792973.146269702178	1
2	2801	793105.125050476606	2
2	2806	793256.171352984144	1
2	2811	793576.562442499557	0
2	2819	794564.031450850035	1
2	2824	794607.809491247657	0
2	2847	798571.994089746941	1
2	2852	798754.295993189408	0
2	2874	816024.470358325993	1
2	2876	816024.470358325993	0
2	2882	816737.58037406267	1
2	2884	816737.58037406267	0
2	2904	822177.407075413754	1
2	2909	822379.698537224258	0
2	2923	827130.285343679016	1
2	2925	827130.285343679016	0
2	2941	834799.85386347699	1
2	2943	834799.85386347699	0
2	2958	842942.75311361332	1
2	2960	842942.75311361332	0
2	2975	848456.08019033484	1
2	2977	848456.08019033484	0
2	2992	853165.564016160552	1
2	2994	853165.564016160552	0
2	3010	866676.625643160754	1
2	3012	866676.625643160754	0
2	3018	869773.282893039612	1
2	3020	869773.282893039612	0
2	3044	876239.81791420326	1
2	3046	876239.81791420326	0
2	3052	877285.342217966601	1
2	3054	877285.342217966601	0
2	3077	884752.417980574605	1
2	3079	884752.417980574605	0
2	3085	885745.337015503437	1
2	3087	885745.337015503437	0
2	3110	892778.399116869877	1
2	3112	892778.399116869877	0
2	3119	895198.103592209488	1
2	3121	895198.103592209488	0
2	3145	906941.826667275298	1
2	3147	906941.826667275298	0
2	3158	911023.710991084203	1
2	3163	911074.595527365503	0
2	3175	915772.860527469319	1
2	3180	915782.097995205529	0
2	3192	920342.243547981681	1
2	3197	920946.720665100643	0
2	3209	925961.453496588801	1
2	3214	926096.049209285184	0
2	3220	928723.706514137664	1
2	3222	928723.706514137664	0
2	3228	929883.277904579239	1
2	3230	929883.277904579239	0
2	3242	930627.270175511759	1
2	3247	931238.611527814829	0
2	3278	941408.270309246155	1
2	3280	941408.270309246155	0
2	3296	948226.255762828945	1
2	3298	948226.255762828945	0
2	3314	960284.844675824363	1
2	3316	960284.844675824363	0
2	3331	971389.104684566031	1
2	3333	971389.104684566031	0
2	3340	972871.053626783556	1
2	3342	972871.053626783556	0
2	3348	974733.293038102169	1
2	3350	974733.293038102169	0
2	3364	976871.494170579108	1
2	3366	976871.494170579108	0
2	3389	980061.84979968812	1
2	3391	980061.84979968812	0
2	3402	981059.402213965759	1
2	3407	981799.358129071899	0
2	3410	981837.955630828637	1
2	3415	982052.216225165925	0
2	3418	982117.949675796424	1
2	3423	982351.570168240804	0
2	3462	988590.671220408138	1
2	3464	988590.671220408138	0
2	3479	994392.209370596328	1
2	3481	994392.209370596328	0
2	3497	1003354.212072068834	1
2	3499	1003354.212072068834	0
2	3515	1018741.280157796168	1
2	3517	1018741.280157796168	0
2	3533	1029003.685862819722	1
2	3535	1029003.685862819722	0
2	3541	1030280.434177102445	1
2	3543	1030280.434177102445	0
2	3549	1030618.601385775476	1
2	3551	1030618.601385775476	0
2	3583	1043586.128226920188	1
2	3585	1043586.128226920188	0
2	3592	1045417.310479338984	1
2	3594	1045417.310479338984	0
2	3618	1056623.85748913228	1
2	3620	1056623.85748913228	0
2	3631	1061263.23786898247	1
2	3636	1061356.73844456042	0
3	770	228058.333191678091	0
3	788	242160.697547092196	0
3	813	249448.073024868048	0
3	822	252616.736040818328	0
3	839	258321.391220337923	0
3	871	263994.130699293442	0
3	880	265474.802041824222	0
3	888	266506.764692896423	525.1971341646
3	929	272374.949454766324	0
3	940	273296.562832575943	496.71167055135
3	948	274343.868441121059	1134.6718492473
3	953	275298.369461966386	1918.3870771079
3	978	281962.368957529218	0
3	995	284522.598459899517	0
3	1004	288000.522188540909	0
3	1037	294685.570298893936	0
3	1045	295683.650932733526	871.11868326249
3	1061	298650.804609839481	0
3	1070	300152.902118104962	0
3	1097	323476.913739092305	0
3	1114	326918.471944395156	0
3	1122	328816.636449306642	0
3	1143	355557.562396272154	0
3	1184	365085.661865351002	0
3	1201	366963.982246651946	0
3	1220	368314.830751229505	1190.733782998
3	1233	369622.559911411956	1623.5750082116
3	1241	370519.812164791922	404.6507967262
3	1249	371557.904597132913	18.006144643121
3	1258	373787.780214569881	0
3	1283	381371.603551590342	0
3	1300	384749.896207151608	0
3	1316	386595.740995457531	0
3	1324	389882.853425119878	0
3	1357	394993.921472473112	0
3	1365	395947.903191417552	326.48926984734
3	1374	396847.312313077555	185.63121078282
3	1401	419695.63964325977	0
3	1410	420639.348814857348	859.62118299655
3	1435	426712.408018674387	0
3	1451	429765.903659423221	0
3	1459	431320.531640936533	0
3	1501	441309.659334193854	170.06204469333
3	1517	442577.570878990398	496.81371162358
3	1525	443426.831071961456	719.88904872373
3	1542	444610.597654415266	228.58854893549
3	1550	445915.881286661072	0
3	1558	447477.909507575004	0
3	1576	456691.389294234529	0
3	1600	460749.411920232112	0
3	1617	462584.909336532585	0
3	1633	465173.536024610854	0
3	1641	467402.00916472697	0
3	1659	474505.932329699958	0
3	1684	481513.784693166641	0
3	1692	482946.647209683675	0
3	1717	487806.812789149629	0
3	1725	488743.304372237836	0
3	1758	496328.31725819219	0
3	1774	497599.344339466209	713.85594080932
3	1783	499566.141833099286	0
3	1799	501138.247947521405	0
3	1816	504764.805881202632	0
3	1824	507604.959110958397	0
3	1849	512349.242177330335	0
3	1865	515327.034257199077	0
3	1882	518708.746416951664	0
3	1890	521941.420092320605	0
3	1915	527232.894303927754	0
3	1932	530194.018621190775	0
3	1949	534144.917623104725	0
3	1957	535312.503207572866	0
3	1974	543951.862500651618	0
3	1992	554651.489848637371	0
3	2009	559206.839947023976	0
3	2026	565952.712934438526	0
3	2059	572867.250946452238	0
3	2067	574050.308465454033	0
3	2075	575093.223499504802	0
3	2124	581269.853634061146	0
3	2133	582182.199238863249	784.2180964881
3	2149	583482.664848502377	3.837589354872
3	2168	584616.225106520437	1050.3779123284
3	2173	585678.169491378	1847.8700454959
3	2189	587498.65677032195	0
3	2198	588344.485156981742	358.4643619592
3	2222	590507.019930927173	0
3	2238	593613.36786301205	0
3	2247	594534.908919636259	680.58448317306
3	2255	596398.38584586641	0
3	2272	602996.27558288282	0
3	2289	610886.203502422591	0
3	2307	619190.612071529362	0
3	2332	626485.421296770999	0
3	2340	628415.997095188507	0
3	2358	637195.772607993524	0
3	2375	643280.295603900496	0
3	2401	658446.885373909855	0
3	2409	659284.743071464599	661.44139689925
3	2427	669892.894411028141	0
3	2445	681510.271000366115	0
3	2470	689158.518427577005	0
3	2479	692549.936160359735	0
3	2496	697555.782600599898	0
3	2521	704871.94116463543	0
3	2529	705806.763023591467	572.15243193411
3	2571	717520.809353646129	0
3	2587	719806.315268620266	37.338125490402
3	2607	720934.559209584273	664.05637766936
3	2612	721705.742926200993	1197.8104400392
3	2620	723203.13006451971	0
3	2628	724180.915922032068	0
3	2647	738176.619574732603	0
3	2665	754481.025083155373	0
3	2682	759891.672558725448	0
3	2716	768840.477774986435	0
3	2724	769751.590550694959	828.91828476352
3	2732	771179.407234031029	0
3	2750	781650.201457695596	0
3	2767	786261.573883216223	0
3	2792	792552.222316874778	0
3	2816	793847.909784489342	1117.5669247847
3	2832	796795.799260565753	0
3	2840	797867.466649628688	234.84975625884
3	2857	799060.61591326134	1001.5060499806
3	2865	802590.59729293298	0
3	2892	820670.877407348406	0
3	2900	821422.671246991147	572.22553893103
3	2917	826181.631626687118	0
3	2934	831669.033309696555	0
3	2951	838941.875628252309	0
3	2969	846566.375512567356	0
3	2986	852338.414822815419	0
3	3002	856887.595799266177	0
3	3029	870379.173975279465	0
3	3037	873032.956653881551	0
3	3062	880672.190000462706	0
3	3070	881569.207444023725	554.50065089528
3	3096	888489.374141019815	0
3	3104	889392.867462503538	192.06954123847
3	3129	896962.620170580494	0
3	3137	899263.035175025612	0
3	3155	910227.03366102447	0
3	3172	914945.395443995736	0
3	3189	919983.367505552076	0
3	3206	925063.13766982217	0
3	3239	930241.92316972347	216.04296507996
3	3255	932252.5399691476	0
3	3263	933587.598168691457	0
3	3271	934992.792539514796	0
3	3289	945055.920966713132	0
3	3306	951995.776744902264	0
3	3324	963780.028875171495	0
3	3358	975046.996478394568	304.78407928411
3	3374	977394.240059204025	0
3	3383	978872.541053901928	0
3	3399	980829.462403009344	0
3	3431	983666.312063670845	0
3	3440	985532.425958495779	0
3	3448	986602.630649230528	0
3	3456	987513.421657593681	880.19799473375
3	3473	992785.092028185822	0
3	3490	997927.875137038088	0
3	3507	1007258.911864752277	0
3	3526	1022423.166810204739	0
3	3560	1032371.699967708817	0
3	3568	1033252.96745065624	416.71893126115
3	3576	1034315.680900613415	102.24112085264
3	3602	1047403.590021977546	0
3	3610	1049377.562986988741	0
3	3628	1060528.617488347418	0
4	768	228058.333191678091	1
4	770	228058.333191678091	0
4	786	242160.697547092196	1
4	788	242160.697547092196	0
4	811	249448.073024868048	1
4	813	249448.073024868048	0
4	820	252616.736040818328	1
4	822	252616.736040818328	0
4	837	258321.391220337923	1
4	839	258321.391220337923	0
4	869	263994.130699293442	1
4	871	263994.130699293442	0
4	878	265474.802041824222	1
4	880	265474.802041824222	0
4	883	265981.567558731827	1
4	888	266506.764692896423	0
4	927	272374.949454766324	1
4	929	272374.949454766324	0
4	932	272799.851162024589	1
4	935	273209.196591873719	2
4	940	273296.562832575943	1
4	943	273379.982384858534	2
4	948	274343.868441121059	1
4	953	275298.369461966386	0
4	976	281962.368957529218	1
4	978	281962.368957529218	0
4	993	284522.598459899517	1
4	995	284522.598459899517	0
4	1002	288000.522188540909	1
4	1004	288000.522188540909	0
4	1035	294685.570298893936	1
4	1037	294685.570298893936	0
4	1040	294812.532249471039	1
4	1045	295683.650932733526	0
4	1059	298650.804609839481	1
4	1061	298650.804609839481	0
4	1068	300152.902118104962	1
4	1070	300152.902118104962	0
4	1095	323476.913739092305	1
4	1097	323476.913739092305	0
4	1112	326918.471944395156	1
4	1114	326918.471944395156	0
4	1120	328816.636449306642	1
4	1122	328816.636449306642	0
4	1141	355557.562396272154	1
4	1143	355557.562396272154	0
4	1182	365085.661865351002	1
4	1184	365085.661865351002	0
4	1199	366963.982246651946	1
4	1201	366963.982246651946	0
4	1204	367124.096968231534	1
4	1215	367998.984903200316	2
4	1220	368314.830751229505	1
4	1233	369622.559911411956	0
4	1236	370115.16136806572	1
4	1241	370519.812164791922	0
4	1244	371539.898452489792	1
4	1249	371557.904597132913	0
4	1256	373787.780214569881	1
4	1258	373787.780214569881	0
4	1281	381371.603551590342	1
4	1283	381371.603551590342	0
4	1298	384749.896207151608	1
4	1300	384749.896207151608	0
4	1314	386595.740995457531	1
4	1316	386595.740995457531	0
4	1322	389882.853425119878	1
4	1324	389882.853425119878	0
4	1355	394993.921472473112	1
4	1357	394993.921472473112	0
4	1360	395621.413921570216	1
4	1365	395947.903191417552	0
4	1369	396661.681102294735	1
4	1374	396847.312313077555	0
4	1399	419695.63964325977	1
4	1401	419695.63964325977	0
4	1404	419779.727631860803	1
4	1410	420639.348814857348	0
4	1433	426712.408018674387	1
4	1435	426712.408018674387	0
4	1449	429765.903659423221	1
4	1451	429765.903659423221	0
4	1457	431320.531640936533	1
4	1459	431320.531640936533	0
4	1496	441139.597289500519	1
4	1501	441309.659334193854	0
4	1507	442080.757167366816	1
4	1517	442577.570878990398	0
4	1520	442706.942023237727	1
4	1525	443426.831071961456	0
4	1537	444382.009105479778	1
4	1542	444610.597654415266	0
4	1548	445915.881286661072	1
4	1550	445915.881286661072	0
4	1556	447477.909507575004	1
4	1558	447477.909507575004	0
4	1574	456691.389294234529	1
4	1576	456691.389294234529	0
4	1598	460749.411920232112	1
4	1600	460749.411920232112	0
4	1615	462584.909336532585	1
4	1617	462584.909336532585	0
4	1631	465173.536024610854	1
4	1633	465173.536024610854	0
4	1639	467402.00916472697	1
4	1641	467402.00916472697	0
4	1657	474505.932329699958	1
4	1659	474505.932329699958	0
4	1682	481513.784693166641	1
4	1684	481513.784693166641	0
4	1690	482946.647209683675	1
4	1692	482946.647209683675	0
4	1715	487806.812789149629	1
4	1717	487806.812789149629	0
4	1723	488743.304372237836	1
4	1725	488743.304372237836	0
4	1756	496328.31725819219	1
4	1758	496328.31725819219	0
4	1761	496885.488398656885	1
4	1774	497599.344339466209	0
4	1781	499566.141833099286	1
4	1783	499566.141833099286	0
4	1797	501138.247947521405	1
4	1799	501138.247947521405	0
4	1814	504764.805881202632	1
4	1816	504764.805881202632	0
4	1822	507604.959110958397	1
4	1824	507604.959110958397	0
4	1847	512349.242177330335	1
4	1849	512349.242177330335	0
4	1863	515327.034257199077	1
4	1865	515327.034257199077	0
4	1880	518708.746416951664	1
4	1882	518708.746416951664	0
4	1888	521941.420092320605	1
4	1890	521941.420092320605	0
4	1913	527232.894303927754	1
4	1915	527232.894303927754	0
4	1930	530194.018621190775	1
4	1932	530194.018621190775	0
4	1947	534144.917623104725	1
4	1949	534144.917623104725	0
4	1955	535312.503207572866	1
4	1957	535312.503207572866	0
4	1972	543951.862500651618	1
4	1974	543951.862500651618	0
4	1990	554651.489848637371	1
4	1992	554651.489848637371	0
4	2007	559206.839947023976	1
4	2009	559206.839947023976	0
4	2024	565952.712934438526	1
4	2026	565952.712934438526	0
4	2057	572867.250946452238	1
4	2059	572867.250946452238	0
4	2065	574050.308465454033	1
4	2067	574050.308465454033	0
4	2073	575093.223499504802	1
4	2075	575093.223499504802	0
4	2122	581269.853634061146	1
4	2124	581269.853634061146	0
4	2127	581397.981142375152	1
4	2133	582182.199238863249	0
4	2144	583478.827259147505	1
4	2149	583482.664848502377	0
4	2152	583565.847194192036	1
4	2155	583830.299445882074	2
4	2168	584616.225106520437	1
4	2173	585678.169491378	0
4	2187	587498.65677032195	1
4	2189	587498.65677032195	0
4	2192	587986.020795022543	1
4	2198	588344.485156981742	0
4	2220	590507.019930927173	1
4	2222	590507.019930927173	0
4	2236	593613.36786301205	1
4	2238	593613.36786301205	0
4	2241	593854.324436463194	1
4	2247	594534.908919636259	0
4	2253	596398.38584586641	1
4	2255	596398.38584586641	0
4	2270	602996.27558288282	1
4	2272	602996.27558288282	0
4	2287	610886.203502422591	1
4	2289	610886.203502422591	0
4	2305	619190.612071529362	1
4	2307	619190.612071529362	0
4	2330	626485.421296770999	1
4	2332	626485.421296770999	0
4	2338	628415.997095188507	1
4	2340	628415.997095188507	0
4	2356	637195.772607993524	1
4	2358	637195.772607993524	0
4	2373	643280.295603900496	1
4	2375	643280.295603900496	0
4	2399	658446.885373909855	1
4	2401	658446.885373909855	0
4	2404	658623.301674565349	1
4	2409	659284.743071464599	0
4	2425	669892.894411028141	1
4	2427	669892.894411028141	0
4	2443	681510.271000366115	1
4	2445	681510.271000366115	0
4	2468	689158.518427577005	1
4	2470	689158.518427577005	0
4	2477	692549.936160359735	1
4	2479	692549.936160359735	0
4	2494	697555.782600599898	1
4	2496	697555.782600599898	0
4	2519	704871.94116463543	1
4	2521	704871.94116463543	0
4	2524	705234.610591657361	1
4	2529	705806.763023591467	0
4	2569	717520.809353646129	1
4	2571	717520.809353646129	0
4	2582	719768.977143129864	1
4	2587	719806.315268620266	0
4	2594	720270.502831914917	1
4	2597	720507.93248616183	2
4	2607	720934.559209584273	1
4	2612	721705.742926200993	0
4	2618	723203.13006451971	1
4	2620	723203.13006451971	0
4	2626	724180.915922032068	1
4	2628	724180.915922032068	0
4	2645	738176.619574732603	1
4	2647	738176.619574732603	0
4	2663	754481.025083155373	1
4	2665	754481.025083155373	0
4	2680	759891.672558725448	1
4	2682	759891.672558725448	0
4	2714	768840.477774986435	1
4	2716	768840.477774986435	0
4	2719	768922.672265931435	1
4	2724	769751.590550694959	0
4	2730	771179.407234031029	1
4	2732	771179.407234031029	0
4	2748	781650.201457695596	1
4	2750	781650.201457695596	0
4	2765	786261.573883216223	1
4	2767	786261.573883216223	0
4	2790	792552.222316874778	1
4	2792	792552.222316874778	0
4	2795	792730.342859704632	1
4	2816	793847.909784489342	0
4	2830	796795.799260565753	1
4	2832	796795.799260565753	0
4	2835	797632.616893369851	1
4	2840	797867.466649628688	0
4	2844	798059.10986328073	1
4	2857	799060.61591326134	0
4	2863	802590.59729293298	1
4	2865	802590.59729293298	0
4	2890	820670.877407348406	1
4	2892	820670.877407348406	0
4	2895	820850.445708060117	1
4	2900	821422.671246991147	0
4	2915	826181.631626687118	1
4	2917	826181.631626687118	0
4	2932	831669.033309696555	1
4	2934	831669.033309696555	0
4	2949	838941.875628252309	1
4	2951	838941.875628252309	0
4	2967	846566.375512567356	1
4	2969	846566.375512567356	0
4	2984	852338.414822815419	1
4	2986	852338.414822815419	0
4	3000	856887.595799266177	1
4	3002	856887.595799266177	0
4	3027	870379.173975279465	1
4	3029	870379.173975279465	0
4	3035	873032.956653881551	1
4	3037	873032.956653881551	0
4	3060	880672.190000462706	1
4	3062	880672.190000462706	0
4	3065	881014.706793128441	1
4	3070	881569.207444023725	0
4	3094	888489.374141019815	1
4	3096	888489.374141019815	0
4	3099	889200.797921265069	1
4	3104	889392.867462503538	0
4	3127	896962.620170580494	1
4	3129	896962.620170580494	0
4	3135	899263.035175025612	1
4	3137	899263.035175025612	0
4	3153	910227.03366102447	1
4	3155	910227.03366102447	0
4	3170	914945.395443995736	1
4	3172	914945.395443995736	0
4	3187	919983.367505552076	1
4	3189	919983.367505552076	0
4	3204	925063.13766982217	1
4	3206	925063.13766982217	0
4	3234	930025.880204643506	1
4	3239	930241.92316972347	0
4	3253	932252.5399691476	1
4	3255	932252.5399691476	0
4	3261	933587.598168691457	1
4	3263	933587.598168691457	0
4	3269	934992.792539514796	1
4	3271	934992.792539514796	0
4	3287	945055.920966713132	1
4	3289	945055.920966713132	0
4	3304	951995.776744902264	1
4	3306	951995.776744902264	0
4	3322	963780.028875171495	1
4	3324	963780.028875171495	0
4	3353	974742.212399110462	1
4	3358	975046.996478394568	0
4	3372	977394.240059204025	1
4	3374	977394.240059204025	0
4	3381	978872.541053901928	1
4	3383	978872.541053901928	0
4	3397	980829.462403009344	1
4	3399	980829.462403009344	0
4	3429	983666.312063670845	1
4	3431	983666.312063670845	0
4	3438	985532.425958495779	1
4	3440	985532.425958495779	0
4	3446	986602.630649230528	1
4	3448	986602.630649230528	0
4	3451	986633.223662859927	1
4	3456	987513.421657593681	0
4	3471	992785.092028185822	1
4	3473	992785.092028185822	0
4	3488	997927.875137038088	1
4	3490	997927.875137038088	0
4	3505	1007258.911864752277	1
4	3507	1007258.911864752277	0
4	3524	1022423.166810204739	1
4	3526	1022423.166810204739	0
4	3558	1032371.699967708817	1
4	3560	1032371.699967708817	0
4	3563	1032836.248519395089	1
4	3568	1033252.96745065624	0
4	3571	1034213.439779760772	1
4	3576	1034315.680900613415	0
4	3600	1047403.590021977546	1
4	3602	1047403.590021977546	0
4	3608	1049377.562986988741	1
4	3610	1049377.562986988741	0
4	3626	1060528.617488347418	1
4	3628	1060528.617488347418	0
5	754	204000	0
5	755	210000	0
5	756	216000	0
5	757	222000	0
5	766	228000	1
5	775	234000	0
5	784	240000	1
5	801	246000	1
5	818	252000	1
5	835	258000	1
5	873	264000	3
5	925	270000	4
5	955	276000	0
5	980	282000	2
5	1000	288000	1
5	1025	294000	2
5	1066	300000	2
5	1075	306000	0
5	1076	312000	0
5	1077	318000	0
5	1099	324000	2
5	1127	330000	1
5	1128	336000	0
5	1129	342000	0
5	1130	348000	0
5	1139	354000	1
5	1148	360000	0
5	1194	366000	4
5	1251	372000	3
5	1271	378000	1
5	1296	384000	2
5	1326	390000	1
5	1367	396000	3
5	1379	402000	0
5	1380	408000	0
5	1381	414000	0
5	1406	420000	2
5	1431	426000	2
5	1461	432000	1
5	1473	438000	1
5	1527	444000	4
5	1563	450000	1
5	1572	456000	1
5	1610	462000	2
5	1643	468000	2
5	1655	474000	1
5	1680	480000	2
5	1713	486000	2
5	1730	492000	0
5	1776	498000	4
5	1812	504000	2
5	1837	510000	1
5	1867	516000	2
5	1892	522000	1
5	1917	528000	2
5	1945	534000	2
5	1970	540000	1
5	1979	546000	0
5	1988	552000	1
5	2005	558000	1
5	2022	564000	1
5	2039	570000	1
5	2080	576000	2
5	2129	582000	5
5	2194	588000	3
5	2243	594000	3
5	2268	600000	1
5	2277	606000	0
5	2294	612000	1
5	2303	618000	1
5	2320	624000	1
5	2345	630000	1
5	2354	636000	1
5	2371	642000	1
5	2380	648000	0
5	2381	654000	0
5	2411	660000	2
5	2415	666000	0
5	2432	672000	1
5	2438	678000	0
5	2450	684000	1
5	2472	690000	2
5	2492	696000	1
5	2517	702000	2
5	2534	708000	0
5	2543	714000	1
5	2592	720000	4
5	2633	726000	1
5	2634	732000	0
5	2643	738000	1
5	2652	744000	0
5	2653	750000	0
5	2678	756000	2
5	2687	762000	0
5	2712	768000	3
5	2737	774000	0
5	2746	780000	1
5	2763	786000	1
5	2788	792000	2
5	2842	798000	3
5	2870	804000	1
5	2871	810000	0
5	2872	816000	0
5	2902	822000	2
5	2930	828000	2
5	2939	834000	0
5	2956	840000	1
5	2965	846000	1
5	2982	852000	1
5	3007	858000	1
5	3008	864000	0
5	3022	870000	1
5	3042	876000	1
5	3072	882000	2
5	3092	888000	2
5	3117	894000	1
5	3139	900000	1
5	3143	906000	0
5	3168	912000	2
5	3185	918000	1
5	3202	924000	1
5	3232	930000	2
5	3276	936000	2
5	3285	942000	1
5	3294	948000	0
5	3311	954000	1
5	3312	960000	0
5	3329	966000	1
5	3338	972000	1
5	3376	978000	3
5	3433	984000	4
5	3469	990000	1
5	3486	996000	1
5	3495	1002000	0
5	3509	1008000	1
5	3513	1014000	0
5	3522	1020000	1
5	3531	1026000	0
5	3556	1032000	3
5	3581	1038000	0
5	3590	1044000	1
5	3612	1050000	1
5	3616	1056000	0
5	3641	1062000	2
6	754	204000	0
6	755	210000	0
6	756	216000	0
6	757	222000	0
6	766	228000	0
6	775	234000	1
6	784	240000	0
6	801	246000	1
6	818	252000	1
6	835	258000	1
6	873	264000	1
6	925	270000	3
6	955	276000	3
6	980	282000	1
6	1000	288000	2
6	1025	294000	1
6	1066	300000	3
6	1075	306000	1
6	1076	312000	0
6	1077	318000	0
6	1099	324000	0
6	1127	330000	3
6	1128	336000	0
6	1129	342000	0
6	1130	348000	0
6	1139	354000	0
6	1148	360000	1
6	1194	366000	1
6	1251	372000	4
6	1271	378000	2
6	1296	384000	1
6	1326	390000	2
6	1367	396000	2
6	1379	402000	2
6	1380	408000	0
6	1381	414000	0
6	1406	420000	0
6	1431	426000	2
6	1461	432000	2
6	1473	438000	1
6	1527	444000	2
6	1563	450000	4
6	1572	456000	0
6	1610	462000	2
6	1643	468000	2
6	1655	474000	1
6	1680	480000	1
6	1713	486000	2
6	1730	492000	2
6	1776	498000	1
6	1812	504000	3
6	1837	510000	2
6	1867	516000	1
6	1892	522000	2
6	1917	528000	1
6	1945	534000	2
6	1970	540000	2
6	1979	546000	1
6	1988	552000	0
6	2005	558000	1
6	2022	564000	1
6	2039	570000	1
6	2080	576000	3
6	2129	582000	0
6	2194	588000	5
6	2243	594000	3
6	2268	600000	3
6	2277	606000	1
6	2294	612000	1
6	2303	618000	0
6	2320	624000	1
6	2345	630000	2
6	2354	636000	0
6	2371	642000	1
6	2380	648000	1
6	2381	654000	0
6	2411	660000	1
6	2415	666000	1
6	2432	672000	1
6	2438	678000	0
6	2450	684000	1
6	2472	690000	0
6	2492	696000	2
6	2517	702000	1
6	2534	708000	2
6	2543	714000	0
6	2592	720000	1
6	2633	726000	5
6	2634	732000	0
6	2643	738000	0
6	2652	744000	1
6	2653	750000	0
6	2678	756000	1
6	2687	762000	1
6	2712	768000	0
6	2737	774000	3
6	2746	780000	0
6	2763	786000	1
6	2788	792000	1
6	2842	798000	3
6	2870	804000	3
6	2871	810000	0
6	2872	816000	0
6	2902	822000	1
6	2930	828000	2
6	2939	834000	1
6	2956	840000	1
6	2965	846000	0
6	2982	852000	1
6	3007	858000	2
6	3008	864000	0
6	3022	870000	0
6	3042	876000	2
6	3072	882000	1
6	3092	888000	1
6	3117	894000	2
6	3139	900000	1
6	3143	906000	1
6	3168	912000	1
6	3185	918000	1
6	3202	924000	1
6	3232	930000	1
6	3276	936000	4
6	3285	942000	0
6	3294	948000	1
6	3311	954000	1
6	3312	960000	0
6	3329	966000	1
6	3338	972000	0
6	3376	978000	1
6	3433	984000	3
6	3469	990000	4
6	3486	996000	1
6	3495	1002000	1
6	3509	1008000	0
6	3513	1014000	1
6	3522	1020000	0
6	3531	1026000	1
6	3556	1032000	0
6	3581	1038000	3
6	3590	1044000	0
6	3612	1050000	1
6	3616	1056000	1
6	3641	1062000	1
7	764	224124.755332449472	1
7	767	228058.333191678091	0
7	782	239054.942904807594	1
7	785	242160.697547092196	0
7	799	245283.262289536115	1
7	808	249241.743082138718	2
7	810	249448.073024868048	1
7	819	252616.736040818328	0
7	833	255047.255909009043	1
7	836	258321.391220337923	0
7	853	261509.352248221031	1
7	858	261829.003105478463	2
7	866	262843.943190007646	3
7	868	263994.130699293442	2
7	877	265474.802041824222	1
7	882	265981.567558731827	0
7	902	268943.086942160145	1
7	913	269294.027122280116	2
7	918	269580.683385619112	3
7	923	269887.611116951859	4
7	926	272374.949454766324	3
7	931	272799.851162024589	2
7	934	273209.196591873719	1
7	942	273379.982384858534	0
7	965	278189.66232007505	1
7	973	280728.461992674007	2
7	975	281962.368957529218	1
7	990	283780.597465168574	2
7	992	284522.598459899517	1
7	1001	288000.522188540909	0
7	1015	290979.292867575517	1
7	1023	291679.323234243661	2
7	1032	294569.849032424809	3
7	1034	294685.570298893936	2
7	1039	294812.532249471039	1
7	1056	296870.58239058692	2
7	1058	298650.804609839481	1
7	1067	300152.902118104962	0
7	1084	319328.687271585403	1
7	1092	323193.146041984334	2
7	1094	323476.913739092305	1
7	1109	324864.766120977867	2
7	1111	326918.471944395156	1
7	1119	328816.636449306642	0
7	1137	352517.262647771664	1
7	1140	355557.562396272154	0
7	1155	361457.192209958528	1
7	1163	363251.864299253739	2
7	1174	363737.488617619402	3
7	1179	364068.158156983733	4
7	1181	365085.661865351002	3
7	1196	366308.369307243776	4
7	1198	366963.982246651946	3
7	1203	367124.096968231534	2
7	1214	367998.984903200316	1
7	1218	368314.830751229505	2
7	1231	369622.559911411956	3
7	1235	370115.16136806572	2
7	1243	371539.898452489792	1
7	1255	373787.780214569881	0
7	1269	377849.502025572019	1
7	1278	380982.839897891886	2
7	1280	381371.603551590342	1
7	1294	382580.177838127413	2
7	1297	384749.896207151608	1
7	1311	386045.881560925317	2
7	1313	386595.740995457531	1
7	1321	389882.853425119878	0
7	1336	391007.103166579872	1
7	1344	391980.256272425021	2
7	1352	393560.076544290321	3
7	1354	394993.921472473112	2
7	1359	395621.413921570216	1
7	1368	396661.681102294735	0
7	1388	415599.925432843176	1
7	1396	416421.237139796615	2
7	1398	419695.63964325977	1
7	1403	419779.727631860803	0
7	1421	423255.661310106435	1
7	1429	425793.988246199176	2
7	1432	426712.408018674387	1
7	1446	428436.21389627186	2
7	1448	429765.903659423221	1
7	1456	431320.531640936533	0
7	1471	437552.534733041851	1
7	1480	438638.53846952575	2
7	1488	439155.70667668344	3
7	1495	441139.597289500519	2
7	1499	441309.659334193854	3
7	1506	442080.757167366816	2
7	1515	442577.570878990398	3
7	1519	442706.942023237727	2
7	1536	444382.009105479778	1
7	1540	444610.597654415266	2
7	1547	445915.881286661072	1
7	1555	447477.909507575004	0
7	1570	453645.202383425911	1
7	1573	456691.389294234529	0
7	1590	457933.921633041855	1
7	1595	458272.325571842335	2
7	1597	460749.411920232112	1
7	1612	462055.243689806269	2
7	1614	462584.909336532585	1
7	1628	463834.788355384877	2
7	1630	465173.536024610854	1
7	1638	467402.00916472697	0
7	1653	470500.429707340015	1
7	1656	474505.932329699958	0
7	1670	478004.526707937522	1
7	1678	478861.473050908865	2
7	1681	481513.784693166641	1
7	1689	482946.647209683675	0
7	1703	484135.48554395486	1
7	1711	485089.969968885956	2
7	1714	487806.812789149629	1
7	1722	488743.304372237836	0
7	1737	492876.317687979343	1
7	1745	493744.465411265785	2
7	1753	495294.961623283819	3
7	1755	496328.31725819219	2
7	1760	496885.488398656885	1
7	1772	497599.344339466209	2
7	1780	499566.141833099286	1
7	1794	500894.900238292702	2
7	1796	501138.247947521405	1
7	1810	503109.497480705291	2
7	1813	504764.805881202632	1
7	1821	507604.959110958397	0
7	1835	508569.85498887136	1
7	1844	511863.907560737293	2
7	1846	512349.242177330335	1
7	1860	515197.161377266855	2
7	1862	515327.034257199077	1
7	1877	518373.793245153567	2
7	1879	518708.746416951664	1
7	1887	521941.420092320605	0
7	1902	523146.964370690705	1
7	1910	526065.216160769723	2
7	1912	527232.894303927754	1
7	1927	530156.905806501635	2
7	1929	530194.018621190775	1
7	1943	532315.863532568512	2
7	1946	534144.917623104725	1
7	1954	535312.503207572866	0
7	1968	539992.67638478208	1
7	1971	543951.862500651618	0
7	1986	551425.926351979839	1
7	1989	554651.489848637371	0
7	2003	555744.683582442204	1
7	2006	559206.839947023976	0
7	2020	561865.78729851928	1
7	2023	565952.712934438526	0
7	2037	569538.630624029906	1
7	2046	570363.282311425024	2
7	2054	571325.325405949258	3
7	2056	572867.250946452238	2
7	2064	574050.308465454033	1
7	2072	575093.223499504802	0
7	2090	576814.888732096419	1
7	2095	577114.087495309646	2
7	2103	579427.869450625416	3
7	2114	580020.289453042471	4
7	2119	580288.139089754232	5
7	2121	581269.853634061146	4
7	2126	581397.981142375152	3
7	2143	583478.827259147505	2
7	2147	583482.664848502377	3
7	2151	583565.847194192036	2
7	2154	583830.299445882074	1
7	2166	584616.225106520437	2
7	2184	586840.566609705051	3
7	2186	587498.65677032195	2
7	2191	587986.020795022543	1
7	2212	589760.553827289142	2
7	2217	590064.91463653936	3
7	2219	590507.019930927173	2
7	2233	592581.256873954042	3
7	2235	593613.36786301205	2
7	2240	593854.324436463194	1
7	2252	596398.38584586641	0
7	2266	599782.8958583725	1
7	2269	602996.27558288282	0
7	2284	606677.63559141406	1
7	2286	610886.203502422591	0
7	2301	615479.695605649546	1
7	2304	619190.612071529362	0
7	2318	623166.997944569256	1
7	2327	625010.259955640796	2
7	2329	626485.421296770999	1
7	2337	628415.997095188507	0
7	2352	633549.492740233348	1
7	2355	637195.772607993524	0
7	2369	639660.127411793338	1
7	2372	643280.295603900496	0
7	2391	655001.956902575851	1
7	2396	655329.209444288324	2
7	2398	658446.885373909855	1
7	2403	658623.301674565349	0
7	2422	666601.199086695743	1
7	2424	669892.894411028141	0
7	2440	678188.274566332654	1
7	2442	681510.271000366115	0
7	2457	685403.694729720419	1
7	2465	688880.659330554808	2
7	2467	689158.518427577005	1
7	2476	692549.936160359735	0
7	2490	693897.237172264111	1
7	2493	697555.782600599898	0
7	2507	701073.125522675566	1
7	2515	701954.42414115651	2
7	2518	704871.94116463543	1
7	2523	705234.610591657361	0
7	2541	713627.0981038598	1
7	2550	716496.503294610907	2
7	2558	716821.535147591241	3
7	2566	717508.256020163765	4
7	2568	717520.809353646129	3
7	2581	719768.977143129864	2
7	2585	719806.315268620266	3
7	2593	720270.502831914917	2
7	2596	720507.93248616183	1
7	2605	720934.559209584273	2
7	2617	723203.13006451971	1
7	2625	724180.915922032068	0
7	2641	734853.002534261859	1
7	2644	738176.619574732603	0
7	2660	750506.005038470006	1
7	2662	754481.025083155373	0
7	2676	755856.748999059058	1
7	2679	759891.672558725448	0
7	2697	765207.620138023348	1
7	2702	765476.778544597407	2
7	2710	767828.000621982313	3
7	2713	768840.477774986435	2
7	2718	768922.672265931435	1
7	2729	771179.407234031029	0
7	2744	778231.816770109738	1
7	2747	781650.201457695596	0
7	2761	783339.30569487131	1
7	2764	786261.573883216223	0
7	2781	788490.938822827326	1
7	2786	788807.322600385356	2
7	2789	792552.222316874778	1
7	2794	792730.342859704632	0
7	2809	793576.562442499557	1
7	2814	793847.909784489342	2
7	2827	794876.306314137836	3
7	2829	796795.799260565753	2
7	2834	797632.616893369851	1
7	2843	798059.10986328073	0
7	2855	799060.61591326134	1
7	2862	802590.59729293298	0
7	2879	816352.818158925501	1
7	2887	817033.423682957983	2
7	2889	820670.877407348406	1
7	2894	820850.445708060117	0
7	2912	822687.586296671779	1
7	2914	826181.631626687118	0
7	2928	827441.240870751075	1
7	2931	831669.033309696555	0
7	2946	835135.400592344378	1
7	2948	838941.875628252309	0
7	2963	843257.431956333465	1
7	2966	846566.375512567356	0
7	2980	848743.643426546436	1
7	2983	852338.414822815419	0
7	2997	853476.219510831053	1
7	2999	856887.595799266177	0
7	3015	866924.554465060355	1
7	3024	870110.775562537309	2
7	3026	870379.173975279465	1
7	3034	873032.956653881551	0
7	3049	876525.920518878211	1
7	3057	877543.572104354481	2
7	3059	880672.190000462706	1
7	3064	881014.706793128441	0
7	3082	885034.900211302694	1
7	3090	886062.532145011596	2
7	3093	888489.374141019815	1
7	3098	889200.797921265069	0
7	3115	893076.702578970878	1
7	3124	895519.540770112879	2
7	3126	896962.620170580494	1
7	3134	899263.035175025612	0
7	3150	907223.604458365351	1
7	3152	910227.03366102447	0
7	3166	911391.32887509909	1
7	3169	914945.395443995736	0
7	3183	916090.134731225211	1
7	3186	919983.367505552076	0
7	3200	921266.490167640448	1
7	3203	925063.13766982217	0
7	3217	926352.02585111537	1
7	3225	928990.109530646275	2
7	3233	930025.880204643506	1
7	3237	930241.92316972347	2
7	3250	931538.372422368111	3
7	3252	932252.5399691476	2
7	3260	933587.598168691457	1
7	3268	934992.792539514796	0
7	3283	941723.274019461064	1
7	3286	945055.920966713132	0
7	3301	948564.079987660171	1
7	3303	951995.776744902264	0
7	3319	960559.884042010229	1
7	3321	963780.028875171495	0
7	3336	971642.463494778494	1
7	3345	973193.813230450715	2
7	3352	974742.212399110462	1
7	3356	975046.996478394568	2
7	3369	977160.345984123766	3
7	3371	977394.240059204025	2
7	3380	978872.541053901928	1
7	3394	980383.199590051563	2
7	3396	980829.462403009344	1
7	3413	982052.216225165925	2
7	3421	982351.570168240804	3
7	3426	982706.222243587248	4
7	3428	983666.312063670845	3
7	3437	985532.425958495779	2
7	3445	986602.630649230528	1
7	3450	986633.223662859927	0
7	3467	988889.994860883908	1
7	3470	992785.092028185822	0
7	3484	994687.979096483094	1
7	3487	997927.875137038088	0
7	3502	1003654.457926194809	1
7	3504	1007258.911864752277	0
7	3520	1019031.687184312544	1
7	3523	1022423.166810204739	0
7	3538	1029279.781855890244	1
7	3546	1030607.75157597708	2
7	3554	1030887.357746452341	3
7	3557	1032371.699967708817	2
7	3562	1032836.248519395089	1
7	3570	1034213.439779760772	0
7	3588	1043902.184926230182	1
7	3597	1045731.987017031826	2
7	3599	1047403.590021977546	1
7	3607	1049377.562986988741	0
7	3623	1056948.20867623057	1
7	3625	1060528.617488347418	0
7	3639	1061631.863372128891	1
