version 2
run ResponseMeasurement-147-20170110-19:43:20-22267
attr configname ResponseMeasurement
attr datetime 20170110-19:43:20
attr experiment ResponseMeasurement
attr inifile responseStudy.ini
attr iterationvars ""
attr iterationvars2 $repetition=147
attr measurement ""
attr network controltower.SimNetwork
attr processid 22267
attr repetition 147
attr replication #147
attr resultdir results
attr runnumber 147
attr seedset 147
param SimNetwork.a.parkingLot.parkingDelay "truncnormal(60min, 6min)"
param SimNetwork.a.runway.landingTime "truncnormal(5min, 0.5min)"
param SimNetwork.a.runway.takeoffTime "truncnormal(15min, 1.5min)"
param SimNetwork.a.runway.throughputCheckInterval 100min
param SimNetwork.wg.interArrivalTime exponential(100min)

vector 7  SimNetwork.a.parkingLot  parkingOccupancy:vector  ETV
attr source  parkingOccupancy
vector 4  SimNetwork.a.takeoffQueue  queueLength:vector  ETV
attr source  queueLengthSignal
vector 3  SimNetwork.a.takeoffQueue  queueTime:vector  ETV
attr source  queueTimeSignal
vector 0  SimNetwork.wg  responseTime:vector  ETV
attr source  responseTimeSignal
vector 5  SimNetwork.a.runway  landedThroughput:vector  ETV
attr source  landedThroughputSignal
vector 6  SimNetwork.a.runway  tookoffThroughput:vector  ETV
attr source  tookoffThroughputSignal
vector 2  SimNetwork.a.landingQueue  queueLength:vector  ETV
attr source  queueLengthSignal
vector 1  SimNetwork.a.landingQueue  queueTime:vector  ETV
attr source  queueTimeSignal
0	640	201553.249518652917	10428.606987588
0	677	213497.313572783539	16555.486083344
0	685	214425.874863344856	5874.3373340867
0	693	215254.991355923195	6329.9341226559
0	718	220666.774901420421	9923.6311082026
0	729	221490.701119381208	6282.3313254932
0	751	226280.982199830865	5573.6006766827
0	756	227249.273656269339	10969.327751837
0	779	232709.559080599086	11871.550088175
0	817	237896.704673934233	5888.3949606653
0	822	238874.269315151932	11010.174225445
0	834	240367.75074634608	8249.571782454
0	839	241281.139427129773	6919.1182145485
0	867	246510.998904123916	9862.1337295652
0	872	247214.170013487213	5538.4498953476
0	890	261288.12968167818	19168.334250044
0	908	270280.415775755258	13663.272341643
0	933	277053.652973490706	11891.710010642
0	960	281443.52699973972	9245.4821894272
0	980	284504.319449315308	8791.5903491036
0	993	285589.521443579514	5780.3226580733
0	998	286523.667821108441	6712.4841911791
0	1010	289395.299698951086	8542.8004896752
0	1024	294781.715198526499	11187.033466058
0	1042	308396.890338073057	19842.758420155
0	1065	330725.245564425685	26847.911863515
0	1094	334911.751862999351	8398.8689047642
0	1106	336744.542147762507	6197.4147019664
0	1119	338207.60547282193	6309.4155541782
0	1127	341968.265611424191	8756.4127856606
0	1145	352521.298854077634	16637.495837269
0	1177	362841.258079331442	15652.612499715
0	1187	364077.240831549759	6391.7830925973
0	1204	367431.266583120962	8674.0882307805
0	1212	368877.609695640536	6203.8176476366
0	1253	376534.540402298599	11901.018089463
0	1264	377604.726449065653	5811.2411855531
0	1273	378585.479577457184	5611.6645052502
0	1278	379550.77104569396	6267.9056902738
0	1297	400859.240092160718	26266.811369865
0	1314	406653.638865576241	10870.693645133
0	1340	417827.491818703589	15953.931874396
0	1348	419942.149279469484	6854.8648339234
0	1366	431470.153145979988	16539.85210277
0	1387	440729.359896303649	13977.068656232
0	1409	444770.486289596575	8832.6340737224
0	1420	448013.483230124607	8108.5441487117
0	1434	452482.845707008317	9513.8054910761
0	1461	468466.804498308867	21046.215699968
0	1469	470968.669912158098	7205.6538578352
0	1488	486880.434479848095	20885.609923692
0	1505	494755.278073909003	12770.862180645
0	1523	509258.764027867383	19005.611800011
0	1541	517111.072186628143	12884.83555412
0	1564	541986.491367525943	30074.842655398
0	1578	546352.626362077691	8613.827371114
0	1606	556319.405570367968	14442.951578135
0	1611	557159.916571341307	5705.7621451458
0	1629	568425.611017854992	15903.191032897
0	1655	577545.642460257858	13751.704410147
0	1671	581375.985800275019	8096.0371086065
0	1680	583361.318968358861	6879.3497462007
0	1700	593317.01513521794	15018.720600401
0	1714	597600.247419760905	8844.1985231636
0	1743	609486.048350383288	16608.355458757
0	1748	610323.099788858757	6105.8631685413
0	1765	616440.992585417742	10684.966460467
0	1784	632886.500960643988	21338.854597139
0	1801	641451.358012274203	13078.602029283
0	1821	646169.818376157147	9739.7924512097
0	1835	650588.350840118677	8810.6931829256
0	1855	655755.812788229366	10343.232478487
0	1876	659492.30159153641	8391.1480985032
0	1885	660622.677903184112	5561.8659340992
0	1902	666261.483176655725	10450.302651743
0	1919	674862.489900570848	14114.048993494
0	1956	687441.882220369378	17392.425831037
0	1964	688362.851723982324	6043.9384927954
0	1972	689147.681355108579	5924.8522697109
0	1986	693897.227943727645	9540.5373350163
0	2013	708912.502625208784	19974.798356911
0	2021	712238.219693032703	8557.9515586191
0	2038	719820.116662023375	12714.692380005
0	2056	727669.334164545705	12542.414938188
0	2073	734735.556622016754	11998.587880608
0	2106	739950.62811464826	9287.1644265513
0	2125	741678.439207818629	6790.4219977919
0	2133	742537.523585678727	5849.5753645176
0	2147	745039.582497946782	7794.2167865023
0	2155	747188.478105505609	6832.7884498172
0	2190	762860.059388223795	20803.92010189
0	2198	764855.742048520939	6650.0995111883
0	2206	766956.31230868196	6787.5699922721
0	2226	786322.523028313965	24914.631088408
0	2250	790554.146105791963	9147.926415654
0	2270	794322.728728140381	7958.6366200365
0	2283	796144.986520265776	7309.3435061653
0	2292	799704.792451099026	8402.433549426
0	2320	807604.613037583266	13716.753121247
0	2325	808449.393219848285	5326.972832723
0	2343	816834.213387569611	13510.728444653
0	2361	832604.412306252678	20609.223039475
0	2390	840790.10072647585	12871.446984149
0	2398	841634.395685336497	5110.0397728504
0	2412	846384.382030278915	9463.8932558987
0	2437	857383.753731363392	16232.060496023
0	2446	859386.21137279154	7157.268312725
0	2478	908047.162562214561	53377.087022737
0	2489	911343.255001422094	8383.4135177928
0	2503	915508.006971918222	9089.7595301674
0	2531	922587.024456421428	11483.989889455
0	2536	923619.222767322031	5949.4794960418
0	2555	938401.993255648275	20152.116633246
0	2580	946302.661056543884	12886.845790888
0	2588	947379.774517368206	6049.4211547178
0	2617	972189.042838045414	29404.036232822
0	2633	974898.158508397717	7488.3931154119
0	2644	977215.778571404953	7686.9805615603
0	2661	982215.540595580011	9480.0848825847
0	2675	986944.469379527257	10151.950697919
0	2700	993684.354967045145	11917.4257995
0	2717	997138.586182097306	8479.6064459356
0	2725	1000058.809812280312	7492.4241941092
0	2751	1009815.833908966808	14221.34071225
0	2759	1012906.121792622003	7779.5772090232
0	2788	1020190.822943010764	12153.392594197
0	2801	1022637.420393122481	7413.215858068
0	2809	1025284.121521162631	7651.5653934239
0	2846	1032034.289060714864	12162.384251775
0	2851	1032892.01864200912	5183.633800855
0	2859	1034886.025284594356	7069.8058280476
0	2876	1041051.674297588817	10813.291538773
0	2902	1055295.679365889249	19501.263099449
0	2911	1056300.784292666534	5811.8469016768
0	2935	1060836.537304927535	8906.8558778819
1	646	208551.537529258167	0
1	654	208925.057233267316	0
1	663	210743.14379321784	0
1	695	215254.991355923195	46.621562035184
1	704	216279.945904431928	0
1	731	221490.701119381208	783.31959623305
1	736	221769.576030233022	931.56703780872
1	761	227864.095089706653	0
1	781	232709.559080599086	701.24936733015
1	786	232950.965045680277	832.78608178818
1	795	234362.021212581243	0
1	803	236648.865174558699	0
1	844	241675.720118139655	0
1	852	242119.7954316343	0
1	878	256617.14343411211	0
1	896	265161.942962848896	0
1	913	272198.044810312542	0
1	921	275712.729100211721	0
1	938	279809.19878550618	0
1	946	280120.676990924493	309.4933609952
1	962	281443.52699973972	591.02779046383
1	982	284504.319449315308	909.63771684667
1	1012	289395.299698951086	841.16778103323
1	1030	303877.333700910524	0
1	1050	326512.882958235124	0
1	1067	330725.245564425685	178.11811862963
1	1075	331898.189918643749	0
1	1083	333211.85282576361	0
1	1108	336744.542147762507	860.73913095384
1	1133	347188.645579616448	0
1	1151	357685.45773895249	0
1	1159	358757.178352340498	0
1	1179	362841.258079331442	167.46603132755
1	1192	364633.522312835248	0
1	1217	371793.485263512562	0
1	1226	372973.815072206934	0
1	1234	373286.533826024256	3.668470604058
1	1242	374592.428722295448	0
1	1285	395782.945220443692	0
1	1302	401873.559944308062	0
1	1320	413087.284445546052	0
1	1329	414930.301043210246	0
1	1355	426752.291240071768	0
1	1372	435937.85221587416	0
1	1389	440729.359896303649	824.42081489075
1	1397	442969.040215932193	0
1	1422	448013.483230124607	592.89443178338
1	1441	463763.016054322933	0
1	1449	465994.824556156046	0
1	1476	481984.415893263538	0
1	1493	490253.152227856024	0
1	1512	504226.236632508212	0
1	1529	511911.648712128102	0
1	1549	537738.79899096367	0
1	1566	541986.491367525943	110.0373752928
1	1583	551454.154426195556	0
1	1592	552522.41998495817	0
1	1617	563793.938050111028	0
1	1635	573279.94869166847	0
1	1644	576481.969222158144	0
1	1660	578298.294534817182	0
1	1686	588756.048896597308	0
1	1702	593317.01513521794	439.32224359161
1	1720	604217.236620317499	0
1	1728	605756.026124950867	0
1	1753	611547.646363505123	0
1	1772	628372.755982991553	0
1	1790	636430.025924947447	0
1	1806	641777.657657193049	0
1	1823	646169.818376157147	757.23806641447
1	1840	651101.153493033214	0
1	1857	655755.812788229366	695.00081914447
1	1865	656035.161807541831	223.98128262886
1	1890	660748.440907076462	0
1	1907	670049.456389332288	0
1	1925	682318.913231186884	0
1	1933	683222.829085397653	0
1	1942	684356.690608711366	0
1	1974	689147.681355108579	209.97708681068
1	1993	703680.268134413642	0
1	2001	707105.424282018869	0
1	2027	715126.919226357973	0
1	2044	722736.968741408603	0
1	2061	730663.463688096927	0
1	2078	734888.017210026704	0
1	2086	736687.948221161123	0
1	2094	737245.365711444478	0
1	2111	740355.689655688404	0
1	2135	742537.523585678727	481.38429934447
1	2162	758205.642537332595	0
1	2170	760168.742316409844	0
1	2178	761407.891939905662	0
1	2214	781406.219690137926	0
1	2231	786364.092108103832	0
1	2239	788835.643014100486	0
1	2255	791302.358901673059	0
1	2272	794322.728728140381	434.86881180432
1	2297	803122.420387125308	0
1	2305	803356.065009409234	32.580066492424
1	2331	811995.18926677778	0
1	2349	827918.653742327132	0
1	2367	836524.355912486086	0
1	2375	836920.488774380181	0
1	2400	841634.395685336497	482.70244999636
1	2418	852228.943060066536	0
1	2426	854670.075539477524	0
1	2458	902959.841483629268	0
1	2467	906418.247441750787	0
1	2491	911343.255001422094	240.22043445556
1	2508	917669.743271280265	0
1	2517	918249.876622401992	0
1	2543	933415.815265655792	0
1	2560	941330.353362650406	0
1	2569	942785.00660522306	0
1	2597	967409.76539298586	0
1	2605	969528.798009844639	0
1	2622	972735.455712995264	0
1	2646	977215.778571404953	423.25988979674
1	2663	982215.540595580011	448.61142803501
1	2680	988658.979736161717	0
1	2689	992566.385618171106	0
1	2705	995594.493196716904	0
1	2731	1005126.544583598818	0
1	2740	1008037.430348813648	0
1	2765	1015224.204535054458	0
1	2773	1017632.556127738763	0
1	2790	1020190.822943010764	318.91813407051
1	2815	1027708.384841154086	0
1	2823	1027963.041653645572	146.82219709882
1	2831	1030238.382758815341	0
1	2864	1035794.416266440455	0
1	2883	1050488.937390989727	0
1	2891	1051929.6814270456	0
1	2916	1056504.354654937538	0
1	2924	1059019.979943526241	0
2	644	208551.537529258167	1
2	646	208551.537529258167	0
2	652	208925.057233267316	1
2	654	208925.057233267316	0
2	661	210743.14379321784	1
2	663	210743.14379321784	0
2	690	215208.369793888011	1
2	695	215254.991355923195	0
2	702	216279.945904431928	1
2	704	216279.945904431928	0
2	723	220707.381523148159	1
2	726	220838.008992424299	2
2	731	221490.701119381208	1
2	736	221769.576030233022	0
2	759	227864.095089706653	1
2	761	227864.095089706653	0
2	773	232008.309713268931	1
2	776	232118.178963892098	2
2	781	232709.559080599086	1
2	786	232950.965045680277	0
2	793	234362.021212581243	1
2	795	234362.021212581243	0
2	801	236648.865174558699	1
2	803	236648.865174558699	0
2	842	241675.720118139655	1
2	844	241675.720118139655	0
2	850	242119.7954316343	1
2	852	242119.7954316343	0
2	876	256617.14343411211	1
2	878	256617.14343411211	0
2	894	265161.942962848896	1
2	896	265161.942962848896	0
2	911	272198.044810312542	1
2	913	272198.044810312542	0
2	919	275712.729100211721	1
2	921	275712.729100211721	0
2	936	279809.19878550618	1
2	938	279809.19878550618	0
2	941	279811.183629929297	1
2	946	280120.676990924493	0
2	957	280852.499209275887	1
2	962	281443.52699973972	0
2	974	283594.68173246864	1
2	982	284504.319449315308	0
2	1007	288554.131917917856	1
2	1012	289395.299698951086	0
2	1028	303877.333700910524	1
2	1030	303877.333700910524	0
2	1048	326512.882958235124	1
2	1050	326512.882958235124	0
2	1062	330547.12744579606	1
2	1067	330725.245564425685	0
2	1073	331898.189918643749	1
2	1075	331898.189918643749	0
2	1081	333211.85282576361	1
2	1083	333211.85282576361	0
2	1102	335883.803016808672	1
2	1108	336744.542147762507	0
2	1131	347188.645579616448	1
2	1133	347188.645579616448	0
2	1149	357685.45773895249	1
2	1151	357685.45773895249	0
2	1157	358757.178352340498	1
2	1159	358757.178352340498	0
2	1171	362673.792048003892	1
2	1179	362841.258079331442	0
2	1190	364633.522312835248	1
2	1192	364633.522312835248	0
2	1215	371793.485263512562	1
2	1217	371793.485263512562	0
2	1224	372973.815072206934	1
2	1226	372973.815072206934	0
2	1229	373282.865355420198	1
2	1234	373286.533826024256	0
2	1240	374592.428722295448	1
2	1242	374592.428722295448	0
2	1283	395782.945220443692	1
2	1285	395782.945220443692	0
2	1300	401873.559944308062	1
2	1302	401873.559944308062	0
2	1318	413087.284445546052	1
2	1320	413087.284445546052	0
2	1327	414930.301043210246	1
2	1329	414930.301043210246	0
2	1353	426752.291240071768	1
2	1355	426752.291240071768	0
2	1370	435937.85221587416	1
2	1372	435937.85221587416	0
2	1384	439904.939081412901	1
2	1389	440729.359896303649	0
2	1395	442969.040215932193	1
2	1397	442969.040215932193	0
2	1417	447420.588798341229	1
2	1422	448013.483230124607	0
2	1439	463763.016054322933	1
2	1441	463763.016054322933	0
2	1447	465994.824556156046	1
2	1449	465994.824556156046	0
2	1474	481984.415893263538	1
2	1476	481984.415893263538	0
2	1491	490253.152227856024	1
2	1493	490253.152227856024	0
2	1510	504226.236632508212	1
2	1512	504226.236632508212	0
2	1527	511911.648712128102	1
2	1529	511911.648712128102	0
2	1547	537738.79899096367	1
2	1549	537738.79899096367	0
2	1561	541876.453992233146	1
2	1566	541986.491367525943	0
2	1581	551454.154426195556	1
2	1583	551454.154426195556	0
2	1590	552522.41998495817	1
2	1592	552522.41998495817	0
2	1615	563793.938050111028	1
2	1617	563793.938050111028	0
2	1633	573279.94869166847	1
2	1635	573279.94869166847	0
2	1642	576481.969222158144	1
2	1644	576481.969222158144	0
2	1658	578298.294534817182	1
2	1660	578298.294534817182	0
2	1684	588756.048896597308	1
2	1686	588756.048896597308	0
2	1697	592877.692891626327	1
2	1702	593317.01513521794	0
2	1718	604217.236620317499	1
2	1720	604217.236620317499	0
2	1726	605756.026124950867	1
2	1728	605756.026124950867	0
2	1751	611547.646363505123	1
2	1753	611547.646363505123	0
2	1770	628372.755982991553	1
2	1772	628372.755982991553	0
2	1788	636430.025924947447	1
2	1790	636430.025924947447	0
2	1804	641777.657657193049	1
2	1806	641777.657657193049	0
2	1818	645412.580309742672	1
2	1823	646169.818376157147	0
2	1838	651101.153493033214	1
2	1840	651101.153493033214	0
2	1852	655060.811969084892	1
2	1857	655755.812788229366	0
2	1860	655811.180524912966	1
2	1865	656035.161807541831	0
2	1888	660748.440907076462	1
2	1890	660748.440907076462	0
2	1905	670049.456389332288	1
2	1907	670049.456389332288	0
2	1923	682318.913231186884	1
2	1925	682318.913231186884	0
2	1931	683222.829085397653	1
2	1933	683222.829085397653	0
2	1940	684356.690608711366	1
2	1942	684356.690608711366	0
2	1969	688937.704268297902	1
2	1974	689147.681355108579	0
2	1991	703680.268134413642	1
2	1993	703680.268134413642	0
2	1999	707105.424282018869	1
2	2001	707105.424282018869	0
2	2025	715126.919226357973	1
2	2027	715126.919226357973	0
2	2042	722736.968741408603	1
2	2044	722736.968741408603	0
2	2059	730663.463688096927	1
2	2061	730663.463688096927	0
2	2076	734888.017210026704	1
2	2078	734888.017210026704	0
2	2084	736687.948221161123	1
2	2086	736687.948221161123	0
2	2092	737245.365711444478	1
2	2094	737245.365711444478	0
2	2109	740355.689655688404	1
2	2111	740355.689655688404	0
2	2130	742056.139286334259	1
2	2135	742537.523585678727	0
2	2160	758205.642537332595	1
2	2162	758205.642537332595	0
2	2168	760168.742316409844	1
2	2170	760168.742316409844	0
2	2176	761407.891939905662	1
2	2178	761407.891939905662	0
2	2212	781406.219690137926	1
2	2214	781406.219690137926	0
2	2229	786364.092108103832	1
2	2231	786364.092108103832	0
2	2237	788835.643014100486	1
2	2239	788835.643014100486	0
2	2253	791302.358901673059	1
2	2255	791302.358901673059	0
2	2267	793887.859916336064	1
2	2272	794322.728728140381	0
2	2295	803122.420387125308	1
2	2297	803122.420387125308	0
2	2300	803323.48494291681	1
2	2305	803356.065009409234	0
2	2329	811995.18926677778	1
2	2331	811995.18926677778	0
2	2347	827918.653742327132	1
2	2349	827918.653742327132	0
2	2365	836524.355912486086	1
2	2367	836524.355912486086	0
2	2373	836920.488774380181	1
2	2375	836920.488774380181	0
2	2395	841151.693235340134	1
2	2400	841634.395685336497	0
2	2416	852228.943060066536	1
2	2418	852228.943060066536	0
2	2424	854670.075539477524	1
2	2426	854670.075539477524	0
2	2456	902959.841483629268	1
2	2458	902959.841483629268	0
2	2465	906418.247441750787	1
2	2467	906418.247441750787	0
2	2486	911103.034566966535	1
2	2491	911343.255001422094	0
2	2506	917669.743271280265	1
2	2508	917669.743271280265	0
2	2515	918249.876622401992	1
2	2517	918249.876622401992	0
2	2541	933415.815265655792	1
2	2543	933415.815265655792	0
2	2558	941330.353362650406	1
2	2560	941330.353362650406	0
2	2567	942785.00660522306	1
2	2569	942785.00660522306	0
2	2595	967409.76539298586	1
2	2597	967409.76539298586	0
2	2603	969528.798009844639	1
2	2605	969528.798009844639	0
2	2620	972735.455712995264	1
2	2622	972735.455712995264	0
2	2641	976792.518681608209	1
2	2646	977215.778571404953	0
2	2658	981766.929167544997	1
2	2663	982215.540595580011	0
2	2678	988658.979736161717	1
2	2680	988658.979736161717	0
2	2687	992566.385618171106	1
2	2689	992566.385618171106	0
2	2703	995594.493196716904	1
2	2705	995594.493196716904	0
2	2729	1005126.544583598818	1
2	2731	1005126.544583598818	0
2	2738	1008037.430348813648	1
2	2740	1008037.430348813648	0
2	2763	1015224.204535054458	1
2	2765	1015224.204535054458	0
2	2771	1017632.556127738763	1
2	2773	1017632.556127738763	0
2	2784	1019871.904808940258	1
2	2790	1020190.822943010764	0
2	2813	1027708.384841154086	1
2	2815	1027708.384841154086	0
2	2818	1027816.219456546752	1
2	2823	1027963.041653645572	0
2	2829	1030238.382758815341	1
2	2831	1030238.382758815341	0
2	2862	1035794.416266440455	1
2	2864	1035794.416266440455	0
2	2881	1050488.937390989727	1
2	2883	1050488.937390989727	0
2	2889	1051929.6814270456	1
2	2891	1051929.6814270456	0
2	2914	1056504.354654937538	1
2	2916	1056504.354654937538	0
2	2922	1059019.979943526241	1
2	2924	1059019.979943526241	0
3	637	200735.706980934239	0
3	671	212447.773524784567	0
3	679	213497.313572783539	488.79226747531
3	687	214425.874863344856	148.95685735881
3	712	219678.664018465459	0
3	720	220666.774901420421	630.63679934038
3	745	225408.663372989747	0
3	753	226280.982199830865	660.22522353134
3	770	231819.780020568032	0
3	814	236944.569805007817	90.632311043578
3	819	237896.704673934233	976.02268133228
3	827	239332.845436867536	0
3	836	240367.75074634608	204.46094739625
3	860	245612.176948725275	0
3	869	246510.998904123916	106.50747052576
3	887	260504.706367624355	0
3	904	269391.562115903005	0
3	930	276225.025602537536	0
3	954	280474.281484518419	156.53092817525
3	971	283572.877727036699	0
3	987	284788.630194566095	1050.3568561081
3	995	285589.521443579514	445.54862891895
3	1004	288518.106614010194	0
3	1020	293941.678238477375	0
3	1039	307599.509343335495	0
3	1058	329993.856903788531	0
3	1091	334010.857397225367	0
3	1099	335793.479551995095	0
3	1116	337202.214993079429	0
3	1124	341072.755314677644	0
3	1142	351753.353712858753	0
3	1168	361929.46174547173	0
3	1184	363092.002686746454	401.07515610703
3	1201	366434.948466778546	0
3	1209	367934.622272269106	0
3	1250	375606.487685105156	0
3	1258	376850.30709103335	0
3	1266	377604.726449065653	106.20553222524
3	1275	378585.479577457184	355.99865708578
3	1294	400000.282794347047	0
3	1311	405762.929767782091	0
3	1337	416859.560443932864	0
3	1345	418831.408990321834	0
3	1363	430639.556384888418	0
3	1381	439854.440917842352	0
3	1405	443865.362810371176	0
3	1414	447030.754349647032	0
3	1431	451774.514474710466	0
3	1457	467487.696874592576	0
3	1466	469933.010656428454	0
3	1484	485985.503868751586	0
3	1502	493795.135265387898	0
3	1520	508433.740750942972	0
3	1538	516218.268032617307	0
3	1558	540943.65601819707	0
3	1574	545656.871972821739	0
3	1600	555241.880595925682	0
3	1608	556319.405570367968	630.57194997123
3	1626	567521.729239796781	0
3	1652	576797.530416675753	0
3	1668	580559.68694890711	0
3	1677	582476.460119854802	0
3	1694	592398.507472938866	0
3	1711	596620.913468323232	0
3	1737	608445.923422384161	0
3	1745	609486.048350383288	53.757392396387
3	1762	615567.019501559429	0
3	1781	631962.569328942376	0
3	1798	640511.980467837693	0
3	1815	645343.33184345915	0
3	1832	649717.443599973884	0
3	1849	654749.008138131724	0
3	1873	658606.514195995559	0
3	1881	659729.312371124132	0
3	1898	665386.261784022678	0
3	1916	673868.287708258946	0
3	1950	686501.181142418252	0
3	1958	687441.882220369378	378.67617261073
3	1966	688362.851723982324	133.12505137685
3	1983	693134.957850607452	0
3	2009	707911.635909084792	0
3	2018	711287.689895684231	0
3	2035	718762.347000778576	0
3	2053	726692.241764824932	0
3	2070	733924.255049811342	0
3	2103	739067.792757592974	0
3	2119	740707.28955141867	0
3	2127	741678.439207818629	82.328318418842
3	2144	744154.71323575098	0
3	2152	746282.670652589406	0
3	2186	761966.203759123611	0
3	2195	763848.092952209279	0
3	2203	766113.144580593615	0
3	2222	785532.276861324149	0
3	2247	789733.95928954406	0
3	2264	793458.818311923779	0
3	2280	795245.148615107958	0
3	2289	798913.030617841174	0
3	2314	806769.587988388808	0
3	2322	807604.613037583266	395.34378020573
3	2339	815869.062724314851	0
3	2358	831700.016799322455	0
3	2383	839864.932006570553	0
3	2392	840790.10072647585	238.65014139457
3	2408	845593.520337489152	0
3	2434	856539.796720966723	0
3	2443	858536.071912649537	0
3	2475	907110.728011872527	0
3	2483	910449.637636775944	0
3	2500	914622.961096613645	0
3	2525	921660.195491438968	0
3	2533	922587.024456421428	825.50096740808
3	2552	937318.559006538874	0
3	2577	945367.151707654434	0
3	2585	946435.357876345114	0
3	2613	971241.59631878083	0
3	2630	973985.317345742255	0
3	2638	976355.523561614659	0
3	2655	981277.778810158377	0
3	2672	986065.244127972946	0
3	2697	992850.171681171455	242.7672568364
3	2714	996256.339505604047	0
3	2722	999257.338267916339	0
3	2748	1009075.058693244864	0
3	2756	1011958.952199321017	0
3	2781	1019269.162159967651	0
3	2798	1021729.414578163705	0
3	2806	1024464.218510291103	0
3	2839	1031190.688062808801	0
3	2848	1032034.289060714864	67.78426929252
3	2856	1033948.301432886967	0
3	2873	1040209.15721557139	0
3	2899	1054447.608628303626	0
3	2907	1055530.825433936323	0
3	2932	1060087.028896474392	0
3	2941	1063109.242543757081	0
4	635	200735.706980934239	1
4	637	200735.706980934239	0
4	669	212447.773524784567	1
4	671	212447.773524784567	0
4	674	213008.521305308227	1
4	679	213497.313572783539	0
4	682	214276.91800598605	1
4	687	214425.874863344856	0
4	710	219678.664018465459	1
4	712	219678.664018465459	0
4	715	220036.13810208004	1
4	720	220666.774901420421	0
4	743	225408.663372989747	1
4	745	225408.663372989747	0
4	748	225620.756976299526	1
4	753	226280.982199830865	0
4	768	231819.780020568032	1
4	770	231819.780020568032	0
4	806	236853.937493964239	1
4	809	236920.681992601949	2
4	814	236944.569805007817	1
4	819	237896.704673934233	0
4	825	239332.845436867536	1
4	827	239332.845436867536	0
4	831	240163.289798949829	1
4	836	240367.75074634608	0
4	858	245612.176948725275	1
4	860	245612.176948725275	0
4	864	246404.491433598156	1
4	869	246510.998904123916	0
4	885	260504.706367624355	1
4	887	260504.706367624355	0
4	902	269391.562115903005	1
4	904	269391.562115903005	0
4	928	276225.025602537536	1
4	930	276225.025602537536	0
4	949	280317.750556343164	1
4	954	280474.281484518419	0
4	969	283572.877727036699	1
4	971	283572.877727036699	0
4	977	283738.273338457957	1
4	987	284788.630194566095	0
4	990	285143.972814660565	1
4	995	285589.521443579514	0
4	1002	288518.106614010194	1
4	1004	288518.106614010194	0
4	1018	293941.678238477375	1
4	1020	293941.678238477375	0
4	1037	307599.509343335495	1
4	1039	307599.509343335495	0
4	1056	329993.856903788531	1
4	1058	329993.856903788531	0
4	1089	334010.857397225367	1
4	1091	334010.857397225367	0
4	1097	335793.479551995095	1
4	1099	335793.479551995095	0
4	1114	337202.214993079429	1
4	1116	337202.214993079429	0
4	1122	341072.755314677644	1
4	1124	341072.755314677644	0
4	1140	351753.353712858753	1
4	1142	351753.353712858753	0
4	1166	361929.46174547173	1
4	1168	361929.46174547173	0
4	1174	362690.927530639425	1
4	1184	363092.002686746454	0
4	1199	366434.948466778546	1
4	1201	366434.948466778546	0
4	1207	367934.622272269106	1
4	1209	367934.622272269106	0
4	1248	375606.487685105156	1
4	1250	375606.487685105156	0
4	1256	376850.30709103335	1
4	1258	376850.30709103335	0
4	1261	377498.520916840408	1
4	1266	377604.726449065653	0
4	1270	378229.480920371401	1
4	1275	378585.479577457184	0
4	1292	400000.282794347047	1
4	1294	400000.282794347047	0
4	1309	405762.929767782091	1
4	1311	405762.929767782091	0
4	1335	416859.560443932864	1
4	1337	416859.560443932864	0
4	1343	418831.408990321834	1
4	1345	418831.408990321834	0
4	1361	430639.556384888418	1
4	1363	430639.556384888418	0
4	1379	439854.440917842352	1
4	1381	439854.440917842352	0
4	1403	443865.362810371176	1
4	1405	443865.362810371176	0
4	1412	447030.754349647032	1
4	1414	447030.754349647032	0
4	1429	451774.514474710466	1
4	1431	451774.514474710466	0
4	1455	467487.696874592576	1
4	1457	467487.696874592576	0
4	1464	469933.010656428454	1
4	1466	469933.010656428454	0
4	1482	485985.503868751586	1
4	1484	485985.503868751586	0
4	1500	493795.135265387898	1
4	1502	493795.135265387898	0
4	1518	508433.740750942972	1
4	1520	508433.740750942972	0
4	1536	516218.268032617307	1
4	1538	516218.268032617307	0
4	1556	540943.65601819707	1
4	1558	540943.65601819707	0
4	1572	545656.871972821739	1
4	1574	545656.871972821739	0
4	1598	555241.880595925682	1
4	1600	555241.880595925682	0
4	1603	555688.833620396737	1
4	1608	556319.405570367968	0
4	1624	567521.729239796781	1
4	1626	567521.729239796781	0
4	1650	576797.530416675753	1
4	1652	576797.530416675753	0
4	1666	580559.68694890711	1
4	1668	580559.68694890711	0
4	1675	582476.460119854802	1
4	1677	582476.460119854802	0
4	1692	592398.507472938866	1
4	1694	592398.507472938866	0
4	1709	596620.913468323232	1
4	1711	596620.913468323232	0
4	1735	608445.923422384161	1
4	1737	608445.923422384161	0
4	1740	609432.290957986901	1
4	1745	609486.048350383288	0
4	1760	615567.019501559429	1
4	1762	615567.019501559429	0
4	1779	631962.569328942376	1
4	1781	631962.569328942376	0
4	1796	640511.980467837693	1
4	1798	640511.980467837693	0
4	1813	645343.33184345915	1
4	1815	645343.33184345915	0
4	1830	649717.443599973884	1
4	1832	649717.443599973884	0
4	1847	654749.008138131724	1
4	1849	654749.008138131724	0
4	1871	658606.514195995559	1
4	1873	658606.514195995559	0
4	1879	659729.312371124132	1
4	1881	659729.312371124132	0
4	1896	665386.261784022678	1
4	1898	665386.261784022678	0
4	1914	673868.287708258946	1
4	1916	673868.287708258946	0
4	1948	686501.181142418252	1
4	1950	686501.181142418252	0
4	1953	687063.206047758649	1
4	1958	687441.882220369378	0
4	1961	688229.726672605475	1
4	1966	688362.851723982324	0
4	1981	693134.957850607452	1
4	1983	693134.957850607452	0
4	2007	707911.635909084792	1
4	2009	707911.635909084792	0
4	2016	711287.689895684231	1
4	2018	711287.689895684231	0
4	2033	718762.347000778576	1
4	2035	718762.347000778576	0
4	2051	726692.241764824932	1
4	2053	726692.241764824932	0
4	2068	733924.255049811342	1
4	2070	733924.255049811342	0
4	2101	739067.792757592974	1
4	2103	739067.792757592974	0
4	2117	740707.28955141867	1
4	2119	740707.28955141867	0
4	2122	741596.110889399787	1
4	2127	741678.439207818629	0
4	2142	744154.71323575098	1
4	2144	744154.71323575098	0
4	2150	746282.670652589406	1
4	2152	746282.670652589406	0
4	2184	761966.203759123611	1
4	2186	761966.203759123611	0
4	2193	763848.092952209279	1
4	2195	763848.092952209279	0
4	2201	766113.144580593615	1
4	2203	766113.144580593615	0
4	2220	785532.276861324149	1
4	2222	785532.276861324149	0
4	2245	789733.95928954406	1
4	2247	789733.95928954406	0
4	2262	793458.818311923779	1
4	2264	793458.818311923779	0
4	2278	795245.148615107958	1
4	2280	795245.148615107958	0
4	2287	798913.030617841174	1
4	2289	798913.030617841174	0
4	2312	806769.587988388808	1
4	2314	806769.587988388808	0
4	2317	807209.269257377532	1
4	2322	807604.613037583266	0
4	2337	815869.062724314851	1
4	2339	815869.062724314851	0
4	2356	831700.016799322455	1
4	2358	831700.016799322455	0
4	2381	839864.932006570553	1
4	2383	839864.932006570553	0
4	2387	840551.450585081283	1
4	2392	840790.10072647585	0
4	2406	845593.520337489152	1
4	2408	845593.520337489152	0
4	2432	856539.796720966723	1
4	2434	856539.796720966723	0
4	2441	858536.071912649537	1
4	2443	858536.071912649537	0
4	2473	907110.728011872527	1
4	2475	907110.728011872527	0
4	2481	910449.637636775944	1
4	2483	910449.637636775944	0
4	2498	914622.961096613645	1
4	2500	914622.961096613645	0
4	2523	921660.195491438968	1
4	2525	921660.195491438968	0
4	2528	921761.523489013343	1
4	2533	922587.024456421428	0
4	2550	937318.559006538874	1
4	2552	937318.559006538874	0
4	2575	945367.151707654434	1
4	2577	945367.151707654434	0
4	2583	946435.357876345114	1
4	2585	946435.357876345114	0
4	2611	971241.59631878083	1
4	2613	971241.59631878083	0
4	2628	973985.317345742255	1
4	2630	973985.317345742255	0
4	2636	976355.523561614659	1
4	2638	976355.523561614659	0
4	2653	981277.778810158377	1
4	2655	981277.778810158377	0
4	2670	986065.244127972946	1
4	2672	986065.244127972946	0
4	2692	992607.404424335057	1
4	2697	992850.171681171455	0
4	2712	996256.339505604047	1
4	2714	996256.339505604047	0
4	2720	999257.338267916339	1
4	2722	999257.338267916339	0
4	2746	1009075.058693244864	1
4	2748	1009075.058693244864	0
4	2754	1011958.952199321017	1
4	2756	1011958.952199321017	0
4	2779	1019269.162159967651	1
4	2781	1019269.162159967651	0
4	2796	1021729.414578163705	1
4	2798	1021729.414578163705	0
4	2804	1024464.218510291103	1
4	2806	1024464.218510291103	0
4	2837	1031190.688062808801	1
4	2839	1031190.688062808801	0
4	2842	1031966.504791422344	1
4	2848	1032034.289060714864	0
4	2854	1033948.301432886967	1
4	2856	1033948.301432886967	0
4	2871	1040209.15721557139	1
4	2873	1040209.15721557139	0
4	2897	1054447.608628303626	1
4	2899	1054447.608628303626	0
4	2905	1055530.825433936323	1
4	2907	1055530.825433936323	0
4	2930	1060087.028896474392	1
4	2932	1060087.028896474392	0
4	2939	1063109.242543757081	1
4	2941	1063109.242543757081	0
5	642	204000	0
5	659	210000	2
5	700	216000	2
5	738	222000	2
5	763	228000	1
5	791	234000	3
5	829	240000	2
5	862	246000	2
5	874	252000	0
5	883	258000	1
5	892	264000	0
5	906	270000	1
5	923	276000	1
5	967	282000	4
5	1000	288000	1
5	1022	294000	1
5	1026	300000	0
5	1035	306000	1
5	1044	312000	0
5	1045	318000	0
5	1046	324000	0
5	1060	330000	1
5	1104	336000	3
5	1129	342000	1
5	1138	348000	1
5	1147	354000	0
5	1164	360000	2
5	1197	366000	2
5	1219	372000	0
5	1268	378000	4
5	1280	384000	0
5	1281	390000	0
5	1287	396000	0
5	1304	402000	1
5	1316	408000	1
5	1325	414000	1
5	1350	420000	1
5	1351	426000	0
5	1368	432000	1
5	1377	438000	1
5	1407	444000	2
5	1427	450000	1
5	1436	456000	0
5	1437	462000	0
5	1459	468000	2
5	1471	474000	0
5	1472	480000	0
5	1486	486000	1
5	1498	492000	1
5	1507	498000	0
5	1508	504000	0
5	1525	510000	1
5	1534	516000	1
5	1543	522000	0
5	1544	528000	0
5	1545	534000	0
5	1554	540000	1
5	1576	546000	1
5	1588	552000	1
5	1613	558000	1
5	1619	564000	0
5	1631	570000	1
5	1640	576000	1
5	1673	582000	2
5	1682	588000	0
5	1707	594000	2
5	1716	600000	0
5	1730	606000	1
5	1758	612000	2
5	1767	618000	0
5	1768	624000	0
5	1777	630000	1
5	1786	636000	0
5	1808	642000	1
5	1828	648000	2
5	1845	654000	1
5	1883	660000	2
5	1900	666000	1
5	1912	672000	1
5	1921	678000	0
5	1938	684000	2
5	1979	690000	2
5	1988	696000	0
5	1989	702000	0
5	2011	708000	2
5	2023	714000	0
5	2040	720000	1
5	2049	726000	1
5	2066	732000	1
5	2099	738000	3
5	2140	744000	2
5	2157	750000	0
5	2158	756000	0
5	2188	762000	3
5	2208	768000	0
5	2209	774000	0
5	2210	780000	0
5	2224	786000	1
5	2260	792000	3
5	2285	798000	1
5	2310	804000	2
5	2327	810000	0
5	2341	816000	1
5	2345	822000	0
5	2351	828000	0
5	2363	834000	1
5	2385	840000	2
5	2410	846000	1
5	2414	852000	0
5	2439	858000	2
5	2448	864000	0
5	2449	870000	0
5	2450	876000	0
5	2451	882000	0
5	2452	888000	0
5	2453	894000	0
5	2454	900000	0
5	2463	906000	1
5	2496	912000	2
5	2513	918000	1
5	2538	924000	1
5	2539	930000	0
5	2548	936000	1
5	2565	942000	1
5	2590	948000	1
5	2591	954000	0
5	2592	960000	0
5	2593	966000	0
5	2615	972000	2
5	2651	978000	2
5	2668	984000	1
5	2685	990000	1
5	2710	996000	2
5	2727	1002000	0
5	2736	1008000	1
5	2761	1014000	1
5	2786	1020000	2
5	2811	1026000	1
5	2844	1032000	3
5	2869	1038000	1
5	2878	1044000	0
5	2879	1050000	0
5	2909	1056000	2
5	2937	1062000	2
6	642	204000	1
6	659	210000	0
6	700	216000	3
6	738	222000	2
6	763	228000	2
6	791	234000	1
6	829	240000	2
6	862	246000	2
6	874	252000	2
6	883	258000	0
6	892	264000	1
6	906	270000	0
6	923	276000	1
6	967	282000	2
6	1000	288000	3
6	1022	294000	1
6	1026	300000	1
6	1035	306000	0
6	1044	312000	1
6	1045	318000	0
6	1046	324000	0
6	1060	330000	0
6	1104	336000	2
6	1129	342000	3
6	1138	348000	0
6	1147	354000	1
6	1164	360000	0
6	1197	366000	2
6	1219	372000	2
6	1268	378000	2
6	1280	384000	2
6	1281	390000	0
6	1287	396000	0
6	1304	402000	1
6	1316	408000	1
6	1325	414000	0
6	1350	420000	2
6	1351	426000	0
6	1368	432000	1
6	1377	438000	0
6	1407	444000	1
6	1427	450000	2
6	1436	456000	1
6	1437	462000	0
6	1459	468000	0
6	1471	474000	2
6	1472	480000	0
6	1486	486000	0
6	1498	492000	1
6	1507	498000	1
6	1508	504000	0
6	1525	510000	1
6	1534	516000	0
6	1543	522000	1
6	1544	528000	0
6	1545	534000	0
6	1554	540000	0
6	1576	546000	1
6	1588	552000	1
6	1613	558000	2
6	1619	564000	0
6	1631	570000	1
6	1640	576000	0
6	1673	582000	2
6	1682	588000	1
6	1707	594000	1
6	1716	600000	1
6	1730	606000	0
6	1758	612000	2
6	1767	618000	1
6	1768	624000	0
6	1777	630000	0
6	1786	636000	1
6	1808	642000	1
6	1828	648000	1
6	1845	654000	1
6	1883	660000	2
6	1900	666000	1
6	1912	672000	1
6	1921	678000	1
6	1938	684000	0
6	1979	690000	3
6	1988	696000	1
6	1989	702000	0
6	2011	708000	0
6	2023	714000	2
6	2040	720000	1
6	2049	726000	0
6	2066	732000	1
6	2099	738000	1
6	2140	744000	3
6	2157	750000	2
6	2158	756000	0
6	2188	762000	0
6	2208	768000	3
6	2209	774000	0
6	2210	780000	0
6	2224	786000	0
6	2260	792000	2
6	2285	798000	2
6	2310	804000	1
6	2327	810000	2
6	2341	816000	0
6	2345	822000	1
6	2351	828000	0
6	2363	834000	1
6	2385	840000	0
6	2410	846000	2
6	2414	852000	1
6	2439	858000	1
6	2448	864000	1
6	2449	870000	0
6	2450	876000	0
6	2451	882000	0
6	2452	888000	0
6	2453	894000	0
6	2454	900000	0
6	2463	906000	0
6	2496	912000	2
6	2513	918000	1
6	2538	924000	2
6	2539	930000	0
6	2548	936000	0
6	2565	942000	1
6	2590	948000	2
6	2591	954000	0
6	2592	960000	0
6	2593	966000	0
6	2615	972000	0
6	2651	978000	3
6	2668	984000	1
6	2685	990000	1
6	2710	996000	1
6	2727	1002000	2
6	2736	1008000	0
6	2761	1014000	2
6	2786	1020000	0
6	2811	1026000	3
6	2844	1032000	0
6	2869	1038000	3
6	2878	1044000	1
6	2879	1050000	0
6	2909	1056000	1
6	2937	1062000	2
7	634	200735.706980934239	0
7	649	208864.929296947381	1
7	657	209235.692577187397	2
7	666	211044.130656795051	3
7	668	212447.773524784567	2
7	673	213008.521305308227	1
7	681	214276.91800598605	0
7	698	215553.593857491075	1
7	707	216590.812549961948	2
7	709	219678.664018465459	1
7	714	220036.13810208004	0
7	734	221769.576030233022	1
7	740	222109.198682467271	2
7	742	225408.663372989747	1
7	747	225620.756976299526	0
7	765	228172.615332965683	1
7	767	231819.780020568032	0
7	784	232950.965045680277	1
7	789	233284.883356986888	2
7	798	234673.443650034856	3
7	805	236853.937493964239	2
7	808	236920.681992601949	1
7	812	236944.569805007817	2
7	824	239332.845436867536	1
7	830	240163.289798949829	0
7	847	241976.261491815536	1
7	855	242393.849796324866	2
7	857	245612.176948725275	1
7	863	246404.491433598156	0
7	881	256912.172787866371	1
7	884	260504.706367624355	0
7	899	265455.202759113304	1
7	901	269391.562115903005	0
7	916	272503.351289915566	1
7	925	276098.134164660706	2
7	927	276225.025602537536	1
7	944	280120.676990924493	2
7	948	280317.750556343164	1
7	952	280474.281484518419	2
7	965	281736.680914812108	3
7	968	283572.877727036699	2
7	976	283738.273338457957	1
7	985	284788.630194566095	2
7	989	285143.972814660565	1
7	1001	288518.106614010194	0
7	1015	289653.489135215117	1
7	1017	293941.678238477375	0
7	1033	304187.400090181277	1
7	1036	307599.509343335495	0
7	1053	326863.984846310954	1
7	1055	329993.856903788531	0
7	1070	330990.23901448101	1
7	1078	332288.885543067883	2
7	1086	333476.384654875884	3
7	1088	334010.857397225367	2
7	1096	335793.479551995095	1
7	1111	337000.963855063463	2
7	1113	337202.214993079429	1
7	1121	341072.755314677644	0
7	1136	347550.218642607162	1
7	1139	351753.353712858753	0
7	1154	357987.767392308977	1
7	1162	359004.721088390151	2
7	1165	361929.46174547173	1
7	1173	362690.927530639425	0
7	1182	363092.002686746454	1
7	1195	364977.953613731013	2
7	1198	366434.948466778546	1
7	1206	367934.622272269106	0
7	1221	372099.931864888191	1
7	1232	373286.533826024256	2
7	1237	373628.477009799786	3
7	1245	374880.165715464956	4
7	1247	375606.487685105156	3
7	1255	376850.30709103335	2
7	1260	377498.520916840408	1
7	1269	378229.480920371401	0
7	1289	396061.406400896918	1
7	1291	400000.282794347047	0
7	1306	402213.382721993746	1
7	1308	405762.929767782091	0
7	1323	413373.576352092061	1
7	1332	415297.16313662712	2
7	1334	416859.560443932864	1
7	1342	418831.408990321834	0
7	1358	427029.954511322175	1
7	1360	430639.556384888418	0
7	1375	436179.165850319711	1
7	1378	439854.440917842352	0
7	1392	441021.67202702785	1
7	1400	443228.232243250014	2
7	1402	443865.362810371176	1
7	1411	447030.754349647032	0
7	1425	448295.576316509358	1
7	1428	451774.514474710466	0
7	1444	464020.160996610428	1
7	1452	466302.748801760079	2
7	1454	467487.696874592576	1
7	1463	469933.010656428454	0
7	1479	482245.365814156218	1
7	1481	485985.503868751586	0
7	1496	490510.383521231812	1
7	1499	493795.135265387898	0
7	1515	504611.688821860026	1
7	1517	508433.740750942972	0
7	1532	512230.770703691826	1
7	1535	516218.268032617307	0
7	1552	538050.406831305707	1
7	1555	540943.65601819707	0
7	1569	542267.089442412362	1
7	1571	545656.871972821739	0
7	1586	551750.23688907067	1
7	1595	552817.615693311412	2
7	1597	555241.880595925682	1
7	1602	555688.833620396737	0
7	1621	564067.757398551505	1
7	1623	567521.729239796781	0
7	1638	573613.873017678309	1
7	1647	576788.886877364337	2
7	1649	576797.530416675753	1
7	1663	578627.87918046996	2
7	1665	580559.68694890711	1
7	1674	582476.460119854802	0
7	1689	589013.091518332051	1
7	1691	592398.507472938866	0
7	1705	593613.206524580126	1
7	1708	596620.913468323232	0
7	1723	604524.684806126308	1
7	1732	606038.317689705195	2
7	1734	608445.923422384161	1
7	1739	609432.290957986901	0
7	1756	611856.967039011459	1
7	1759	615567.019501559429	0
7	1775	628709.141277497111	1
7	1778	631962.569328942376	0
7	1793	636713.028112026115	1
7	1795	640511.980467837693	0
7	1810	642104.637645174033	1
7	1812	645343.33184345915	0
7	1826	646504.144721470206	1
7	1829	649717.443599973884	0
7	1843	651445.309386118318	1
7	1846	654749.008138131724	0
7	1863	656035.161807541831	1
7	1868	656290.089664954262	2
7	1870	658606.514195995559	1
7	1878	659729.312371124132	0
7	1893	661008.883868391938	1
7	1895	665386.261784022678	0
7	1910	670325.731048412618	1
7	1913	673868.287708258946	0
7	1928	682597.920818992461	1
7	1936	683515.786601646372	2
7	1945	684616.294198748976	3
7	1947	686501.181142418252	2
7	1952	687063.206047758649	1
7	1960	688229.726672605475	0
7	1977	689496.655059861395	1
7	1980	693134.957850607452	0
7	1996	703984.096079447695	1
7	2004	707422.019964092303	2
7	2006	707911.635909084792	1
7	2015	711287.689895684231	0
7	2030	715407.116122573314	1
7	2032	718762.347000778576	0
7	2047	723000.350975212007	1
7	2050	726692.241764824932	0
7	2064	730965.512418030981	1
7	2067	733924.255049811342	0
7	2081	735144.472214442389	1
7	2089	737047.218552241309	2
7	2097	737574.857399431337	3
7	2100	739067.792757592974	2
7	2114	740666.041223059459	3
7	2116	740707.28955141867	2
7	2121	741596.110889399787	1
7	2138	742814.053938130214	2
7	2141	744154.71323575098	1
7	2149	746282.670652589406	0
7	2165	758515.815807208731	1
7	2173	760462.51355712693	2
7	2181	761694.122767784419	3
7	2183	761966.203759123611	2
7	2192	763848.092952209279	1
7	2200	766113.144580593615	0
7	2217	781742.461984995748	1
7	2219	785532.276861324149	0
7	2234	786666.787534685849	1
7	2242	789173.311977925274	2
7	2244	789733.95928954406	1
7	2258	791623.337403127118	2
7	2261	793458.818311923779	1
7	2275	794635.434391205184	2
7	2277	795245.148615107958	1
7	2286	798913.030617841174	0
7	2303	803356.065009409234	1
7	2308	803676.848545735712	2
7	2311	806769.587988388808	1
7	2316	807209.269257377532	0
7	2334	812321.361368577649	1
7	2336	815869.062724314851	0
7	2353	828250.111965704437	1
7	2355	831700.016799322455	0
7	2370	836804.384184915124	1
7	2378	837272.076677628764	2
7	2380	839864.932006570553	1
7	2386	840551.450585081283	0
7	2403	841922.058617235058	1
7	2405	845593.520337489152	0
7	2421	852537.403952987725	1
7	2429	854949.077212605226	2
7	2431	856539.796720966723	1
7	2440	858536.071912649537	0
7	2461	903302.872097528607	1
7	2470	906715.951340871703	2
7	2472	907110.728011872527	1
7	2480	910449.637636775944	0
7	2494	911660.039746464118	1
7	2497	914622.961096613645	0
7	2511	917953.031439924116	1
7	2520	918566.060356175664	2
7	2522	921660.195491438968	1
7	2527	921761.523489013343	0
7	2546	933733.244869807359	1
7	2549	937318.559006538874	0
7	2563	941633.718356062872	1
7	2572	943064.335343343876	2
7	2574	945367.151707654434	1
7	2582	946435.357876345114	0
7	2600	967729.443290329585	1
7	2608	969791.235105687801	2
7	2610	971241.59631878083	1
7	2625	973012.946832901901	2
7	2627	973985.317345742255	1
7	2635	976355.523561614659	0
7	2649	977608.800569835619	1
7	2652	981277.778810158377	0
7	2666	982589.571675070323	1
7	2669	986065.244127972946	0
7	2683	988942.712807566868	1
7	2691	992607.404424335057	0
7	2695	992850.171681171455	1
7	2708	995919.761348813723	2
7	2711	996256.339505604047	1
7	2719	999257.338267916339	0
7	2734	1005453.865443571158	1
7	2743	1008355.049729350269	2
7	2745	1009075.058693244864	1
7	2753	1011958.952199321017	0
7	2768	1015533.787333591981	1
7	2776	1017922.203001158146	2
7	2778	1019269.162159967651	1
7	2793	1020488.804719087412	2
7	2795	1021729.414578163705	1
7	2803	1024464.218510291103	0
7	2821	1027963.041653645572	1
7	2826	1028222.949621999138	2
7	2834	1030544.852811423886	3
7	2836	1031190.688062808801	2
7	2841	1031966.504791422344	1
7	2853	1033948.301432886967	0
7	2867	1036045.943994321528	1
7	2870	1040209.15721557139	0
7	2886	1050773.39967575945	1
7	2894	1052231.238245751012	2
7	2896	1054447.608628303626	1
7	2904	1055530.825433936323	0
7	2919	1056817.105195953962	1
7	2927	1059309.463107460664	2
7	2929	1060087.028896474392	1
7	2938	1063109.242543757081	0
