version 2
run ResponseMeasurement-5-20170110-19:42:22-22124
attr configname ResponseMeasurement
attr datetime 20170110-19:42:22
attr experiment ResponseMeasurement
attr inifile responseStudy.ini
attr iterationvars ""
attr iterationvars2 $repetition=5
attr measurement ""
attr network controltower.SimNetwork
attr processid 22124
attr repetition 5
attr replication #5
attr resultdir results
attr runnumber 5
attr seedset 5
param SimNetwork.a.parkingLot.parkingDelay "truncnormal(60min, 6min)"
param SimNetwork.a.runway.landingTime "truncnormal(5min, 0.5min)"
param SimNetwork.a.runway.takeoffTime "truncnormal(15min, 1.5min)"
param SimNetwork.a.runway.throughputCheckInterval 100min
param SimNetwork.wg.interArrivalTime exponential(100min)

vector 5  SimNetwork.a.runway  landedThroughput:vector  ETV
attr source  landedThroughputSignal
vector 6  SimNetwork.a.runway  tookoffThroughput:vector  ETV
attr source  tookoffThroughputSignal
vector 2  SimNetwork.a.landingQueue  queueLength:vector  ETV
attr source  queueLengthSignal
vector 1  SimNetwork.a.landingQueue  queueTime:vector  ETV
attr source  queueTimeSignal
vector 7  SimNetwork.a.parkingLot  parkingOccupancy:vector  ETV
attr source  parkingOccupancy
vector 4  SimNetwork.a.takeoffQueue  queueLength:vector  ETV
attr source  queueLengthSignal
vector 3  SimNetwork.a.takeoffQueue  queueTime:vector  ETV
attr source  queueTimeSignal
vector 0  SimNetwork.wg  responseTime:vector  ETV
attr source  responseTimeSignal
0	610	213954.776380448094	29789.969054473
0	638	235422.821254764148	26596.419697136
0	646	237785.313523736131	6979.7639830419
0	680	248016.504118379371	14702.624053864
0	696	250208.419544437628	6920.2208857998
0	704	251092.20013266797	5822.4768316368
0	716	253815.48612146598	8012.3134518212
0	730	259092.549283745554	10760.069960444
0	755	265611.230143035245	11938.317968059
0	763	267311.990951943805	5587.6797204366
0	791	273960.66886665218	11554.055449684
0	808	277251.927261173952	7495.7538042168
0	813	278076.428684865634	5598.2113806856
0	843	297637.548847931331	24558.32777633
0	848	298478.982431018334	5902.0275838952
0	869	328812.260023043094	35146.35650143
0	904	342390.219727002624	18504.900803543
0	912	343945.644434193611	6183.536700887
0	920	345875.646114639917	6264.349813866
0	937	352501.820426959189	11897.92883058
0	955	364102.157823436457	16676.965634317
0	991	369307.457144787232	10021.878348994
0	1007	371084.926521125861	5052.4470857973
0	1019	372011.535611482942	7152.67418606
0	1037	374173.859510118027	7697.7826931627
0	1048	376037.444866131714	7431.3755256604
0	1053	377022.544924989524	5847.1553882684
0	1094	390332.453938357353	18686.419995623
0	1099	391138.80948078786	6040.2981595142
0	1104	392049.676467598424	6782.5385099673
0	1140	399143.017541026622	12674.326024782
0	1145	400170.50008422432	6257.3421790562
0	1153	401107.71833644199	6185.8580848255
0	1171	409420.223344798918	13068.317723052
0	1212	415203.140091790756	10786.058357559
0	1223	416442.549514989027	6944.7067020036
0	1231	417364.967312829688	5722.8230402146
0	1236	418076.958161958924	5777.6103319191
0	1254	429633.651324908872	16525.939283824
0	1290	436573.735310785972	12912.807275642
0	1301	437517.94469256377	6347.2946602004
0	1312	438569.371921711979	6373.984442406
0	1320	442412.505568995839	8947.9281964946
0	1349	469015.033574040172	32241.653203361
0	1357	471681.789750157962	7243.9669569618
0	1391	480490.573738489865	13654.870168376
0	1415	482124.320681822939	6281.5016009832
0	1434	484222.022148312653	7300.540601404
0	1442	484994.529437910643	4488.2538366062
0	1447	485925.384956035113	6594.7266141057
0	1456	487718.09669405745	7044.3342782724
0	1474	498015.805376788323	15128.275407148
0	1501	516239.051235819789	22704.312147279
0	1512	518713.457091006856	7192.9903319374
0	1537	523644.459239153523	9550.1076228954
0	1542	524520.056330272266	5955.5407302197
0	1567	533979.372029952827	15180.278491021
0	1576	535488.163509137939	6778.4469027521
0	1594	547364.334580536951	16548.778317855
0	1622	555066.713078189272	12756.519014844
0	1627	555926.555196992123	5991.4129537614
0	1644	561539.654897398743	11249.039187864
0	1674	579261.514937137916	22617.478498718
0	1679	580382.555897072851	6237.0783008516
0	1708	611502.58049982176	35864.241916167
0	1717	614128.983566670245	7459.5644070702
0	1742	621568.538540716953	11950.106681602
0	1750	623757.228751038178	6851.636178757
0	1771	633444.123587011705	14753.046811399
0	1785	638481.54375067896	9085.4851697506
0	1812	655234.117314099301	21851.905220003
0	1820	658038.525966916258	7237.2573973979
0	1837	664018.009365671238	11085.403121006
0	1856	678588.230211583836	19634.024613223
0	1873	684923.709025185576	11176.526882557
0	1890	690420.331434483321	10290.825098546
0	1907	700185.309537874217	14731.499177318
0	1935	706175.04424776633	10807.692558335
0	1940	707177.789848030676	6383.0032589514
0	1959	725131.028569664653	23002.921899015
0	1976	731210.406669828224	10428.682137853
0	2015	737062.879442424896	4426.2250465286
0	2021	738056.01712662987	12240.629288132
0	2026	739014.758497365036	6503.4474984336
0	2043	748758.992501666288	15836.23001928
0	2061	758570.259683088696	14614.798838271
0	2079	772562.230378437114	18414.372720469
0	2104	779506.959134931534	11863.739566381
0	2113	782288.408784872752	7628.5490749163
0	2131	794385.29406466907	16943.429209934
0	2162	802636.715765427414	12890.851383362
0	2172	803815.551782110841	5838.5575893257
0	2189	807765.942702479488	8702.9448043866
0	2197	808728.711791851718	6271.9148711792
0	2220	830627.716182659337	26744.977367285
0	2256	836080.667105320123	10319.761459906
0	2261	837078.208716204782	5842.2013884505
0	2266	837918.36942644709	7856.635430349
0	2286	843396.723432874967	11843.741265638
0	2300	848400.995140829928	10327.301189807
0	2325	856687.091515440348	13319.625099549
0	2334	858839.333458586657	7103.8839541644
0	2352	872853.146170837778	18473.401666555
0	2377	879127.844173497151	11152.660625162
0	2385	881372.901917584815	6945.2049572646
0	2403	892985.452687687807	16355.549772767
0	2428	897648.771162619089	10393.885601141
0	2436	899338.197130930512	6134.5537427666
0	2456	918372.557500911635	23407.264894924
0	2482	932642.611503853369	18872.271193924
0	2490	935601.791444461312	7809.991894877
0	2516	943026.999690617006	12019.240959702
0	2524	945512.116190772852	7297.1701753082
0	2549	953616.46498499674	12968.673958407
0	2558	957104.798696901336	8962.8312914732
0	2587	969985.947741431665	17636.436341885
0	2592	970900.427755304244	5793.9810253448
0	2618	979978.521076887091	14820.862227723
0	2626	981828.61936880225	6787.1551889761
0	2652	991402.839803823531	13414.862666211
0	2660	994732.858423039086	7825.1962699981
0	2678	1002062.03132277774	12657.810109922
0	2696	1015532.442807970825	18561.948298941
0	2734	1032503.801359143101	21477.164004002
0	2742	1033287.807652577959	5812.2032159208
0	2755	1034831.766167450347	6781.9278395165
0	2783	1038472.398230547203	8098.1738362256
0	2788	1039382.262022563938	6610.642063797
0	2804	1041170.684506381202	6101.2246046243
0	2813	1044589.910625153211	8465.1016305105
0	2838	1053903.766794864833	13929.343998797
0	2847	1056196.245658359135	8081.4760337294
1	598	208826.401557628366	0
1	618	230805.549540694262	0
1	626	233313.880064515679	0
1	652	243288.198658637843	0
1	660	245269.723301031216	0
1	668	245803.172669644807	0
1	685	248332.479323301573	0
1	718	253815.48612146598	142.57394649023
1	735	261724.311231507239	0
1	743	262406.613416968116	0
1	768	269756.173456957122	0
1	777	272478.217304179987	0
1	793	273960.66886665218	881.44779505068
1	820	292576.954847123112	0
1	828	293665.903521612989	0
1	857	323885.318923459305	0
1	876	337762.107733306589	0
1	884	339611.296300773944	0
1	892	340603.891596379281	0
1	925	347425.192189119475	0
1	943	359285.578795793615	0
1	960	364858.861425422919	0
1	969	366032.479435328551	0
1	977	366476.076816955285	0
1	993	369307.457144787232	701.38780431597
1	1021	372011.535611482942	836.14607476183
1	1026	372305.964953064483	659.93101032966
1	1060	385098.511321273623	0
1	1068	385444.979901303314	177.8419436722
1	1076	386468.691516244327	0
1	1109	393913.157905168101	0
1	1117	394921.860251616457	0
1	1126	396351.905621746649	0
1	1159	404417.081734231735	0
1	1176	409497.842812985469	0
1	1184	411642.144272615135	0
1	1192	412299.347830039791	0
1	1200	413107.712041084589	0
1	1242	423660.928035143633	0
1	1259	431170.650032363339	0
1	1268	432195.387479305938	0
1	1276	433464.577372501286	0
1	1303	437517.94469256377	744.56432188495
1	1329	464437.822793196168	0
1	1337	466835.703570114202	0
1	1363	475842.819080839776	0
1	1371	476921.481546908618	0
1	1379	479330.658341929419	0
1	1396	480506.275601304439	0
1	1407	480796.161673903944	122.39925811884
1	1420	482887.529969640178	0
1	1462	493534.739088540804	0
1	1481	511520.466759069406	0
1	1489	514094.351616258129	0
1	1514	518713.457091006856	148.9414909543
1	1522	519045.227111462074	246.13357253024
1	1548	528709.716606385809	0
1	1556	530815.556262681917	0
1	1582	542310.194063344891	0
1	1599	549935.142243230675	0
1	1607	550290.615709534696	0
1	1632	556644.036438419914	0
1	1651	574145.47759622129	0
1	1659	575638.338583654857	0
1	1689	606669.419159600021	0
1	1697	609618.431859114905	0
1	1722	616905.592572281197	0
1	1731	618691.076775612373	0
1	1756	629396.058580928351	0
1	1773	633444.123587011705	61.911492915467
1	1792	650801.268569518328	0
1	1800	652932.606244665096	0
1	1825	658954.205598361252	0
1	1844	673747.182142628826	0
1	1861	680129.506335937122	0
1	1878	685453.810360556202	0
1	1895	695367.351689431366	0
1	1912	700794.786589079242	0
1	1921	702128.106670649931	0
1	1948	720781.724531975531	0
1	1964	725815.387838497459	0
1	1982	732511.310998931403	0
1	1990	732794.084890185905	157.43049428956
1	1998	733145.053834446372	222.29135206001
1	2031	743955.460844818047	0
1	2049	754147.857657968257	0
1	2067	767643.219568550267	0
1	2085	774659.859709956475	0
1	2093	777441.864854734797	0
1	2119	789745.864382065263	0
1	2136	797976.994192785121	0
1	2145	799062.997898092855	0
1	2164	802636.715765427414	179.91884475494
1	2177	803882.738815374042	0
1	2205	825760.90564541443	0
1	2222	830627.716182659337	565.98218656125
1	2230	831236.007327754242	0
1	2238	831552.98216723667	0
1	2271	838073.693951022924	0
1	2288	843396.723432874967	29.257016983251
1	2305	851735.449504422304	0
1	2314	854379.744504283064	0
1	2340	867975.183548334884	0
1	2357	874427.696960320178	0
1	2366	876629.902914920834	0
1	2391	887254.88556147844	0
1	2408	893203.643388163918	0
1	2417	894965.292605987138	0
1	2444	913770.340309929174	0
1	2462	927791.799549584332	0
1	2471	931007.75873091492	0
1	2496	938214.946015464618	0
1	2504	940647.79102658988	0
1	2530	948141.967405428142	0
1	2538	952349.511399546633	0
1	2564	965106.446729959401	0
1	2572	965396.466026564331	238.80717740042
1	2598	975041.464179826114	0
1	2606	977987.977137612779	0
1	2632	986907.662153040957	0
1	2640	989404.221212856071	0
1	2666	996970.494509030203	0
1	2684	1011026.637355141579	0
1	2703	1027475.604436657141	0
1	2711	1028049.838327933811	0
1	2719	1030374.224394321588	0
1	2744	1033287.807652577959	516.18769381104
1	2760	1035069.459901756943	0
1	2768	1036124.808994642743	0
1	2793	1039974.422796067632	0
1	2818	1048114.769624629728	0
1	2827	1051434.35086968212	0
2	596	208826.401557628366	1
2	598	208826.401557628366	0
2	616	230805.549540694262	1
2	618	230805.549540694262	0
2	624	233313.880064515679	1
2	626	233313.880064515679	0
2	650	243288.198658637843	1
2	652	243288.198658637843	0
2	658	245269.723301031216	1
2	660	245269.723301031216	0
2	666	245803.172669644807	1
2	668	245803.172669644807	0
2	683	248332.479323301573	1
2	685	248332.479323301573	0
2	713	253672.912174975753	1
2	718	253815.48612146598	0
2	733	261724.311231507239	1
2	735	261724.311231507239	0
2	741	262406.613416968116	1
2	743	262406.613416968116	0
2	766	269756.173456957122	1
2	768	269756.173456957122	0
2	775	272478.217304179987	1
2	777	272478.217304179987	0
2	788	273079.221071601504	1
2	793	273960.66886665218	0
2	818	292576.954847123112	1
2	820	292576.954847123112	0
2	826	293665.903521612989	1
2	828	293665.903521612989	0
2	855	323885.318923459305	1
2	857	323885.318923459305	0
2	874	337762.107733306589	1
2	876	337762.107733306589	0
2	882	339611.296300773944	1
2	884	339611.296300773944	0
2	890	340603.891596379281	1
2	892	340603.891596379281	0
2	923	347425.192189119475	1
2	925	347425.192189119475	0
2	941	359285.578795793615	1
2	943	359285.578795793615	0
2	958	364858.861425422919	1
2	960	364858.861425422919	0
2	967	366032.479435328551	1
2	969	366032.479435328551	0
2	975	366476.076816955285	1
2	977	366476.076816955285	0
2	988	368606.069340471265	1
2	993	369307.457144787232	0
2	1012	371175.389536721112	1
2	1015	371646.033942734827	2
2	1021	372011.535611482942	1
2	1026	372305.964953064483	0
2	1058	385098.511321273623	1
2	1060	385098.511321273623	0
2	1063	385267.137957631113	1
2	1068	385444.979901303314	0
2	1074	386468.691516244327	1
2	1076	386468.691516244327	0
2	1107	393913.157905168101	1
2	1109	393913.157905168101	0
2	1115	394921.860251616457	1
2	1117	394921.860251616457	0
2	1124	396351.905621746649	1
2	1126	396351.905621746649	0
2	1157	404417.081734231735	1
2	1159	404417.081734231735	0
2	1174	409497.842812985469	1
2	1176	409497.842812985469	0
2	1182	411642.144272615135	1
2	1184	411642.144272615135	0
2	1190	412299.347830039791	1
2	1192	412299.347830039791	0
2	1198	413107.712041084589	1
2	1200	413107.712041084589	0
2	1240	423660.928035143633	1
2	1242	423660.928035143633	0
2	1257	431170.650032363339	1
2	1259	431170.650032363339	0
2	1266	432195.387479305938	1
2	1268	432195.387479305938	0
2	1274	433464.577372501286	1
2	1276	433464.577372501286	0
2	1295	436773.380370678824	1
2	1303	437517.94469256377	0
2	1327	464437.822793196168	1
2	1329	464437.822793196168	0
2	1335	466835.703570114202	1
2	1337	466835.703570114202	0
2	1361	475842.819080839776	1
2	1363	475842.819080839776	0
2	1369	476921.481546908618	1
2	1371	476921.481546908618	0
2	1377	479330.658341929419	1
2	1379	479330.658341929419	0
2	1394	480506.275601304439	1
2	1396	480506.275601304439	0
2	1402	480673.762415785099	1
2	1407	480796.161673903944	0
2	1418	482887.529969640178	1
2	1420	482887.529969640178	0
2	1460	493534.739088540804	1
2	1462	493534.739088540804	0
2	1479	511520.466759069406	1
2	1481	511520.466759069406	0
2	1487	514094.351616258129	1
2	1489	514094.351616258129	0
2	1509	518564.515600052561	1
2	1514	518713.457091006856	0
2	1517	518799.093538931835	1
2	1522	519045.227111462074	0
2	1546	528709.716606385809	1
2	1548	528709.716606385809	0
2	1554	530815.556262681917	1
2	1556	530815.556262681917	0
2	1580	542310.194063344891	1
2	1582	542310.194063344891	0
2	1597	549935.142243230675	1
2	1599	549935.142243230675	0
2	1605	550290.615709534696	1
2	1607	550290.615709534696	0
2	1630	556644.036438419914	1
2	1632	556644.036438419914	0
2	1649	574145.47759622129	1
2	1651	574145.47759622129	0
2	1657	575638.338583654857	1
2	1659	575638.338583654857	0
2	1687	606669.419159600021	1
2	1689	606669.419159600021	0
2	1695	609618.431859114905	1
2	1697	609618.431859114905	0
2	1720	616905.592572281197	1
2	1722	616905.592572281197	0
2	1729	618691.076775612373	1
2	1731	618691.076775612373	0
2	1754	629396.058580928351	1
2	1756	629396.058580928351	0
2	1768	633382.212094096238	1
2	1773	633444.123587011705	0
2	1790	650801.268569518328	1
2	1792	650801.268569518328	0
2	1798	652932.606244665096	1
2	1800	652932.606244665096	0
2	1823	658954.205598361252	1
2	1825	658954.205598361252	0
2	1842	673747.182142628826	1
2	1844	673747.182142628826	0
2	1859	680129.506335937122	1
2	1861	680129.506335937122	0
2	1876	685453.810360556202	1
2	1878	685453.810360556202	0
2	1893	695367.351689431366	1
2	1895	695367.351689431366	0
2	1910	700794.786589079242	1
2	1912	700794.786589079242	0
2	1919	702128.106670649931	1
2	1921	702128.106670649931	0
2	1946	720781.724531975531	1
2	1948	720781.724531975531	0
2	1962	725815.387838497459	1
2	1964	725815.387838497459	0
2	1980	732511.310998931403	1
2	1982	732511.310998931403	0
2	1985	732636.654395896344	1
2	1990	732794.084890185905	0
2	1993	732922.762482386363	1
2	1998	733145.053834446372	0
2	2029	743955.460844818047	1
2	2031	743955.460844818047	0
2	2047	754147.857657968257	1
2	2049	754147.857657968257	0
2	2065	767643.219568550267	1
2	2067	767643.219568550267	0
2	2083	774659.859709956475	1
2	2085	774659.859709956475	0
2	2091	777441.864854734797	1
2	2093	777441.864854734797	0
2	2117	789745.864382065263	1
2	2119	789745.864382065263	0
2	2134	797976.994192785121	1
2	2136	797976.994192785121	0
2	2143	799062.997898092855	1
2	2145	799062.997898092855	0
2	2156	802456.796920672475	1
2	2164	802636.715765427414	0
2	2175	803882.738815374042	1
2	2177	803882.738815374042	0
2	2203	825760.90564541443	1
2	2205	825760.90564541443	0
2	2217	830061.733996098083	1
2	2222	830627.716182659337	0
2	2228	831236.007327754242	1
2	2230	831236.007327754242	0
2	2236	831552.98216723667	1
2	2238	831552.98216723667	0
2	2269	838073.693951022924	1
2	2271	838073.693951022924	0
2	2283	843367.466415891716	1
2	2288	843396.723432874967	0
2	2303	851735.449504422304	1
2	2305	851735.449504422304	0
2	2312	854379.744504283064	1
2	2314	854379.744504283064	0
2	2338	867975.183548334884	1
2	2340	867975.183548334884	0
2	2355	874427.696960320178	1
2	2357	874427.696960320178	0
2	2364	876629.902914920834	1
2	2366	876629.902914920834	0
2	2389	887254.88556147844	1
2	2391	887254.88556147844	0
2	2406	893203.643388163918	1
2	2408	893203.643388163918	0
2	2415	894965.292605987138	1
2	2417	894965.292605987138	0
2	2442	913770.340309929174	1
2	2444	913770.340309929174	0
2	2460	927791.799549584332	1
2	2462	927791.799549584332	0
2	2469	931007.75873091492	1
2	2471	931007.75873091492	0
2	2494	938214.946015464618	1
2	2496	938214.946015464618	0
2	2502	940647.79102658988	1
2	2504	940647.79102658988	0
2	2528	948141.967405428142	1
2	2530	948141.967405428142	0
2	2536	952349.511399546633	1
2	2538	952349.511399546633	0
2	2562	965106.446729959401	1
2	2564	965106.446729959401	0
2	2567	965157.658849163912	1
2	2572	965396.466026564331	0
2	2596	975041.464179826114	1
2	2598	975041.464179826114	0
2	2604	977987.977137612779	1
2	2606	977987.977137612779	0
2	2630	986907.662153040957	1
2	2632	986907.662153040957	0
2	2638	989404.221212856071	1
2	2640	989404.221212856071	0
2	2664	996970.494509030203	1
2	2666	996970.494509030203	0
2	2682	1011026.637355141579	1
2	2684	1011026.637355141579	0
2	2701	1027475.604436657141	1
2	2703	1027475.604436657141	0
2	2709	1028049.838327933811	1
2	2711	1028049.838327933811	0
2	2717	1030374.224394321588	1
2	2719	1030374.224394321588	0
2	2739	1032771.619958766923	1
2	2744	1033287.807652577959	0
2	2758	1035069.459901756943	1
2	2760	1035069.459901756943	0
2	2766	1036124.808994642743	1
2	2768	1036124.808994642743	0
2	2791	1039974.422796067632	1
2	2793	1039974.422796067632	0
2	2816	1048114.769624629728	1
2	2818	1048114.769624629728	0
2	2825	1051434.35086968212	1
2	2827	1051434.35086968212	0
3	607	213046.352119809185	0
3	635	234480.458011156314	0
3	643	236897.375308906649	0
3	677	247108.102317600938	0
3	693	249254.724041279991	0
3	701	250299.847860822644	0
3	710	252942.588214173892	0
3	727	258016.52445176429	0
3	752	264728.162826254863	0
3	760	266325.199019721942	0
3	785	273031.787971459539	0
3	802	276316.101936685524	0
3	810	277251.927261173952	250.56784362667
3	837	296895.701319464201	0
3	845	297637.548847931331	625.57811238878
3	866	327812.651439934555	0
3	900	341578.164400588455	0
3	909	343211.745074586263	0
3	917	345038.934497782512	0
3	934	351673.205589323132	0
3	952	363236.080251216803	0
3	985	368479.301595315368	0
3	1001	370258.205645232741	0
3	1009	371084.926521125861	480.66341478006
3	1034	373211.425755218998	0
3	1042	375239.272114778535	0
3	1050	376037.444866131714	621.93773770098
3	1084	389382.9743325153	0
3	1096	390332.453938357353	612.47043793696
3	1101	391138.80948078786	1282.9250092514
3	1134	398337.370719129774	0
3	1142	399143.017541026622	268.67654990558
3	1150	400284.435247469152	0
3	1168	408371.946580817282	0
3	1209	414129.843377936759	0
3	1217	415573.989985239764	0
3	1225	416442.549514989027	120.43835992152
3	1233	417364.967312829688	143.36710886769
3	1251	428770.254806355809	0
3	1284	435663.458851089411	0
3	1292	436573.735310785972	261.80329516907
3	1308	437753.014557215774	321.43800512472
3	1317	441738.651712989737	0
3	1346	468093.594902661063	0
3	1354	470798.443509511019	0
3	1387	479676.369618689066	55.521767129442
3	1412	481086.817717213824	566.12361381864
3	1428	483207.549993043855	53.314449908657
3	1436	484222.022148312653	232.50245803393
3	1444	484994.529437910643	636.00071162554
3	1453	486748.610660528721	0
3	1470	497087.281262998433	0
3	1497	515304.788178409208	0
3	1506	517997.390737390716	0
3	1531	522852.527651225189	0
3	1539	523644.459239153523	569.34470999017
3	1564	532894.78284455303	0
3	1573	534388.541180222471	0
3	1591	546693.153368564006	0
3	1616	554256.026072087293	0
3	1624	555066.713078189272	757.29962422096
3	1641	560826.567770145005	0
3	1668	578257.264878782572	0
3	1676	579261.514937137916	343.07211163388
3	1705	610687.656662192973	0
3	1714	613285.838884327088	0
3	1739	620753.397315995355	0
3	1747	622795.423976211983	0
3	1765	632690.507647902159	0
3	1782	637543.080358133849	0
3	1809	654480.97921465964	0
3	1817	657035.919026953686	0
3	1834	663252.872125342408	0
3	1852	677733.040960984098	0
3	1869	683975.179134895114	0
3	1886	689528.252365722507	0
3	1904	699349.319688614727	0
3	1929	705228.696384001599	0
3	1937	706175.04424776633	342.74107080034
3	1956	724204.838466767775	0
3	1973	730333.774041361225	0
3	2006	736221.330655171015	0
3	2017	737062.879442424896	807.30810263872
3	2023	738056.01712662987	1288.8878152739
3	2040	747936.719645493811	0
3	2058	757644.703935646008	0
3	2076	771700.660264440776	0
3	2101	778604.323175086007	0
3	2110	781298.027457026184	0
3	2128	793351.012084871184	0
3	2153	801746.498642207212	0
3	2169	802960.010494544294	427.94311745603
3	2186	806726.088443514724	0
3	2194	807819.554965211263	0
3	2214	829625.265409543259	0
3	2247	835012.813836426627	0
3	2258	836080.667105320123	537.82493459519
3	2263	837078.208716204782	1465.7063635753
3	2280	842508.031241113837	0
3	2297	847503.19324337901	0
3	2322	855749.735098466146	0
3	2331	858073.969247666446	0
3	2349	871967.025794293521	0
3	2374	878234.369396808499	0
3	2382	880579.069197540007	0
3	2400	891946.703307549644	0
3	2425	896735.376595407467	0
3	2433	898517.58874381231	0
3	2452	917691.759160018586	0
3	2479	931517.520016449914	0
3	2487	934707.183263101883	0
3	2512	941901.598813364497	0
3	2521	944591.399436647506	0
3	2546	952661.791958222069	271.78491639426
3	2555	956269.805166420708	0
3	2581	969101.656033465047	0
3	2589	969985.947741431665	814.9595436266
3	2615	978893.716238533139	0
3	2623	980808.944498878923	0
3	2649	990692.718360476913	0
3	2657	993849.871450090107	0
3	2674	1001228.54658535335	0
3	2693	1014628.970484013617	0
3	2727	1031517.584956516809	0
3	2736	1032503.801359143101	458.2484929437
3	2752	1033910.831195328443	0
3	2776	1037554.906728029186	0
3	2785	1038472.398230547203	131.50498229839
3	2801	1040293.345518749678	0
3	2809	1043840.56854196839	0
3	2835	1052899.884425822045	0
3	2843	1055273.792130124663	0
4	605	213046.352119809185	1
4	607	213046.352119809185	0
4	633	234480.458011156314	1
4	635	234480.458011156314	0
4	641	236897.375308906649	1
4	643	236897.375308906649	0
4	675	247108.102317600938	1
4	677	247108.102317600938	0
4	691	249254.724041279991	1
4	693	249254.724041279991	0
4	699	250299.847860822644	1
4	701	250299.847860822644	0
4	708	252942.588214173892	1
4	710	252942.588214173892	0
4	725	258016.52445176429	1
4	727	258016.52445176429	0
4	750	264728.162826254863	1
4	752	264728.162826254863	0
4	758	266325.199019721942	1
4	760	266325.199019721942	0
4	783	273031.787971459539	1
4	785	273031.787971459539	0
4	800	276316.101936685524	1
4	802	276316.101936685524	0
4	805	277001.359417547278	1
4	810	277251.927261173952	0
4	835	296895.701319464201	1
4	837	296895.701319464201	0
4	840	297011.970735542552	1
4	845	297637.548847931331	0
4	864	327812.651439934555	1
4	866	327812.651439934555	0
4	898	341578.164400588455	1
4	900	341578.164400588455	0
4	907	343211.745074586263	1
4	909	343211.745074586263	0
4	915	345038.934497782512	1
4	917	345038.934497782512	0
4	932	351673.205589323132	1
4	934	351673.205589323132	0
4	950	363236.080251216803	1
4	952	363236.080251216803	0
4	983	368479.301595315368	1
4	985	368479.301595315368	0
4	999	370258.205645232741	1
4	1001	370258.205645232741	0
4	1004	370604.2631063458	1
4	1009	371084.926521125861	0
4	1032	373211.425755218998	1
4	1034	373211.425755218998	0
4	1040	375239.272114778535	1
4	1042	375239.272114778535	0
4	1045	375415.507128430731	1
4	1050	376037.444866131714	0
4	1082	389382.9743325153	1
4	1084	389382.9743325153	0
4	1087	389719.983500420391	1
4	1090	389855.884471536425	2
4	1096	390332.453938357353	1
4	1101	391138.80948078786	0
4	1132	398337.370719129774	1
4	1134	398337.370719129774	0
4	1137	398874.340991121042	1
4	1142	399143.017541026622	0
4	1148	400284.435247469152	1
4	1150	400284.435247469152	0
4	1166	408371.946580817282	1
4	1168	408371.946580817282	0
4	1207	414129.843377936759	1
4	1209	414129.843377936759	0
4	1215	415573.989985239764	1
4	1217	415573.989985239764	0
4	1220	416322.111155067511	1
4	1225	416442.549514989027	0
4	1228	417221.600203961999	1
4	1233	417364.967312829688	0
4	1249	428770.254806355809	1
4	1251	428770.254806355809	0
4	1282	435663.458851089411	1
4	1284	435663.458851089411	0
4	1287	436311.932015616905	1
4	1292	436573.735310785972	0
4	1298	437431.576552091057	1
4	1308	437753.014557215774	0
4	1315	441738.651712989737	1
4	1317	441738.651712989737	0
4	1344	468093.594902661063	1
4	1346	468093.594902661063	0
4	1352	470798.443509511019	1
4	1354	470798.443509511019	0
4	1382	479620.847851559624	1
4	1387	479676.369618689066	0
4	1399	480520.694103395183	1
4	1412	481086.817717213824	0
4	1423	483154.235543135198	1
4	1428	483207.549993043855	0
4	1431	483989.519690278724	1
4	1436	484222.022148312653	0
4	1439	484358.528726285105	1
4	1444	484994.529437910643	0
4	1451	486748.610660528721	1
4	1453	486748.610660528721	0
4	1468	497087.281262998433	1
4	1470	497087.281262998433	0
4	1495	515304.788178409208	1
4	1497	515304.788178409208	0
4	1504	517997.390737390716	1
4	1506	517997.390737390716	0
4	1529	522852.527651225189	1
4	1531	522852.527651225189	0
4	1534	523075.114529163357	1
4	1539	523644.459239153523	0
4	1562	532894.78284455303	1
4	1564	532894.78284455303	0
4	1571	534388.541180222471	1
4	1573	534388.541180222471	0
4	1589	546693.153368564006	1
4	1591	546693.153368564006	0
4	1614	554256.026072087293	1
4	1616	554256.026072087293	0
4	1619	554309.41345396831	1
4	1624	555066.713078189272	0
4	1639	560826.567770145005	1
4	1641	560826.567770145005	0
4	1666	578257.264878782572	1
4	1668	578257.264878782572	0
4	1671	578918.442825504038	1
4	1676	579261.514937137916	0
4	1703	610687.656662192973	1
4	1705	610687.656662192973	0
4	1712	613285.838884327088	1
4	1714	613285.838884327088	0
4	1737	620753.397315995355	1
4	1739	620753.397315995355	0
4	1745	622795.423976211983	1
4	1747	622795.423976211983	0
4	1763	632690.507647902159	1
4	1765	632690.507647902159	0
4	1780	637543.080358133849	1
4	1782	637543.080358133849	0
4	1807	654480.97921465964	1
4	1809	654480.97921465964	0
4	1815	657035.919026953686	1
4	1817	657035.919026953686	0
4	1832	663252.872125342408	1
4	1834	663252.872125342408	0
4	1850	677733.040960984098	1
4	1852	677733.040960984098	0
4	1867	683975.179134895114	1
4	1869	683975.179134895114	0
4	1884	689528.252365722507	1
4	1886	689528.252365722507	0
4	1902	699349.319688614727	1
4	1904	699349.319688614727	0
4	1927	705228.696384001599	1
4	1929	705228.696384001599	0
4	1932	705832.303176965992	1
4	1937	706175.04424776633	0
4	1954	724204.838466767775	1
4	1956	724204.838466767775	0
4	1971	730333.774041361225	1
4	1973	730333.774041361225	0
4	2004	736221.330655171015	1
4	2006	736221.330655171015	0
4	2009	736255.571339786174	1
4	2012	736767.129311355932	2
4	2017	737062.879442424896	1
4	2023	738056.01712662987	0
4	2038	747936.719645493811	1
4	2040	747936.719645493811	0
4	2056	757644.703935646008	1
4	2058	757644.703935646008	0
4	2074	771700.660264440776	1
4	2076	771700.660264440776	0
4	2099	778604.323175086007	1
4	2101	778604.323175086007	0
4	2108	781298.027457026184	1
4	2110	781298.027457026184	0
4	2126	793351.012084871184	1
4	2128	793351.012084871184	0
4	2151	801746.498642207212	1
4	2153	801746.498642207212	0
4	2159	802532.067377088266	1
4	2169	802960.010494544294	0
4	2184	806726.088443514724	1
4	2186	806726.088443514724	0
4	2192	807819.554965211263	1
4	2194	807819.554965211263	0
4	2212	829625.265409543259	1
4	2214	829625.265409543259	0
4	2245	835012.813836426627	1
4	2247	835012.813836426627	0
4	2250	835542.842170724935	1
4	2253	835612.502352629443	2
4	2258	836080.667105320123	1
4	2263	837078.208716204782	0
4	2278	842508.031241113837	1
4	2280	842508.031241113837	0
4	2295	847503.19324337901	1
4	2297	847503.19324337901	0
4	2320	855749.735098466146	1
4	2322	855749.735098466146	0
4	2329	858073.969247666446	1
4	2331	858073.969247666446	0
4	2347	871967.025794293521	1
4	2349	871967.025794293521	0
4	2372	878234.369396808499	1
4	2374	878234.369396808499	0
4	2380	880579.069197540007	1
4	2382	880579.069197540007	0
4	2398	891946.703307549644	1
4	2400	891946.703307549644	0
4	2423	896735.376595407467	1
4	2425	896735.376595407467	0
4	2431	898517.58874381231	1
4	2433	898517.58874381231	0
4	2450	917691.759160018586	1
4	2452	917691.759160018586	0
4	2477	931517.520016449914	1
4	2479	931517.520016449914	0
4	2485	934707.183263101883	1
4	2487	934707.183263101883	0
4	2510	941901.598813364497	1
4	2512	941901.598813364497	0
4	2519	944591.399436647506	1
4	2521	944591.399436647506	0
4	2541	952390.007041827808	1
4	2546	952661.791958222069	0
4	2553	956269.805166420708	1
4	2555	956269.805166420708	0
4	2579	969101.656033465047	1
4	2581	969101.656033465047	0
4	2584	969170.988197805063	1
4	2589	969985.947741431665	0
4	2613	978893.716238533139	1
4	2615	978893.716238533139	0
4	2621	980808.944498878923	1
4	2623	980808.944498878923	0
4	2647	990692.718360476913	1
4	2649	990692.718360476913	0
4	2655	993849.871450090107	1
4	2657	993849.871450090107	0
4	2672	1001228.54658535335	1
4	2674	1001228.54658535335	0
4	2691	1014628.970484013617	1
4	2693	1014628.970484013617	0
4	2725	1031517.584956516809	1
4	2727	1031517.584956516809	0
4	2731	1032045.552866199399	1
4	2736	1032503.801359143101	0
4	2750	1033910.831195328443	1
4	2752	1033910.831195328443	0
4	2774	1037554.906728029186	1
4	2776	1037554.906728029186	0
4	2780	1038340.893248248816	1
4	2785	1038472.398230547203	0
4	2799	1040293.345518749678	1
4	2801	1040293.345518749678	0
4	2807	1043840.56854196839	1
4	2809	1043840.56854196839	0
4	2833	1052899.884425822045	1
4	2835	1052899.884425822045	0
4	2841	1055273.792130124663	1
4	2843	1055273.792130124663	0
5	594	204000	0
5	603	210000	1
5	612	216000	0
5	613	222000	0
5	614	228000	0
5	631	234000	2
5	648	240000	0
5	670	246000	2
5	706	252000	2
5	723	258000	1
5	748	264000	2
5	770	270000	0
5	798	276000	3
5	815	282000	0
5	816	288000	0
5	833	294000	2
5	850	300000	0
5	851	306000	0
5	852	312000	0
5	853	318000	0
5	859	324000	0
5	871	330000	1
5	872	336000	0
5	902	342000	3
5	930	348000	1
5	939	354000	0
5	948	360000	1
5	965	366000	1
5	1017	372000	3
5	1055	378000	2
5	1056	384000	0
5	1092	390000	3
5	1122	396000	2
5	1155	402000	1
5	1164	408000	1
5	1205	414000	4
5	1238	420000	0
5	1247	426000	1
5	1264	432000	1
5	1310	438000	3
5	1322	444000	0
5	1323	450000	0
5	1324	456000	0
5	1325	462000	0
5	1342	468000	2
5	1359	474000	0
5	1389	480000	3
5	1449	486000	3
5	1458	492000	0
5	1472	498000	1
5	1476	504000	0
5	1477	510000	0
5	1499	516000	2
5	1527	522000	2
5	1544	528000	0
5	1569	534000	2
5	1578	540000	0
5	1587	546000	1
5	1612	552000	2
5	1637	558000	1
5	1646	564000	0
5	1647	570000	0
5	1664	576000	2
5	1681	582000	0
5	1682	588000	0
5	1683	594000	0
5	1684	600000	0
5	1685	606000	0
5	1710	612000	2
5	1727	618000	1
5	1752	624000	1
5	1761	630000	1
5	1778	636000	1
5	1787	642000	0
5	1788	648000	0
5	1805	654000	2
5	1830	660000	1
5	1839	666000	0
5	1840	672000	0
5	1854	678000	1
5	1871	684000	1
5	1888	690000	1
5	1900	696000	1
5	1917	702000	1
5	1942	708000	1
5	1943	714000	0
5	1944	720000	0
5	1966	726000	1
5	1978	732000	1
5	2019	738000	3
5	2033	744000	0
5	2045	750000	1
5	2054	756000	1
5	2063	762000	0
5	2072	768000	1
5	2081	774000	0
5	2106	780000	2
5	2115	786000	0
5	2124	792000	1
5	2138	798000	0
5	2179	804000	3
5	2199	810000	1
5	2200	816000	0
5	2201	822000	0
5	2210	828000	1
5	2243	834000	3
5	2276	840000	1
5	2293	846000	1
5	2307	852000	0
5	2327	858000	2
5	2336	864000	0
5	2345	870000	1
5	2362	876000	1
5	2387	882000	1
5	2396	888000	1
5	2413	894000	1
5	2438	900000	1
5	2439	906000	0
5	2440	912000	0
5	2454	918000	1
5	2458	924000	0
5	2467	930000	1
5	2492	936000	1
5	2514	942000	2
5	2526	948000	0
5	2551	954000	2
5	2560	960000	0
5	2577	966000	2
5	2594	972000	0
5	2608	978000	1
5	2628	984000	1
5	2645	990000	2
5	2662	996000	0
5	2676	1002000	1
5	2680	1008000	0
5	2689	1014000	1
5	2698	1020000	0
5	2699	1026000	0
5	2729	1032000	3
5	2778	1038000	3
5	2811	1044000	1
5	2823	1050000	1
5	2845	1056000	1
5	2849	1062000	0
6	594	204000	0
6	603	210000	0
6	612	216000	1
6	613	222000	0
6	614	228000	0
6	631	234000	0
6	648	240000	2
6	670	246000	0
6	706	252000	3
6	723	258000	1
6	748	264000	1
6	770	270000	2
6	798	276000	1
6	815	282000	2
6	816	288000	0
6	833	294000	0
6	850	300000	2
6	851	306000	0
6	852	312000	0
6	853	318000	0
6	859	324000	0
6	871	330000	1
6	872	336000	0
6	902	342000	0
6	930	348000	3
6	939	354000	1
6	948	360000	0
6	965	366000	1
6	1017	372000	2
6	1055	378000	4
6	1056	384000	0
6	1092	390000	0
6	1122	396000	3
6	1155	402000	3
6	1164	408000	0
6	1205	414000	1
6	1238	420000	4
6	1247	426000	0
6	1264	432000	1
6	1310	438000	2
6	1322	444000	2
6	1323	450000	0
6	1324	456000	0
6	1325	462000	0
6	1342	468000	0
6	1359	474000	2
6	1389	480000	0
6	1449	486000	5
6	1458	492000	1
6	1472	498000	0
6	1476	504000	1
6	1477	510000	0
6	1499	516000	0
6	1527	522000	2
6	1544	528000	2
6	1569	534000	1
6	1578	540000	1
6	1587	546000	0
6	1612	552000	1
6	1637	558000	2
6	1646	564000	1
6	1647	570000	0
6	1664	576000	0
6	1681	582000	2
6	1682	588000	0
6	1683	594000	0
6	1684	600000	0
6	1685	606000	0
6	1710	612000	1
6	1727	618000	1
6	1752	624000	2
6	1761	630000	0
6	1778	636000	1
6	1787	642000	1
6	1788	648000	0
6	1805	654000	0
6	1830	660000	2
6	1839	666000	1
6	1840	672000	0
6	1854	678000	0
6	1871	684000	1
6	1888	690000	1
6	1900	696000	1
6	1917	702000	1
6	1942	708000	2
6	1943	714000	0
6	1944	720000	0
6	1966	726000	1
6	1978	732000	1
6	2019	738000	1
6	2033	744000	2
6	2045	750000	1
6	2054	756000	0
6	2063	762000	1
6	2072	768000	0
6	2081	774000	1
6	2106	780000	1
6	2115	786000	1
6	2124	792000	0
6	2138	798000	1
6	2179	804000	2
6	2199	810000	2
6	2200	816000	0
6	2201	822000	0
6	2210	828000	0
6	2243	834000	1
6	2276	840000	3
6	2293	846000	1
6	2307	852000	1
6	2327	858000	1
6	2336	864000	1
6	2345	870000	0
6	2362	876000	1
6	2387	882000	2
6	2396	888000	0
6	2413	894000	1
6	2438	900000	2
6	2439	906000	0
6	2440	912000	0
6	2454	918000	0
6	2458	924000	1
6	2467	930000	0
6	2492	936000	2
6	2514	942000	0
6	2526	948000	2
6	2551	954000	1
6	2560	960000	1
6	2577	966000	0
6	2594	972000	2
6	2608	978000	0
6	2628	984000	2
6	2645	990000	0
6	2662	996000	2
6	2676	1002000	0
6	2680	1008000	1
6	2689	1014000	0
6	2698	1020000	1
6	2699	1026000	0
6	2729	1032000	0
6	2778	1038000	3
6	2811	1044000	3
6	2823	1050000	1
6	2845	1056000	1
6	2849	1062000	1
7	601	209107.429736726236	1
7	604	213046.352119809185	0
7	621	231117.386761631312	1
7	629	233632.519266656207	2
7	632	234480.458011156314	1
7	640	236897.375308906649	0
7	655	243588.432955454391	1
7	663	245574.510191765712	2
7	672	246111.594356908942	3
7	674	247108.102317600938	2
7	688	248685.505753093783	3
7	690	249254.724041279991	2
7	698	250299.847860822644	1
7	707	252942.588214173892	0
7	721	254170.636547885969	1
7	724	258016.52445176429	0
7	738	261950.902889032471	1
7	746	262746.744782895467	2
7	749	264728.162826254863	1
7	757	266325.199019721942	0
7	772	270086.817592507749	1
7	780	272800.334403311924	2
7	782	273031.787971459539	1
7	796	274267.576167658578	2
7	799	276316.101936685524	1
7	804	277001.359417547278	0
7	823	292827.897036481075	1
7	831	293975.103835917857	2
7	834	296895.701319464201	1
7	839	297011.970735542552	0
7	861	324187.967544494242	1
7	863	327812.651439934555	0
7	879	338071.213970823085	1
7	887	339923.824028024473	2
7	895	340882.567329249832	3
7	897	341578.164400588455	2
7	906	343211.745074586263	1
7	914	345038.934497782512	0
7	928	347770.014358555835	1
7	931	351673.205589323132	0
7	946	359567.423738176495	1
7	949	363236.080251216803	0
7	963	365135.85831912712	1
7	972	366313.033075159414	2
7	980	366763.981536492317	3
7	982	368479.301595315368	2
7	996	369556.551962573198	3
7	998	370258.205645232741	2
7	1003	370604.2631063458	1
7	1024	372305.964953064483	2
7	1029	372580.221403400412	3
7	1031	373211.425755218998	2
7	1039	375239.272114778535	1
7	1044	375415.507128430731	0
7	1066	385444.979901303314	1
7	1071	385798.000226644085	2
7	1079	386801.773273697756	3
7	1081	389382.9743325153	2
7	1086	389719.983500420391	1
7	1089	389855.884471536425	0
7	1112	394207.908704235426	1
7	1120	395214.944644620698	2
7	1129	396642.781763536587	3
7	1131	398337.370719129774	2
7	1136	398874.340991121042	1
7	1147	400284.435247469152	0
7	1162	404751.962122218431	1
7	1165	408371.946580817282	0
7	1179	409817.913502516035	1
7	1187	411963.971319358668	2
7	1195	412601.528931476448	3
7	1203	413434.094410366716	4
7	1206	414129.843377936759	3
7	1214	415573.989985239764	2
7	1219	416322.111155067511	1
7	1227	417221.600203961999	0
7	1245	423955.980247816115	1
7	1248	428770.254806355809	0
7	1262	431425.152906368946	1
7	1271	432493.409379337593	2
7	1279	433782.802791813553	3
7	1281	435663.458851089411	2
7	1286	436311.932015616905	1
7	1297	437431.576552091057	0
7	1306	437753.014557215774	1
7	1314	441738.651712989737	0
7	1332	464713.28325555645	1
7	1340	467140.196590529424	2
7	1343	468093.594902661063	1
7	1351	470798.443509511019	0
7	1366	476158.860921881365	1
7	1374	477258.754285707542	2
7	1381	479620.847851559624	1
7	1385	479676.369618689066	2
7	1398	480520.694103395183	1
7	1405	480796.161673903944	2
7	1410	481086.817717213824	3
7	1422	483154.235543135198	2
7	1426	483207.549993043855	3
7	1430	483989.519690278724	2
7	1438	484358.528726285105	1
7	1450	486748.610660528721	0
7	1465	493834.939984056965	1
7	1467	497087.281262998433	0
7	1484	511805.904246147002	1
7	1492	514376.681398530606	2
7	1494	515304.788178409208	1
7	1503	517997.390737390716	0
7	1520	519045.227111462074	1
7	1525	519339.337363487551	2
7	1528	522852.527651225189	1
7	1533	523075.114529163357	0
7	1551	529006.309045015925	1
7	1559	531082.222932197918	2
7	1561	532894.78284455303	1
7	1570	534388.541180222471	0
7	1585	542645.184041628441	1
7	1588	546693.153368564006	0
7	1602	550196.779410406824	1
7	1610	550594.522600232588	2
7	1613	554256.026072087293	1
7	1618	554309.41345396831	0
7	1635	556930.467934092106	1
7	1638	560826.567770145005	0
7	1654	574445.049940494161	1
7	1662	575918.55540687443	2
7	1665	578257.264878782572	1
7	1670	578918.442825504038	0
7	1692	606970.588095211268	1
7	1700	609937.742689431837	2
7	1702	610687.656662192973	1
7	1711	613285.838884327088	0
7	1725	617227.423316657395	1
7	1734	619038.275559381804	2
7	1736	620753.397315995355	1
7	1744	622795.423976211983	0
7	1759	629665.668931537277	1
7	1762	632690.507647902159	0
7	1776	633734.397620635423	1
7	1779	637543.080358133849	0
7	1795	651114.839034057874	1
7	1803	653239.768812673423	2
7	1806	654480.97921465964	1
7	1814	657035.919026953686	0
7	1828	659219.400374085426	1
7	1831	663252.872125342408	0
7	1847	673947.845192654226	1
7	1849	677733.040960984098	0
7	1864	680364.516509621385	1
7	1866	683975.179134895114	0
7	1881	685810.325115669703	1
7	1883	689528.252365722507	0
7	1898	695693.195922237527	1
7	1901	699349.319688614727	0
7	1915	701123.757508297681	1
7	1924	702434.391590046769	2
7	1926	705228.696384001599	1
7	1931	705832.303176965992	0
7	1951	721055.06295674422	1
7	1953	724204.838466767775	0
7	1968	726173.200737498827	1
7	1970	730333.774041361225	0
7	1988	732794.084890185905	1
7	1996	733145.053834446372	2
7	2001	733450.541949516677	3
7	2003	736221.330655171015	2
7	2008	736255.571339786174	1
7	2011	736767.129311355932	0
7	2035	744257.94442846522	1
7	2037	747936.719645493811	0
7	2052	754479.170535957383	1
7	2055	757644.703935646008	0
7	2070	767925.335677891202	1
7	2073	771700.660264440776	0
7	2088	774944.530391706851	1
7	2096	777758.86245350887	2
7	2098	778604.323175086007	1
7	2107	781298.027457026184	0
7	2122	790053.490539736032	1
7	2125	793351.012084871184	0
7	2140	798266.550485208182	1
7	2148	799366.714199631387	2
7	2150	801746.498642207212	1
7	2158	802532.067377088266	0
7	2167	802960.010494544294	1
7	2181	804159.598597754558	2
7	2183	806726.088443514724	1
7	2191	807819.554965211263	0
7	2208	826017.935597720085	1
7	2211	829625.265409543259	0
7	2225	830936.555668352976	1
7	2233	831499.408372085443	2
7	2241	831873.179165401389	3
7	2244	835012.813836426627	2
7	2249	835542.842170724935	1
7	2252	835612.502352629443	0
7	2274	838304.416247871244	1
7	2277	842508.031241113837	0
7	2291	843716.240988243688	1
7	2294	847503.19324337901	0
7	2309	852087.743196516181	1
7	2317	854679.42050479164	2
7	2319	855749.735098466146	1
7	2328	858073.969247666446	0
7	2343	868239.123842304083	1
7	2346	871967.025794293521	0
7	2360	874725.557006737192	1
7	2369	876894.385066638213	2
7	2371	878234.369396808499	1
7	2379	880579.069197540007	0
7	2394	887522.466860824863	1
7	2397	891946.703307549644	0
7	2411	893545.140096401888	1
7	2420	895285.066232406203	2
7	2422	896735.376595407467	1
7	2430	898517.58874381231	0
7	2447	914049.091677002149	1
7	2449	917691.759160018586	0
7	2465	928078.603482123667	1
7	2474	931309.219075647541	2
7	2476	931517.520016449914	1
7	2484	934707.183263101883	0
7	2499	938480.075363614735	1
7	2507	940969.357355053597	2
7	2509	941901.598813364497	1
7	2518	944591.399436647506	0
7	2533	948492.639504635773	1
7	2540	952390.007041827808	0
7	2544	952661.791958222069	1
7	2552	956269.805166420708	0
7	2570	965396.466026564331	1
7	2575	965682.271531213594	2
7	2578	969101.656033465047	1
7	2583	969170.988197805063	0
7	2601	975365.289650340747	1
7	2610	978320.379180098534	2
7	2612	978893.716238533139	1
7	2620	980808.944498878923	0
7	2635	987183.663234590057	1
7	2643	989623.981731936933	2
7	2646	990692.718360476913	1
7	2654	993849.871450090107	0
7	2669	997199.632370679092	1
7	2671	1001228.54658535335	0
7	2687	1011326.255819878921	1
7	2690	1014628.970484013617	0
7	2706	1027773.946606796811	1
7	2714	1028356.523247050187	2
7	2722	1030688.415537702803	3
7	2724	1031517.584956516809	2
7	2730	1032045.552866199399	1
7	2747	1033537.518942836418	2
7	2749	1033910.831195328443	1
7	2763	1035349.315736197422	2
7	2771	1036434.356980067815	3
7	2773	1037554.906728029186	2
7	2779	1038340.893248248816	1
7	2796	1040279.540785883329	2
7	2798	1040293.345518749678	1
7	2806	1043840.56854196839	0
7	2821	1048442.772377041019	1
7	2830	1051741.702760439718	2
7	2832	1052899.884425822045	1
7	2840	1055273.792130124663	0
