version 2
run ResponseMeasurement-92-20170110-19:42:58-22211
attr configname ResponseMeasurement
attr datetime 20170110-19:42:58
attr experiment ResponseMeasurement
attr inifile responseStudy.ini
attr iterationvars ""
attr iterationvars2 $repetition=92
attr measurement ""
attr network controltower.SimNetwork
attr processid 22211
attr repetition 92
attr replication #92
attr resultdir results
attr runnumber 92
attr seedset 92
param SimNetwork.a.parkingLot.parkingDelay "truncnormal(60min, 6min)"
param SimNetwork.a.runway.landingTime "truncnormal(5min, 0.5min)"
param SimNetwork.a.runway.takeoffTime "truncnormal(15min, 1.5min)"
param SimNetwork.a.runway.throughputCheckInterval 100min
param SimNetwork.wg.interArrivalTime exponential(100min)

vector 7  SimNetwork.a.parkingLot  parkingOccupancy:vector  ETV
attr source  parkingOccupancy
vector 4  SimNetwork.a.takeoffQueue  queueLength:vector  ETV
attr source  queueLengthSignal
vector 3  SimNetwork.a.takeoffQueue  queueTime:vector  ETV
attr source  queueTimeSignal
vector 2  SimNetwork.a.landingQueue  queueLength:vector  ETV
attr source  queueLengthSignal
vector 0  SimNetwork.wg  responseTime:vector  ETV
attr source  responseTimeSignal
vector 1  SimNetwork.a.landingQueue  queueTime:vector  ETV
attr source  queueTimeSignal
vector 5  SimNetwork.a.runway  landedThroughput:vector  ETV
attr source  landedThroughputSignal
vector 6  SimNetwork.a.runway  tookoffThroughput:vector  ETV
attr source  tookoffThroughputSignal
0	574	202223.775081875187	10366.298649867
0	592	203876.554113083038	6895.7394567643
0	604	207309.195250909116	8695.8132128575
0	612	208162.636086535395	6803.2191531301
0	634	213454.65596809121	11975.650703179
0	650	215577.639309127808	7923.5133310411
0	667	219262.212566830709	8711.6249303093
0	675	221531.092607746858	7086.6336809247
0	693	228885.747874352149	12340.542176632
0	712	247513.501324041327	23537.112462597
0	745	257970.909280870652	15228.102684661
0	757	260159.202562000101	7138.5262746401
0	765	261069.239480352896	5877.6449303552
0	787	266155.604453037199	10552.23475583
0	795	269429.878197474121	8704.445829754
0	815	274147.691747709486	9920.2054110256
0	829	278921.276017060793	9068.2440637758
0	866	288643.675158354597	15110.944464725
0	874	289620.068485280801	5997.0341476566
0	879	290412.177743447472	6115.5290081746
0	905	304615.83545280886	19707.835725361
0	922	308257.356500417743	8042.8824946206
0	946	311407.485350149207	8431.5505780936
0	966	314089.024776525452	5088.8438578101
0	971	315151.215187099289	8789.4276589483
0	985	316650.667842189096	7233.5942433901
0	1018	321621.664993057976	9809.2817883175
0	1023	322358.073501528307	6280.3225701776
0	1028	323335.786480485271	6900.5161403115
0	1053	327931.15219364609	10365.501269608
0	1061	328982.881236400917	5237.0883646733
0	1079	338340.807113460429	13955.641885928
0	1104	345583.286145289714	12554.08802328
0	1112	346866.990265456101	5654.3567187143
0	1140	352722.368173130999	10177.090710133
0	1145	353688.398762758225	6526.6625223832
0	1193	364681.878104295995	5744.7468654897
0	1198	365440.143069470425	16368.003316781
0	1204	366279.980354600089	6393.4710138473
0	1212	368541.825711512063	8413.8127092036
0	1237	375237.765462744953	11873.364271296
0	1245	376634.790630431075	6695.3357890813
0	1263	388434.804189765111	16224.16135594
0	1298	404829.51246764603	21268.922366849
0	1317	407628.677896766986	7214.4010923869
0	1326	408637.38171490443	5874.9137924287
0	1347	411243.917876368522	8310.9144506144
0	1358	413928.440509995056	7661.3630122362
0	1364	414765.822667954765	6140.9573939346
0	1382	427161.197607654401	17665.293681285
0	1401	446714.537828172483	24404.141836254
0	1445	472096.49175100289	30950.855332617
0	1457	474270.149764617424	7250.195151163
0	1465	475219.188435528095	6291.3275073768
0	1470	476052.424419662287	5917.3997979299
0	1489	494941.390920263918	24121.848810278
0	1506	500351.296923447506	10483.860703795
0	1534	508445.042431493875	5115.7734892348
0	1542	509260.143653067915	13790.061489622
0	1556	514044.052770001939	10227.515643723
0	1574	527210.523368790322	18485.938591413
0	1604	540191.570751350924	18034.854307751
0	1617	541450.311008287748	6134.8685352018
0	1625	545061.64507469377	8885.5260673559
0	1651	552160.210735943923	12074.607749736
0	1659	554423.337188623872	6999.5416453049
0	1688	569745.281173174941	19667.193616114
0	1694	570625.067953241656	5306.9391797823
0	1726	584572.759891940202	5247.7399950891
0	1736	585724.474399031482	19764.015948456
0	1745	590318.801712194561	10389.518359938
0	1762	597238.689138518726	13412.330207651
0	1779	605580.706810121672	13581.544635885
0	1799	624490.015690731918	23721.084841969
0	1816	632976.961823061603	13364.92955756
0	1834	644906.156927870636	17040.306311238
0	1851	652030.317566648521	11925.862047588
0	1876	658546.739302482041	11665.592491624
0	1893	662055.692976992211	8451.5562804872
0	1901	665698.269927761514	8528.2438865669
0	1919	673111.286481289496	12532.182499934
0	1936	681225.165749275107	13468.172493601
0	1953	688297.819097483827	11888.088915584
0	1970	695069.667108572906	11303.02290478
0	2015	705299.483570315389	14702.74772454
0	2031	707429.025599382099	6562.9271989415
0	2040	708368.27084311696	5992.7207254369
0	2045	709396.286868267727	6487.5596528885
0	2053	710344.515611784504	6155.0585092608
0	2086	714877.073420555506	10042.576051119
0	2097	716771.721971993678	6256.7392356121
0	2102	717791.948490309063	5974.8595178987
0	2121	737043.219934053599	25141.058042519
0	2139	746393.836893304416	14168.484366652
0	2157	757821.66869155677	16457.32870892
0	2174	763210.760746932549	10082.602811234
0	2191	773562.495944990698	15201.510029541
0	2210	788352.682115110369	19206.641827184
0	2229	805108.631893328821	20841.678028983
0	2255	821706.87166985125	21714.29856322
0	2264	823761.513970286018	7292.2249622329
0	2281	828256.055468466966	9067.2957149893
0	2300	848569.270964825166	24443.029412336
0	2326	859163.587104780389	15394.307630817
0	2334	862816.657329244586	8778.2863615468
0	2362	883630.05114466879	25479.466390997
0	2370	886350.296609379815	7380.2140678779
0	2387	891940.141643477034	11019.67556235
0	2405	905116.666648709797	17473.601765434
0	2424	919313.26987472836	18802.382594545
0	2441	928284.701845229853	13314.88718145
0	2489	937518.057323531987	5418.6042103323
0	2497	938408.671932811993	14989.08902138
0	2510	939556.116526952549	7063.810760186
0	2515	940220.461724728075	5885.5475912698
0	2524	943040.143010117386	8523.9911243709
0	2551	960638.977152866723	22595.810079374
0	2559	961611.935151785662	5839.6260254847
0	2576	967338.97662360734	10587.454319017
0	2604	974206.952327214851	11567.578084786
0	2609	975145.133514448342	5677.9263192879
0	2626	982132.333243845827	11720.146100191
0	2643	987743.830631313615	10674.784829373
0	2669	998118.251750002758	15006.191645724
0	2680	1000416.349277582668	7513.2371700463
0	2694	1004634.192336348894	8712.8936637174
0	2722	1012661.127818466026	12788.576486222
0	2739	1015110.027095159236	7230.1103016856
0	2760	1017683.755596714604	7753.8050620795
0	2771	1019668.029278076354	7250.8017248223
0	2777	1020607.956471095496	6048.3672691235
0	2802	1027210.371321875603	11574.190288019
0	2810	1031116.363163787293	8444.4612223042
0	2831	1040967.636370875873	14901.51780753
0	2845	1045576.275222258106	9429.7600095306
0	2863	1060778.462526679135	20674.68843266
1	576	202223.775081875187	864.35814846992
1	581	202510.072943477283	1031.0676785646
1	614	208162.636086535395	508.51010844868
1	623	210550.587636521365	0
1	639	214444.458926822186	0
1	656	216545.205697719701	0
1	681	223976.388861444203	0
1	700	242742.806596209603	0
1	718	253020.676287359987	0
1	726	255191.594549997698	0
1	734	255603.369697206741	0
1	767	261069.239480352896	343.80711263277
1	776	264227.486336683839	0
1	800	269853.031953284985	0
1	817	274147.691747709486	614.96105408012
1	835	283623.034337624161	0
1	843	284296.64873527285	0
1	851	284907.999727448061	0
1	886	300214.474005797129	0
1	894	302975.934772055642	0
1	911	306361.787528151027	0
1	927	309000.180918715401	0
1	935	309417.073598798954	0
1	951	311812.383204740454	0
1	987	316650.667842189096	572.9169108384
1	992	316950.738105885794	515.46776571204
1	1000	317565.650924038217	0
1	1033	323745.792871727629	0
1	1042	324385.165227532926	0
1	1067	333029.198122009496	0
1	1084	341212.633546741782	0
1	1093	342545.277462997964	0
1	1117	347161.736240375046	0
1	1126	349072.139752689323	0
1	1151	358937.131238806293	0
1	1159	359886.509340752834	0
1	1168	360295.855028630358	167.8420263219
1	1176	363364.401191448974	0
1	1217	369939.454841349816	0
1	1226	372210.642833824936	0
1	1251	383560.590100796896	0
1	1270	400414.276804380092	0
1	1279	402762.467922475726	0
1	1287	403058.500198188468	125.49677243439
1	1303	406267.077497758847	0
1	1328	408637.38171490443	12.516440884233
1	1336	409495.903926369899	0
1	1370	422310.395991918717	0
1	1389	441145.636418385605	0
1	1409	467019.954613454457	0
1	1418	468927.860928151339	0
1	1426	470135.024621732384	0
1	1434	470819.542109985801	0
1	1477	489867.436219652209	0
1	1494	495470.082163445469	0
1	1511	503329.268942259089	0
1	1519	503816.537126278915	0
1	1544	509260.143653067915	535.55887569109
1	1563	522156.716443600167	0
1	1581	535315.442473085911	0
1	1589	536176.119007337884	0
1	1606	540191.570751350924	105.96776514265
1	1631	547423.795543318991	0
1	1639	550078.087557061056	0
1	1666	565318.128773459346	0
1	1674	565960.458450575258	0
1	1700	579325.01989685111	0
1	1708	579929.283352256504	0
1	1728	584572.759891940202	746.40096107259
1	1750	591999.162174236369	0
1	1768	600768.930848762605	0
1	1787	619612.032265501889	0
1	1804	627865.850616633133	0
1	1822	640104.455519060957	0
1	1839	646881.146810857817	0
1	1856	653604.136696505019	0
1	1865	657170.026041194649	0
1	1882	660579.103981355993	0
1	1907	667756.993255674089	0
1	1924	676409.730181900261	0
1	1941	683766.644203792409	0
1	1959	690596.735845775435	0
1	1976	700866.098400440633	0
1	1985	702375.550117680104	0
1	1993	702908.727215379234	0
1	2001	704189.457102523729	0
1	2017	705299.483570315389	464.98620087872
1	2058	710514.982736381602	0
1	2066	711817.088972410356	0
1	2074	712092.257534779377	190.09564324507
1	2110	732225.352526652101	0
1	2127	741364.339982636905	0
1	2145	753128.157935698159	0
1	2162	758360.985915449741	0
1	2180	769146.040287926583	0
1	2198	784266.953864345459	0
1	2217	799992.573106631051	0
1	2236	816469.289008053125	0
1	2244	819188.759753477656	0
1	2269	824126.2415524889	0
1	2288	843769.279473963136	0
1	2306	854038.37096769778	0
1	2315	858150.584753672162	0
1	2342	878970.08254150195	0
1	2350	880920.466081126672	0
1	2375	887643.064883276016	0
1	2394	900510.88728018359	0
1	2412	914969.814663780178	0
1	2429	923419.582911432258	0
1	2447	932099.453113199658	0
1	2455	932492.305766766593	0
1	2463	934334.914133458322	0
1	2471	934669.447285709189	153.29539996274
1	2499	938408.671932811993	365.50485931919
1	2531	955772.309126300917	0
1	2539	956751.522304590535	0
1	2564	962639.374242428599	0
1	2581	969467.207195160467	0
1	2589	970412.187143654385	0
1	2614	977069.045801940757	0
1	2631	983112.060104278447	0
1	2649	992903.112107536363	0
1	2657	995921.29867263149	0
1	2682	1000416.349277582668	543.79794533878
1	2699	1007879.916793473591	0
1	2708	1009929.950534635124	0
1	2724	1012661.127818466026	243.90026521195
1	2741	1015110.027095159236	550.43789318721
1	2749	1015636.181033856771	0
1	2782	1022671.901941483107	0
1	2791	1026066.118563345456	0
1	2816	1036146.5152127275	0
1	2833	1040967.636370875873	863.8622768569
1	2851	1055689.441644353923	0
2	568	201359.416933405268	1
2	571	201479.005264912666	2
2	576	202223.775081875187	1
2	581	202510.072943477283	0
2	609	207654.125978086714	1
2	614	208162.636086535395	0
2	621	210550.587636521365	1
2	623	210550.587636521365	0
2	637	214444.458926822186	1
2	639	214444.458926822186	0
2	654	216545.205697719701	1
2	656	216545.205697719701	0
2	679	223976.388861444203	1
2	681	223976.388861444203	0
2	698	242742.806596209603	1
2	700	242742.806596209603	0
2	716	253020.676287359987	1
2	718	253020.676287359987	0
2	724	255191.594549997698	1
2	726	255191.594549997698	0
2	732	255603.369697206741	1
2	734	255603.369697206741	0
2	762	260725.432367720123	1
2	767	261069.239480352896	0
2	774	264227.486336683839	1
2	776	264227.486336683839	0
2	798	269853.031953284985	1
2	800	269853.031953284985	0
2	812	273532.730693629367	1
2	817	274147.691747709486	0
2	833	283623.034337624161	1
2	835	283623.034337624161	0
2	841	284296.64873527285	1
2	843	284296.64873527285	0
2	849	284907.999727448061	1
2	851	284907.999727448061	0
2	884	300214.474005797129	1
2	886	300214.474005797129	0
2	892	302975.934772055642	1
2	894	302975.934772055642	0
2	909	306361.787528151027	1
2	911	306361.787528151027	0
2	925	309000.180918715401	1
2	927	309000.180918715401	0
2	933	309417.073598798954	1
2	935	309417.073598798954	0
2	949	311812.383204740454	1
2	951	311812.383204740454	0
2	979	316077.750931350694	1
2	982	316435.270340173754	2
2	987	316650.667842189096	1
2	992	316950.738105885794	0
2	998	317565.650924038217	1
2	1000	317565.650924038217	0
2	1031	323745.792871727629	1
2	1033	323745.792871727629	0
2	1040	324385.165227532926	1
2	1042	324385.165227532926	0
2	1065	333029.198122009496	1
2	1067	333029.198122009496	0
2	1082	341212.633546741782	1
2	1084	341212.633546741782	0
2	1091	342545.277462997964	1
2	1093	342545.277462997964	0
2	1115	347161.736240375046	1
2	1117	347161.736240375046	0
2	1124	349072.139752689323	1
2	1126	349072.139752689323	0
2	1149	358937.131238806293	1
2	1151	358937.131238806293	0
2	1157	359886.509340752834	1
2	1159	359886.509340752834	0
2	1163	360128.013002308462	1
2	1168	360295.855028630358	0
2	1174	363364.401191448974	1
2	1176	363364.401191448974	0
2	1215	369939.454841349816	1
2	1217	369939.454841349816	0
2	1224	372210.642833824936	1
2	1226	372210.642833824936	0
2	1249	383560.590100796896	1
2	1251	383560.590100796896	0
2	1268	400414.276804380092	1
2	1270	400414.276804380092	0
2	1277	402762.467922475726	1
2	1279	402762.467922475726	0
2	1282	402933.003425754082	1
2	1287	403058.500198188468	0
2	1301	406267.077497758847	1
2	1303	406267.077497758847	0
2	1323	408624.865274020197	1
2	1328	408637.38171490443	0
2	1334	409495.903926369899	1
2	1336	409495.903926369899	0
2	1368	422310.395991918717	1
2	1370	422310.395991918717	0
2	1387	441145.636418385605	1
2	1389	441145.636418385605	0
2	1407	467019.954613454457	1
2	1409	467019.954613454457	0
2	1416	468927.860928151339	1
2	1418	468927.860928151339	0
2	1424	470135.024621732384	1
2	1426	470135.024621732384	0
2	1432	470819.542109985801	1
2	1434	470819.542109985801	0
2	1475	489867.436219652209	1
2	1477	489867.436219652209	0
2	1492	495470.082163445469	1
2	1494	495470.082163445469	0
2	1509	503329.268942259089	1
2	1511	503329.268942259089	0
2	1517	503816.537126278915	1
2	1519	503816.537126278915	0
2	1539	508724.584777376821	1
2	1544	509260.143653067915	0
2	1561	522156.716443600167	1
2	1563	522156.716443600167	0
2	1579	535315.442473085911	1
2	1581	535315.442473085911	0
2	1587	536176.119007337884	1
2	1589	536176.119007337884	0
2	1601	540085.602986208271	1
2	1606	540191.570751350924	0
2	1629	547423.795543318991	1
2	1631	547423.795543318991	0
2	1637	550078.087557061056	1
2	1639	550078.087557061056	0
2	1664	565318.128773459346	1
2	1666	565318.128773459346	0
2	1672	565960.458450575258	1
2	1674	565960.458450575258	0
2	1698	579325.01989685111	1
2	1700	579325.01989685111	0
2	1706	579929.283352256504	1
2	1708	579929.283352256504	0
2	1720	583826.358930867611	1
2	1728	584572.759891940202	0
2	1748	591999.162174236369	1
2	1750	591999.162174236369	0
2	1766	600768.930848762605	1
2	1768	600768.930848762605	0
2	1785	619612.032265501889	1
2	1787	619612.032265501889	0
2	1802	627865.850616633133	1
2	1804	627865.850616633133	0
2	1820	640104.455519060957	1
2	1822	640104.455519060957	0
2	1837	646881.146810857817	1
2	1839	646881.146810857817	0
2	1854	653604.136696505019	1
2	1856	653604.136696505019	0
2	1863	657170.026041194649	1
2	1865	657170.026041194649	0
2	1880	660579.103981355993	1
2	1882	660579.103981355993	0
2	1905	667756.993255674089	1
2	1907	667756.993255674089	0
2	1922	676409.730181900261	1
2	1924	676409.730181900261	0
2	1939	683766.644203792409	1
2	1941	683766.644203792409	0
2	1957	690596.735845775435	1
2	1959	690596.735845775435	0
2	1974	700866.098400440633	1
2	1976	700866.098400440633	0
2	1983	702375.550117680104	1
2	1985	702375.550117680104	0
2	1991	702908.727215379234	1
2	1993	702908.727215379234	0
2	1999	704189.457102523729	1
2	2001	704189.457102523729	0
2	2012	704834.497369436674	1
2	2017	705299.483570315389	0
2	2056	710514.982736381602	1
2	2058	710514.982736381602	0
2	2064	711817.088972410356	1
2	2066	711817.088972410356	0
2	2069	711902.161891534305	1
2	2074	712092.257534779377	0
2	2108	732225.352526652101	1
2	2110	732225.352526652101	0
2	2125	741364.339982636905	1
2	2127	741364.339982636905	0
2	2143	753128.157935698159	1
2	2145	753128.157935698159	0
2	2160	758360.985915449741	1
2	2162	758360.985915449741	0
2	2178	769146.040287926583	1
2	2180	769146.040287926583	0
2	2196	784266.953864345459	1
2	2198	784266.953864345459	0
2	2215	799992.573106631051	1
2	2217	799992.573106631051	0
2	2234	816469.289008053125	1
2	2236	816469.289008053125	0
2	2242	819188.759753477656	1
2	2244	819188.759753477656	0
2	2267	824126.2415524889	1
2	2269	824126.2415524889	0
2	2286	843769.279473963136	1
2	2288	843769.279473963136	0
2	2304	854038.37096769778	1
2	2306	854038.37096769778	0
2	2313	858150.584753672162	1
2	2315	858150.584753672162	0
2	2340	878970.08254150195	1
2	2342	878970.08254150195	0
2	2348	880920.466081126672	1
2	2350	880920.466081126672	0
2	2373	887643.064883276016	1
2	2375	887643.064883276016	0
2	2392	900510.88728018359	1
2	2394	900510.88728018359	0
2	2410	914969.814663780178	1
2	2412	914969.814663780178	0
2	2427	923419.582911432258	1
2	2429	923419.582911432258	0
2	2445	932099.453113199658	1
2	2447	932099.453113199658	0
2	2453	932492.305766766593	1
2	2455	932492.305766766593	0
2	2461	934334.914133458322	1
2	2463	934334.914133458322	0
2	2466	934516.151885746446	1
2	2471	934669.447285709189	0
2	2494	938043.167073492807	1
2	2499	938408.671932811993	0
2	2529	955772.309126300917	1
2	2531	955772.309126300917	0
2	2537	956751.522304590535	1
2	2539	956751.522304590535	0
2	2562	962639.374242428599	1
2	2564	962639.374242428599	0
2	2579	969467.207195160467	1
2	2581	969467.207195160467	0
2	2587	970412.187143654385	1
2	2589	970412.187143654385	0
2	2612	977069.045801940757	1
2	2614	977069.045801940757	0
2	2629	983112.060104278447	1
2	2631	983112.060104278447	0
2	2647	992903.112107536363	1
2	2649	992903.112107536363	0
2	2655	995921.29867263149	1
2	2657	995921.29867263149	0
2	2677	999872.551332243891	1
2	2682	1000416.349277582668	0
2	2697	1007879.916793473591	1
2	2699	1007879.916793473591	0
2	2706	1009929.950534635124	1
2	2708	1009929.950534635124	0
2	2719	1012417.227553254075	1
2	2724	1012661.127818466026	0
2	2736	1014559.589201972029	1
2	2741	1015110.027095159236	0
2	2747	1015636.181033856771	1
2	2749	1015636.181033856771	0
2	2780	1022671.901941483107	1
2	2782	1022671.901941483107	0
2	2789	1026066.118563345456	1
2	2791	1026066.118563345456	0
2	2814	1036146.5152127275	1
2	2816	1036146.5152127275	0
2	2828	1040103.774094018975	1
2	2833	1040967.636370875873	0
2	2849	1055689.441644353923	1
2	2851	1055689.441644353923	0
3	565	201168.898264540197	0
3	589	202972.267931891397	0
3	598	206443.649215959773	0
3	606	207309.195250909116	553.9148326348
3	631	212414.929249980462	0
3	647	214793.180446288705	121.79983296252
3	664	218411.13417405379	0
3	672	220640.520131583851	0
3	689	227953.710361782489	0
3	709	246814.454555711586	0
3	742	256910.92073414884	0
3	751	259256.751115469581	0
3	759	260159.202562000101	141.39530014972
3	784	265173.555128226894	0
3	792	268566.271228601471	0
3	809	273280.945866386131	0
3	826	277909.896408263036	0
3	859	287876.116893584042	0
3	868	288643.675158354597	421.05279024742
3	876	289620.068485280801	956.38724821762
3	902	303784.186643007921	0
3	919	307255.621375210247	0
3	943	310485.899672432878	0
3	960	313255.094340655603	0
3	968	314089.024776525452	821.31967164997
3	976	315768.282804991406	0
3	1009	320610.153292622273	0
3	1020	321621.664993057976	646.56538528335
3	1025	322358.073501528307	1139.8157995805
3	1050	327007.08272560634	0
3	1058	328073.075449621332	0
3	1076	337413.477327460112	0
3	1101	344674.115530830641	0
3	1109	345870.921842159443	0
3	1134	351743.667737532676	0
3	1142	352722.368173130999	297.28878313827
3	1184	363742.156353508141	0
3	1195	364681.878104295995	873.76902444114
3	1200	365440.143069470425	1257.9936447906
3	1209	367725.635159813757	0
3	1234	374211.629574260954	0
3	1242	375882.937390291303	0
3	1260	387571.460573733922	0
3	1295	403877.984048396078	0
3	1311	406826.827033517851	0
3	1319	407628.677896766986	681.68545185718
3	1344	410328.670769340294	0
3	1352	413039.985465904814	0
3	1360	413928.440509995056	489.61866506893
3	1379	426342.164525094252	0
3	1398	445880.394278920284	0
3	1442	471127.782488014232	214.29276743223
3	1450	473420.725381383855	0
3	1459	474270.149764617424	97.260994128256
3	1467	475219.188435528095	534.93931613805
3	1486	493930.801360768183	0
3	1503	499500.594406617245	0
3	1528	507531.742181943619	0
3	1536	508445.042431493875	704.8828297843
3	1553	513086.320454500031	0
3	1571	526300.091546211113	0
3	1597	539316.645674840279	0
3	1614	540583.167515574108	0
3	1622	544080.519440789436	0
3	1647	551472.945774926826	0
3	1656	553693.949743084267	0
3	1682	568868.800538316993	0
3	1690	569745.281173174941	629.89814588963
3	1717	583654.759317621671	0
3	1733	584897.442862992933	1000.6528479499
3	1742	589247.073530722587	0
3	1759	596258.169568015505	0
3	1776	604736.21390694594	0
3	1795	623748.577107611939	0
3	1813	632033.08430030032	0
3	1831	643895.405793001385	0
3	1848	651106.052743582005	0
3	1873	657596.393803121454	0
3	1890	661055.484200411801	0
3	1898	664768.84641846875	0
3	1916	672211.169230482559	0
3	1933	680407.293729270572	0
3	1950	687327.170489728401	0
3	1967	694216.309519647987	0
3	2009	704505.539593127671	172.67154276383
3	2025	706641.152204810868	0
3	2033	707429.025599382099	395.41446537829
3	2042	708368.27084311696	682.5604532731
3	2050	709434.526654971639	0
3	2083	714083.361226411728	0
3	2091	715710.541747440801	0
3	2099	716771.721971993678	750.70547598544
3	2118	735993.162245335274	0
3	2136	745593.13400518131	0
3	2154	756992.35814808095	0
3	2171	762320.556333819896	0
3	2188	772738.407487546506	0
3	2207	787572.966795836247	0
3	2226	804318.486615547344	0
3	2252	820785.676016957948	0
3	2261	822893.278947711311	0
3	2277	827374.286202699646	0
3	2297	847721.450830303205	0
3	2323	858461.759928854683	282.71588873637
3	2331	862004.037846228304	0
3	2359	882614.482524458465	0
3	2367	885492.222261719946	0
3	2384	891059.10652072215	0
3	2402	904060.980735373922	0
3	2421	918589.283351896903	0
3	2438	927324.749277053356	0
3	2480	936438.43690660142	0
3	2491	937518.057323531987	874.41451933941
3	2504	938691.408286730793	1468.7937683336
3	2512	939556.116526952549	240.96766042744
3	2521	942106.83462618299	0
3	2547	959670.812285670323	0
3	2556	960647.540906056606	0
3	2573	966449.265431303276	0
3	2598	973327.503353146237	0
3	2606	974206.952327214851	154.59383234246
3	2623	981301.746818292967	0
3	2640	986821.685642906886	0
3	2666	997248.016095399906	0
3	2674	999703.8784946331	0
3	2691	1003772.183657624027	0
3	2716	1011818.864285769211	0
3	2733	1014227.673881058065	0
3	2757	1016682.80754929482	0
3	2765	1018765.625920726816	0
3	2773	1019668.029278076354	641.81221725383
3	2799	1026387.399409921262	174.47383868951
3	2807	1030350.770749840022	0
3	2825	1040051.02110812638	0
3	2842	1044678.641004061051	0
3	2860	1059801.939786867774	0
4	563	201168.898264540197	1
4	565	201168.898264540197	0
4	587	202972.267931891397	1
4	589	202972.267931891397	0
4	596	206443.649215959773	1
4	598	206443.649215959773	0
4	601	206755.280418274317	1
4	606	207309.195250909116	0
4	629	212414.929249980462	1
4	631	212414.929249980462	0
4	642	214671.380613326183	1
4	647	214793.180446288705	0
4	662	218411.13417405379	1
4	664	218411.13417405379	0
4	670	220640.520131583851	1
4	672	220640.520131583851	0
4	687	227953.710361782489	1
4	689	227953.710361782489	0
4	707	246814.454555711586	1
4	709	246814.454555711586	0
4	740	256910.92073414884	1
4	742	256910.92073414884	0
4	749	259256.751115469581	1
4	751	259256.751115469581	0
4	754	260017.807261850377	1
4	759	260159.202562000101	0
4	782	265173.555128226894	1
4	784	265173.555128226894	0
4	790	268566.271228601471	1
4	792	268566.271228601471	0
4	807	273280.945866386131	1
4	809	273280.945866386131	0
4	824	277909.896408263036	1
4	826	277909.896408263036	0
4	857	287876.116893584042	1
4	859	287876.116893584042	0
4	863	288222.622368107172	1
4	868	288643.675158354597	0
4	871	288663.681237063178	1
4	876	289620.068485280801	0
4	900	303784.186643007921	1
4	902	303784.186643007921	0
4	917	307255.621375210247	1
4	919	307255.621375210247	0
4	941	310485.899672432878	1
4	943	310485.899672432878	0
4	958	313255.094340655603	1
4	960	313255.094340655603	0
4	963	313267.705104875484	1
4	968	314089.024776525452	0
4	974	315768.282804991406	1
4	976	315768.282804991406	0
4	1007	320610.153292622273	1
4	1009	320610.153292622273	0
4	1012	320975.099607774625	1
4	1015	321218.257701947793	2
4	1020	321621.664993057976	1
4	1025	322358.073501528307	0
4	1048	327007.08272560634	1
4	1050	327007.08272560634	0
4	1056	328073.075449621332	1
4	1058	328073.075449621332	0
4	1074	337413.477327460112	1
4	1076	337413.477327460112	0
4	1099	344674.115530830641	1
4	1101	344674.115530830641	0
4	1107	345870.921842159443	1
4	1109	345870.921842159443	0
4	1132	351743.667737532676	1
4	1134	351743.667737532676	0
4	1137	352425.079389992731	1
4	1142	352722.368173130999	0
4	1182	363742.156353508141	1
4	1184	363742.156353508141	0
4	1187	363808.109079854852	1
4	1190	364182.149424679846	2
4	1195	364681.878104295995	1
4	1200	365440.143069470425	0
4	1207	367725.635159813757	1
4	1209	367725.635159813757	0
4	1232	374211.629574260954	1
4	1234	374211.629574260954	0
4	1240	375882.937390291303	1
4	1242	375882.937390291303	0
4	1258	387571.460573733922	1
4	1260	387571.460573733922	0
4	1293	403877.984048396078	1
4	1295	403877.984048396078	0
4	1309	406826.827033517851	1
4	1311	406826.827033517851	0
4	1314	406946.992444909801	1
4	1319	407628.677896766986	0
4	1342	410328.670769340294	1
4	1344	410328.670769340294	0
4	1350	413039.985465904814	1
4	1352	413039.985465904814	0
4	1355	413438.821844926125	1
4	1360	413928.440509995056	0
4	1377	426342.164525094252	1
4	1379	426342.164525094252	0
4	1396	445880.394278920284	1
4	1398	445880.394278920284	0
4	1437	470913.489720581999	1
4	1442	471127.782488014232	0
4	1448	473420.725381383855	1
4	1450	473420.725381383855	0
4	1454	474172.888770489168	1
4	1459	474270.149764617424	0
4	1462	474684.249119390044	1
4	1467	475219.188435528095	0
4	1484	493930.801360768183	1
4	1486	493930.801360768183	0
4	1501	499500.594406617245	1
4	1503	499500.594406617245	0
4	1526	507531.742181943619	1
4	1528	507531.742181943619	0
4	1531	507740.159601709575	1
4	1536	508445.042431493875	0
4	1551	513086.320454500031	1
4	1553	513086.320454500031	0
4	1569	526300.091546211113	1
4	1571	526300.091546211113	0
4	1595	539316.645674840279	1
4	1597	539316.645674840279	0
4	1612	540583.167515574108	1
4	1614	540583.167515574108	0
4	1620	544080.519440789436	1
4	1622	544080.519440789436	0
4	1645	551472.945774926826	1
4	1647	551472.945774926826	0
4	1654	553693.949743084267	1
4	1656	553693.949743084267	0
4	1680	568868.800538316993	1
4	1682	568868.800538316993	0
4	1685	569115.383027285306	1
4	1690	569745.281173174941	0
4	1715	583654.759317621671	1
4	1717	583654.759317621671	0
4	1723	583896.790015043078	1
4	1733	584897.442862992933	0
4	1740	589247.073530722587	1
4	1742	589247.073530722587	0
4	1757	596258.169568015505	1
4	1759	596258.169568015505	0
4	1774	604736.21390694594	1
4	1776	604736.21390694594	0
4	1793	623748.577107611939	1
4	1795	623748.577107611939	0
4	1811	632033.08430030032	1
4	1813	632033.08430030032	0
4	1829	643895.405793001385	1
4	1831	643895.405793001385	0
4	1846	651106.052743582005	1
4	1848	651106.052743582005	0
4	1871	657596.393803121454	1
4	1873	657596.393803121454	0
4	1888	661055.484200411801	1
4	1890	661055.484200411801	0
4	1896	664768.84641846875	1
4	1898	664768.84641846875	0
4	1914	672211.169230482559	1
4	1916	672211.169230482559	0
4	1931	680407.293729270572	1
4	1933	680407.293729270572	0
4	1948	687327.170489728401	1
4	1950	687327.170489728401	0
4	1965	694216.309519647987	1
4	1967	694216.309519647987	0
4	2004	704332.868050363839	1
4	2009	704505.539593127671	0
4	2023	706641.152204810868	1
4	2025	706641.152204810868	0
4	2028	707033.611134003807	1
4	2033	707429.025599382099	0
4	2036	707685.710389843859	1
4	2042	708368.27084311696	0
4	2048	709434.526654971639	1
4	2050	709434.526654971639	0
4	2081	714083.361226411728	1
4	2083	714083.361226411728	0
4	2089	715710.541747440801	1
4	2091	715710.541747440801	0
4	2094	716021.016496008234	1
4	2099	716771.721971993678	0
4	2116	735993.162245335274	1
4	2118	735993.162245335274	0
4	2134	745593.13400518131	1
4	2136	745593.13400518131	0
4	2152	756992.35814808095	1
4	2154	756992.35814808095	0
4	2169	762320.556333819896	1
4	2171	762320.556333819896	0
4	2186	772738.407487546506	1
4	2188	772738.407487546506	0
4	2205	787572.966795836247	1
4	2207	787572.966795836247	0
4	2224	804318.486615547344	1
4	2226	804318.486615547344	0
4	2250	820785.676016957948	1
4	2252	820785.676016957948	0
4	2259	822893.278947711311	1
4	2261	822893.278947711311	0
4	2275	827374.286202699646	1
4	2277	827374.286202699646	0
4	2295	847721.450830303205	1
4	2297	847721.450830303205	0
4	2318	858179.044040118316	1
4	2323	858461.759928854683	0
4	2329	862004.037846228304	1
4	2331	862004.037846228304	0
4	2357	882614.482524458465	1
4	2359	882614.482524458465	0
4	2365	885492.222261719946	1
4	2367	885492.222261719946	0
4	2382	891059.10652072215	1
4	2384	891059.10652072215	0
4	2400	904060.980735373922	1
4	2402	904060.980735373922	0
4	2419	918589.283351896903	1
4	2421	918589.283351896903	0
4	2436	927324.749277053356	1
4	2438	927324.749277053356	0
4	2478	936438.43690660142	1
4	2480	936438.43690660142	0
4	2483	936643.642804192581	1
4	2486	937222.614518397203	2
4	2491	937518.057323531987	1
4	2504	938691.408286730793	0
4	2507	939315.148866525107	1
4	2512	939556.116526952549	0
4	2519	942106.83462618299	1
4	2521	942106.83462618299	0
4	2545	959670.812285670323	1
4	2547	959670.812285670323	0
4	2554	960647.540906056606	1
4	2556	960647.540906056606	0
4	2571	966449.265431303276	1
4	2573	966449.265431303276	0
4	2596	973327.503353146237	1
4	2598	973327.503353146237	0
4	2601	974052.358494872388	1
4	2606	974206.952327214851	0
4	2621	981301.746818292967	1
4	2623	981301.746818292967	0
4	2638	986821.685642906886	1
4	2640	986821.685642906886	0
4	2664	997248.016095399906	1
4	2666	997248.016095399906	0
4	2672	999703.8784946331	1
4	2674	999703.8784946331	0
4	2689	1003772.183657624027	1
4	2691	1003772.183657624027	0
4	2714	1011818.864285769211	1
4	2716	1011818.864285769211	0
4	2731	1014227.673881058065	1
4	2733	1014227.673881058065	0
4	2755	1016682.80754929482	1
4	2757	1016682.80754929482	0
4	2763	1018765.625920726816	1
4	2765	1018765.625920726816	0
4	2768	1019026.217060822521	1
4	2773	1019668.029278076354	0
4	2794	1026212.925571231754	1
4	2799	1026387.399409921262	0
4	2805	1030350.770749840022	1
4	2807	1030350.770749840022	0
4	2823	1040051.02110812638	1
4	2825	1040051.02110812638	0
4	2840	1044678.641004061051	1
4	2842	1044678.641004061051	0
4	2858	1059801.939786867774	1
4	2860	1059801.939786867774	0
5	594	204000	4
5	619	210000	1
5	652	216000	2
5	677	222000	1
5	691	228000	1
5	695	234000	0
5	696	240000	0
5	705	246000	1
5	714	252000	0
5	747	258000	3
5	772	264000	1
5	802	270000	1
5	822	276000	2
5	831	282000	0
5	861	288000	3
5	881	294000	0
5	882	300000	0
5	907	306000	2
5	953	312000	3
5	1005	318000	4
5	1035	324000	0
5	1063	330000	2
5	1072	336000	1
5	1089	342000	1
5	1122	348000	2
5	1147	354000	1
5	1161	360000	1
5	1202	366000	3
5	1222	372000	1
5	1247	378000	1
5	1256	384000	1
5	1265	390000	0
5	1266	396000	0
5	1275	402000	1
5	1321	408000	3
5	1362	414000	2
5	1366	420000	0
5	1375	426000	1
5	1384	432000	0
5	1385	438000	0
5	1394	444000	1
5	1403	450000	0
5	1404	456000	0
5	1405	462000	0
5	1414	468000	1
5	1452	474000	3
5	1472	480000	0
5	1473	486000	0
5	1482	492000	1
5	1499	498000	1
5	1521	504000	1
5	1549	510000	2
5	1558	516000	0
5	1559	522000	0
5	1576	528000	1
5	1577	534000	0
5	1599	540000	2
5	1627	546000	1
5	1649	552000	2
5	1661	558000	0
5	1662	564000	0
5	1692	570000	2
5	1696	576000	0
5	1713	582000	2
5	1738	588000	1
5	1755	594000	1
5	1764	600000	0
5	1781	606000	1
5	1782	612000	0
5	1783	618000	0
5	1797	624000	1
5	1809	630000	1
5	1818	636000	0
5	1827	642000	1
5	1844	648000	1
5	1861	654000	1
5	1878	660000	1
5	1903	666000	1
5	1912	672000	1
5	1929	678000	1
5	1943	684000	0
5	1955	690000	1
5	1972	696000	1
5	1981	702000	1
5	2038	708000	4
5	2079	714000	3
5	2104	720000	0
5	2105	726000	0
5	2106	732000	0
5	2123	738000	1
5	2132	744000	1
5	2141	750000	0
5	2150	756000	1
5	2167	762000	1
5	2176	768000	0
5	2193	774000	1
5	2194	780000	0
5	2203	786000	1
5	2212	792000	0
5	2213	798000	0
5	2222	804000	1
5	2231	810000	0
5	2232	816000	0
5	2257	822000	2
5	2279	828000	1
5	2283	834000	0
5	2284	840000	0
5	2293	846000	1
5	2302	852000	0
5	2311	858000	1
5	2336	864000	1
5	2337	870000	0
5	2338	876000	0
5	2355	882000	2
5	2380	888000	1
5	2389	894000	0
5	2390	900000	0
5	2407	906000	1
5	2408	912000	0
5	2417	918000	1
5	2434	924000	1
5	2443	930000	0
5	2476	936000	4
5	2517	942000	1
5	2526	948000	0
5	2527	954000	0
5	2549	960000	2
5	2569	966000	1
5	2594	972000	2
5	2619	978000	1
5	2636	984000	1
5	2645	990000	0
5	2659	996000	1
5	2687	1002000	2
5	2701	1008000	0
5	2729	1014000	3
5	2775	1020000	2
5	2787	1026000	1
5	2812	1032000	1
5	2821	1038000	1
5	2838	1044000	1
5	2847	1050000	0
5	2856	1056000	1
5	2865	1062000	0
6	594	204000	2
6	619	210000	2
6	652	216000	2
6	677	222000	2
6	691	228000	0
6	695	234000	1
6	696	240000	0
6	705	246000	0
6	714	252000	1
6	747	258000	1
6	772	264000	2
6	802	270000	2
6	822	276000	1
6	831	282000	1
6	861	288000	0
6	881	294000	3
6	882	300000	0
6	907	306000	1
6	953	312000	2
6	1005	318000	3
6	1035	324000	3
6	1063	330000	2
6	1072	336000	0
6	1089	342000	1
6	1122	348000	2
6	1147	354000	2
6	1161	360000	0
6	1202	366000	2
6	1222	372000	2
6	1247	378000	2
6	1256	384000	0
6	1265	390000	1
6	1266	396000	0
6	1275	402000	0
6	1321	408000	2
6	1362	414000	3
6	1366	420000	1
6	1375	426000	0
6	1384	432000	1
6	1385	438000	0
6	1394	444000	0
6	1403	450000	1
6	1404	456000	0
6	1405	462000	0
6	1414	468000	0
6	1452	474000	1
6	1472	480000	3
6	1473	486000	0
6	1482	492000	0
6	1499	498000	1
6	1521	504000	1
6	1549	510000	2
6	1558	516000	1
6	1559	522000	0
6	1576	528000	1
6	1577	534000	0
6	1599	540000	0
6	1627	546000	3
6	1649	552000	0
6	1661	558000	2
6	1662	564000	0
6	1692	570000	1
6	1696	576000	1
6	1713	582000	0
6	1738	588000	2
6	1755	594000	1
6	1764	600000	1
6	1781	606000	1
6	1782	612000	0
6	1783	618000	0
6	1797	624000	0
6	1809	630000	1
6	1818	636000	1
6	1827	642000	0
6	1844	648000	1
6	1861	654000	1
6	1878	660000	1
6	1903	666000	2
6	1912	672000	0
6	1929	678000	1
6	1943	684000	1
6	1955	690000	1
6	1972	696000	1
6	1981	702000	0
6	2038	708000	2
6	2079	714000	3
6	2104	720000	3
6	2105	726000	0
6	2106	732000	0
6	2123	738000	1
6	2132	744000	0
6	2141	750000	1
6	2150	756000	0
6	2167	762000	1
6	2176	768000	1
6	2193	774000	1
6	2194	780000	0
6	2203	786000	0
6	2212	792000	1
6	2213	798000	0
6	2222	804000	0
6	2231	810000	1
6	2232	816000	0
6	2257	822000	1
6	2279	828000	1
6	2283	834000	1
6	2284	840000	0
6	2293	846000	0
6	2302	852000	1
6	2311	858000	0
6	2336	864000	2
6	2337	870000	0
6	2338	876000	0
6	2355	882000	0
6	2380	888000	2
6	2389	894000	1
6	2390	900000	0
6	2407	906000	1
6	2408	912000	0
6	2417	918000	0
6	2434	924000	1
6	2443	930000	1
6	2476	936000	0
6	2517	942000	4
6	2526	948000	1
6	2527	954000	0
6	2549	960000	0
6	2569	966000	2
6	2594	972000	1
6	2619	978000	2
6	2636	984000	1
6	2645	990000	1
6	2659	996000	0
6	2687	1002000	2
6	2701	1008000	1
6	2729	1014000	1
6	2775	1020000	3
6	2787	1026000	1
6	2812	1032000	2
6	2821	1038000	0
6	2838	1044000	1
6	2847	1050000	1
6	2856	1056000	0
6	2865	1062000	1
7	562	201168.898264540197	1
7	579	202510.072943477283	2
7	584	202811.245628338668	3
7	586	202972.267931891397	2
7	595	206443.649215959773	1
7	600	206755.280418274317	0
7	617	208480.369074618193	1
7	626	210890.407628662415	2
7	628	212414.929249980462	1
7	641	214671.380613326183	0
7	645	214793.180446288705	1
7	659	216865.757651370136	2
7	661	218411.13417405379	1
7	669	220640.520131583851	0
7	684	224273.379904858482	1
7	686	227953.710361782489	0
7	703	243069.703306006977	1
7	706	246814.454555711586	0
7	721	253340.293041796774	1
7	729	255512.374070353854	2
7	737	255897.970388997047	3
7	739	256910.92073414884	2
7	748	259256.751115469581	1
7	753	260017.807261850377	0
7	770	261376.565965020921	1
7	779	264552.886056379157	2
7	781	265173.555128226894	1
7	789	268566.271228601471	0
7	804	270102.622299045656	1
7	806	273280.945866386131	0
7	820	274471.191659607139	1
7	823	277909.896408263036	0
7	838	283938.077883458501	1
7	846	284652.064610799387	2
7	854	285171.884068404642	3
7	856	287876.116893584042	2
7	862	288222.622368107172	1
7	870	288663.681237063178	0
7	889	300581.110882097601	1
7	897	303238.866709007245	2
7	899	303784.186643007921	1
7	914	306638.418895426552	2
7	916	307255.621375210247	1
7	930	309295.787150686235	2
7	938	309649.719060901348	3
7	940	310485.899672432878	2
7	955	312116.926858151008	3
7	957	313255.094340655603	2
7	962	313267.705104875484	1
7	973	315768.282804991406	0
7	990	316950.738105885794	1
7	995	317187.929752938849	2
7	1003	317836.138809049801	3
7	1006	320610.153292622273	2
7	1011	320975.099607774625	1
7	1014	321218.257701947793	0
7	1037	324026.867775157484	1
7	1045	324702.590922207662	2
7	1047	327007.08272560634	1
7	1055	328073.075449621332	0
7	1070	333305.374922834829	1
7	1073	337413.477327460112	0
7	1087	341525.922397666655	1
7	1096	342880.617940249397	2
7	1098	344674.115530830641	1
7	1106	345870.921842159443	0
7	1120	347456.269462437711	1
7	1129	349405.845623665867	2
7	1131	351743.667737532676	1
7	1136	352425.079389992731	0
7	1154	359227.08575366146	1
7	1166	360295.855028630358	2
7	1171	360632.100561838109	3
7	1179	363637.948015746576	4
7	1181	363742.156353508141	3
7	1186	363808.109079854852	2
7	1189	364182.149424679846	1
7	1206	367725.635159813757	0
7	1220	370267.617134863029	1
7	1229	372505.413072528758	2
7	1231	374211.629574260954	1
7	1239	375882.937390291303	0
7	1254	383858.412071142829	1
7	1257	387571.460573733922	0
7	1273	400737.428289995148	1
7	1285	403058.500198188468	2
7	1290	403361.869031675746	3
7	1292	403877.984048396078	2
7	1306	406576.074635778548	3
7	1308	406826.827033517851	2
7	1313	406946.992444909801	1
7	1331	408921.483651389387	2
7	1339	409787.297601246787	3
7	1341	410328.670769340294	2
7	1349	413039.985465904814	1
7	1354	413438.821844926125	0
7	1373	422609.514800582309	1
7	1376	426342.164525094252	0
7	1392	441424.952833780871	1
7	1395	445880.394278920284	0
7	1412	467322.05242298022	1
7	1421	469251.161827164701	2
7	1429	470445.216336497495	3
7	1436	470913.489720581999	2
7	1440	471127.782488014232	3
7	1447	473420.725381383855	2
7	1453	474172.888770489168	1
7	1461	474684.249119390044	0
7	1480	490173.470060229488	1
7	1483	493930.801360768183	0
7	1497	495725.354314734315	1
7	1500	499500.594406617245	0
7	1514	503618.904017892876	1
7	1523	504070.031013413881	2
7	1525	507531.742181943619	1
7	1530	507740.159601709575	0
7	1547	509559.051787752816	1
7	1550	513086.320454500031	0
7	1566	522407.213507669396	1
7	1568	526300.091546211113	0
7	1584	535665.810885045937	1
7	1592	536504.171115839206	2
7	1594	539316.645674840279	1
7	1609	540485.124115674534	2
7	1611	540583.167515574108	1
7	1619	544080.519440789436	0
7	1634	547704.467150544268	1
7	1642	550384.846115100991	2
7	1644	551472.945774926826	1
7	1653	553693.949743084267	0
7	1669	565629.627865556973	1
7	1677	566234.32160981084	2
7	1679	568868.800538316993	1
7	1684	569115.383027285306	0
7	1703	579641.83668522933	1
7	1711	580264.461508784298	2
7	1714	583654.759317621671	1
7	1722	583896.790015043078	0
7	1731	584897.442862992933	1
7	1739	589247.073530722587	0
7	1753	592278.627387648037	1
7	1756	596258.169568015505	0
7	1771	601122.93481293592	1
7	1773	604736.21390694594	0
7	1790	619882.387621218505	1
7	1792	623748.577107611939	0
7	1807	628110.944021082398	1
7	1810	632033.08430030032	0
7	1825	640418.912341150831	1
7	1828	643895.405793001385	0
7	1842	647130.320373984808	1
7	1845	651106.052743582005	0
7	1859	653952.834828108232	1
7	1868	657418.784897466717	2
7	1870	657596.393803121454	1
7	1885	660854.282724293136	2
7	1887	661055.484200411801	1
7	1895	664768.84641846875	0
7	1910	668086.648024493473	1
7	1913	672211.169230482559	0
7	1927	676780.125120963568	1
7	1930	680407.293729270572	0
7	1945	684058.012272122087	1
7	1947	687327.170489728401	0
7	1962	690862.906647587019	1
7	1964	694216.309519647987	0
7	1979	701176.294005040708	1
7	1988	702722.180638142334	2
7	1996	703254.121958771779	3
7	2003	704332.868050363839	2
7	2007	704505.539593127671	3
7	2020	705604.646609598054	4
7	2022	706641.152204810868	3
7	2027	707033.611134003807	2
7	2035	707685.710389843859	1
7	2047	709434.526654971639	0
7	2061	710840.525655108249	1
7	2072	712092.257534779377	2
7	2077	712365.550370076328	3
7	2080	714083.361226411728	2
7	2088	715710.541747440801	1
7	2093	716021.016496008234	0
7	2113	732501.621305164443	1
7	2115	735993.162245335274	0
7	2130	741628.782444978863	1
7	2133	745593.13400518131	0
7	2148	753424.396060486052	1
7	2151	756992.35814808095	0
7	2165	758676.10379404082	1
7	2168	762320.556333819896	0
7	2183	769414.924211304166	1
7	2185	772738.407487546506	0
7	2201	784563.447900599401	1
7	2204	787572.966795836247	0
7	2220	800254.974432044221	1
7	2223	804318.486615547344	0
7	2239	816797.173356260535	1
7	2247	819443.87945536916	2
7	2249	820785.676016957948	1
7	2258	822893.278947711311	0
7	2272	824423.890116702221	1
7	2274	827374.286202699646	0
7	2291	844098.237575582326	1
7	2294	847721.450830303205	0
7	2309	854344.728709273194	1
7	2317	858179.044040118316	0
7	2321	858461.759928854683	1
7	2328	862004.037846228304	0
7	2345	879242.026162027745	1
7	2353	881171.122824626451	2
7	2356	882614.482524458465	1
7	2364	885492.222261719946	0
7	2378	887970.012838667888	1
7	2381	891059.10652072215	0
7	2397	900752.982030198362	1
7	2399	904060.980735373922	0
7	2415	915228.456033306535	1
7	2418	918589.283351896903	0
7	2432	923736.091291023271	1
7	2435	927324.749277053356	0
7	2450	932444.15631173399	1
7	2458	932779.933156911532	2
7	2469	934669.447285709189	3
7	2474	934981.356517491275	4
7	2477	936438.43690660142	3
7	2482	936643.642804192581	2
7	2485	937222.614518397203	1
7	2502	938691.408286730793	2
7	2506	939315.148866525107	1
7	2518	942106.83462618299	0
7	2534	956035.766239326739	1
7	2542	957077.871936976489	2
7	2544	959670.812285670323	1
7	2553	960647.540906056606	0
7	2567	962907.611290245408	1
7	2570	966449.265431303276	0
7	2584	969749.183269564353	1
7	2592	970697.895625188338	2
7	2595	973327.503353146237	1
7	2600	974052.358494872388	0
7	2617	977385.264426171881	1
7	2620	981301.746818292967	0
7	2634	983385.355760309994	1
7	2637	986821.685642906886	0
7	2652	993232.873028849831	1
7	2661	996186.414212861187	2
7	2663	997248.016095399906	1
7	2671	999703.8784946331	0
7	2685	1000665.929660994312	1
7	2688	1003772.183657624027	0
7	2703	1008238.329826915477	1
7	2711	1010241.74251255324	2
7	2713	1011818.864285769211	1
7	2727	1012936.082772898974	2
7	2730	1014227.673881058065	1
7	2744	1015402.632593446679	2
7	2752	1015906.631714898244	3
7	2754	1016682.80754929482	2
7	2762	1018765.625920726816	1
7	2767	1019026.217060822521	0
7	2785	1022946.556981884753	1
7	2793	1026212.925571231754	0
7	2797	1026387.399409921262	1
7	2804	1030350.770749840022	0
7	2819	1036500.704401153648	1
7	2822	1040051.02110812638	0
7	2836	1041230.232237541164	1
7	2839	1044678.641004061051	0
7	2854	1055968.789820462985	1
7	2857	1059801.939786867774	0
