version 2
run ResponseMeasurement-143-20170110-19:43:18-22263
attr configname ResponseMeasurement
attr datetime 20170110-19:43:18
attr experiment ResponseMeasurement
attr inifile responseStudy.ini
attr iterationvars ""
attr iterationvars2 $repetition=143
attr measurement ""
attr network controltower.SimNetwork
attr processid 22263
attr repetition 143
attr replication #143
attr resultdir results
attr runnumber 143
attr seedset 143
param SimNetwork.a.parkingLot.parkingDelay "truncnormal(60min, 6min)"
param SimNetwork.a.runway.landingTime "truncnormal(5min, 0.5min)"
param SimNetwork.a.runway.takeoffTime "truncnormal(15min, 1.5min)"
param SimNetwork.a.runway.throughputCheckInterval 100min
param SimNetwork.wg.interArrivalTime exponential(100min)

vector 5  SimNetwork.a.runway  landedThroughput:vector  ETV
attr source  landedThroughputSignal
vector 6  SimNetwork.a.runway  tookoffThroughput:vector  ETV
attr source  tookoffThroughputSignal
vector 2  SimNetwork.a.landingQueue  queueLength:vector  ETV
attr source  queueLengthSignal
vector 1  SimNetwork.a.landingQueue  queueTime:vector  ETV
attr source  queueTimeSignal
vector 7  SimNetwork.a.parkingLot  parkingOccupancy:vector  ETV
attr source  parkingOccupancy
vector 4  SimNetwork.a.takeoffQueue  queueLength:vector  ETV
attr source  queueLengthSignal
vector 3  SimNetwork.a.takeoffQueue  queueTime:vector  ETV
attr source  queueTimeSignal
vector 0  SimNetwork.wg  responseTime:vector  ETV
attr source  responseTimeSignal
0	536	213925.326424817283	19292.185101848
0	546	215130.014872495456	6071.5103776148
0	555	216580.91883976214	7090.7445873861
0	563	218724.044155971277	6727.3027585797
0	588	225031.135107536181	11825.904584119
0	596	227763.192039496093	7990.3358002493
0	614	237271.934095984534	14625.249448013
0	632	249071.615101365065	16135.734526348
0	653	281245.725748249378	36788.788094609
0	680	298250.650043229012	22242.185730198
0	688	299675.424266261911	6045.4669201803
0	714	306149.687944858545	10644.716118311
0	725	309757.104146211306	8030.4590883371
0	739	314419.752293241286	9894.5551619263
0	756	319107.655130917684	9641.2719469415
0	781	324104.41033715985	9567.4579377093
0	789	325235.136463212272	5638.740685395
0	820	330455.288890922534	9648.3928824985
0	830	331653.811088366683	5835.4796448364
0	838	335358.264650499	9246.7357616262
0	856	344365.280869162764	14559.098979838
0	873	349604.139778286	10236.837906485
0	898	359416.010986813303	14969.330031799
0	907	361968.623742212966	7779.3388354109
0	932	368387.246319571121	11678.334222495
0	940	371586.864213245992	8327.1640006521
0	961	383468.834235342658	16747.605054386
0	991	388254.638797547919	9805.3970086711
0	1003	390725.678282804415	7550.9701888113
0	1014	391678.841400277496	6271.7921071337
0	1036	396277.684372127156	10647.727943941
0	1041	397297.976093573545	5876.6089228912
0	1062	412016.302015725182	20430.711672865
0	1076	416321.314894218808	8961.1169480591
0	1094	428678.932097948789	17289.56141062
0	1111	435680.252742592459	11428.946918205
0	1136	443916.013239896043	13196.306414878
0	1145	445897.824669617226	6749.5398247586
0	1163	458473.231235040485	17304.142136809
0	1188	467660.65346314744	13853.238621738
0	1200	468712.975208161324	5822.4761030068
0	1222	474063.479623430359	9652.4866507622
0	1238	477185.650381343412	8822.209203712
0	1246	479896.073706538073	6955.1600367767
0	1275	487579.17296538527	12788.421388192
0	1288	489445.892588781001	6659.5831458488
0	1297	492027.821993377698	7515.87629558
0	1323	509733.442754207526	22925.931527235
0	1332	512095.718247195703	7674.8192500191
0	1350	522542.378073369649	15939.192783487
0	1367	528193.676667370339	11067.145809645
0	1391	533847.684691316898	10168.552359
0	1400	537713.442957286227	8108.0372528166
0	1417	544925.514856910082	12400.116275467
0	1444	559718.765436017691	19291.572610364
0	1455	562497.292006724806	8525.9469812416
0	1469	567389.319842871622	9035.0255635315
0	1498	577359.116053797264	15314.083468229
0	1506	578296.584629886012	5639.8305755599
0	1520	582986.567592260318	9486.005213747
0	1546	595768.856103819918	18399.719103706
0	1554	597335.236755345333	6746.5095777483
0	1571	602929.547513384788	10574.333072694
0	1598	620732.071093473602	22364.217119042
0	1614	622915.848651388245	6825.06364826
0	1623	626007.534999523158	8325.1666331349
0	1640	632446.971185215196	11164.362056549
0	1657	641814.557672332734	14217.12909914
0	1678	648932.656333775098	11433.472819188
0	1702	653773.327388987229	9637.9125094283
0	1716	655015.345747757495	6692.0204589432
0	1732	658889.546520183371	9014.8402751103
0	1741	661186.203971421879	7547.3728608082
0	1761	667641.941503510551	11714.709631307
0	1791	672767.896142977983	9855.9370078625
0	1802	675521.320043853515	8305.2690581355
0	1807	676350.456558677553	5809.6093472308
0	1834	692126.364561538312	21272.321280658
0	1842	693498.999614911295	5936.6726727715
0	1860	706099.059172897114	17494.379217546
0	1878	717653.101162855627	16532.585619687
0	1903	725222.421709374396	12230.757475122
0	1915	726689.309954680319	6586.3781564745
0	1936	730757.173373729894	9489.0247421382
0	1945	732025.459570766446	6187.1690333531
0	1970	738524.198449276639	11579.969508887
0	1981	740168.047257670565	6716.6632879986
0	2003	745346.325890294988	9881.6919195982
0	2011	747924.188955934681	8498.43856067
0	2037	759624.939750088792	17303.07364755
0	2054	762757.744245568695	7523.9233172494
0	2078	764587.576739567596	6693.8017958567
0	2097	767495.647751073399	7831.514971962
0	2103	768469.272423335903	5452.8948149756
0	2111	770534.129792609723	7191.1946709489
0	2128	776633.670146323632	10722.222989291
0	2147	795232.773177025253	23157.199326339
0	2183	802578.256607037055	11970.730053211
0	2188	803451.613157228339	5831.1500516712
0	2197	805882.753861548804	8155.9248341848
0	2227	825865.926351475511	24814.611934055
0	2241	829208.660038604011	8506.1299779833
0	2249	830579.597464676985	6033.6863997094
0	2277	839169.936876476276	5044.6149134614
0	2283	840128.397794617532	15168.128230738
0	2315	855677.419313855446	21430.999336107
0	2342	859167.550925119174	7766.1933489262
0	2356	860373.94789636476	4792.2392188756
0	2369	861753.819981696147	7602.1868645559
0	2382	862954.914268265944	7371.1156071799
0	2391	865288.644369466814	7698.99269093
0	2399	866410.379226763659	6439.5429279862
0	2416	872276.908719764502	10563.011326449
0	2435	891469.789039828925	23793.30558353
0	2453	905134.910324785519	18280.604657768
0	2490	912676.121183555387	5560.3119256337
0	2495	913659.16943240496	13047.940228112
0	2511	915957.061990130802	7881.5621267328
0	2520	918543.521235501973	7212.152458135
0	2553	925701.036580625374	11209.764521647
0	2575	929012.201179359886	8122.8230466498
0	2586	930061.701786876751	6046.899294535
0	2594	932093.592311990641	7649.2761392444
0	2602	934033.056017387473	6879.0506882732
0	2634	964190.407375116094	35724.018229304
0	2653	965756.732133714129	5753.6441342063
0	2683	969243.892377109932	8764.4894757461
0	2694	970125.33800553195	6260.2027312086
0	2699	970933.578601396973	5967.3930498929
0	2704	971809.701355792133	6084.2202238859
0	2721	976168.277124598312	10227.514044287
0	2742	984362.580716088318	12488.316817308
0	2766	989326.707404358812	9844.6388887255
0	2772	990234.37701699402	6452.4342841204
0	2790	1003086.492223105342	18060.433678225
0	2820	1022602.457093150889	24092.758121636
0	2825	1023566.332062678718	5638.5109001773
0	2870	1034310.375623974278	5741.1968525832
0	2875	1035327.673401366809	17144.381163325
0	2886	1036229.064108310805	7079.4937122691
0	2900	1038148.355901079559	6299.7227319503
0	2908	1040700.670051541268	8432.8498903765
1	502	209058.504494880662	0
1	510	209490.174252376018	0
1	519	211996.741397391583	0
1	538	213925.326424817283	720.09590139963
1	568	219772.856239246826	0
1	577	222646.684647971269	0
1	602	232935.880575017123	0
1	620	244456.937653640669	0
1	642	276008.464313031153	0
1	660	293629.957346081629	0
1	669	295504.971826547727	0
1	694	301726.645057874201	0
1	702	304525.197131315002	0
1	727	309757.104146211306	290.72096223511
1	744	314536.95239945054	0
1	761	319596.39577781727	0
1	769	320806.896008424022	0
1	794	325818.331443530296	0
1	802	326111.528888872782	0
1	822	330455.288890922534	649.1070015981
1	844	339367.301871800886	0
1	861	344446.68095501473	0
1	879	354189.284906802098	0
1	887	356708.912097075859	0
1	912	363259.700212593915	0
1	921	366721.229180957034	0
1	947	378449.241788876818	0
1	963	383468.834235342658	294.12614134954
1	972	385407.049293143791	0
1	980	385716.293333828847	86.33690564317
1	1016	391678.841400277496	257.47422959512
1	1021	391962.175521812822	376.58517895228
1	1047	407360.197946159718	0
1	1064	412016.302015725182	626.93132839618
1	1082	424251.30582438725	0
1	1099	430719.706825018386	0
1	1117	439148.284844858622	0
1	1125	441169.089098231068	0
1	1151	453807.41484140959	0
1	1169	462890.499105154484	0
1	1177	464410.992972668178	0
1	1202	468712.975208161324	349.5340305299
1	1210	472940.913669761326	0
1	1227	474790.751577193205	0
1	1252	482786.309442932215	0
1	1260	484511.945697797707	0
1	1277	487579.17296538527	771.66173841241
1	1304	504420.898997176617	0
1	1312	506603.185289882853	0
1	1338	517126.530857725269	0
1	1355	523679.132332316575	0
1	1372	529605.405704469601	0
1	1380	532525.398581442817	0
1	1406	540427.192825653323	0
1	1424	553971.345025483243	0
1	1433	558354.294279340093	0
1	1457	562497.292006724806	452.25942115685
1	1475	572656.754054326083	0
1	1483	573500.562378513284	0
1	1508	578296.584629886012	927.44762977233
1	1526	590588.727177597056	0
1	1534	592355.214440690332	0
1	1559	598367.853974431854	0
1	1578	616090.785003128242	0
1	1586	617682.368366388237	0
1	1603	621282.60912866662	0
1	1628	627597.428573192918	0
1	1646	637499.183514586802	0
1	1663	644135.414879558954	0
1	1680	648932.656333775098	609.33104496077
1	1688	649874.7062450731	0
1	1704	653773.327388987229	134.49627837358
1	1721	655927.231872203622	0
1	1746	662911.959135115478	0
1	1763	667641.941503510551	425.89051779259
1	1771	670540.847211446743	0
1	1779	670854.043280880315	0
1	1814	687562.326942139751	0
1	1822	688604.679955351399	0
1	1848	701120.515543168351	0
1	1866	712991.664234252885	0
1	1884	720102.931798205841	0
1	1892	721268.148631591648	0
1	1917	726689.309954680319	851.01941726696
1	1925	727002.008030418977	57.779090028923
1	1950	733451.383969672006	0
1	1958	735464.633970696824	0
1	1983	740168.047257670565	742.29686240589
1	1991	742321.866102538835	0
1	2017	755233.820928319249	0
1	2026	757893.774943710887	0
1	2042	759664.132779111422	0
1	2059	763016.377608360332	0
1	2067	763342.93512166078	0
1	2083	765911.447157032629	0
1	2116	772075.573850686363	0
1	2135	790607.526553826127	0
1	2152	797620.463105557099	0
1	2160	797960.406770305387	233.57774294138
1	2169	801051.314417420456	0
1	2204	820702.530060620688	0
1	2213	824545.911064967564	0
1	2229	825865.926351475511	905.65678759568
1	2255	834125.321963014835	0
1	2263	834432.479209508097	186.05923175977
1	2289	851401.357576192949	0
1	2298	854151.633117140275	0
1	2317	855677.419313855446	95.710636366301
1	2322	855995.307896449329	411.50923536329
1	2330	857589.6516785368	0
1	2358	860373.94789636476	403.11159758728
1	2371	861753.819981696147	39.922588380249
1	2404	867676.483456298618	0
1	2423	886854.305667017866	0
1	2442	900611.22920429314	0
1	2459	907115.809257921644	0
1	2467	908075.499863398043	0
1	2475	911331.368777366955	0
1	2500	914491.272058978458	0
1	2525	920889.378132710106	0
1	2534	924014.802492341725	0
1	2542	924444.316172746289	0
1	2558	927154.005329114309	0
1	2577	929012.201179359886	545.8120335481
1	2612	960003.087999507786	0
1	2620	960479.402901363787	0
1	2636	964190.407375116094	325.27210079274
1	2655	965756.732133714129	790.54658221009
1	2664	966078.102842611302	352.62171070503
1	2669	966362.661448839078	421.89836852777
1	2709	971874.263898780464	0
1	2727	979482.068515633346	0
1	2744	984362.580716088318	580.63798321467
1	2752	985026.058544879879	0
1	2778	998509.698971514981	0
1	2797	1017927.821162501445	0
1	2805	1018211.8534900099	28.561251967696
1	2831	1028569.17877139105	0
1	2839	1029149.570396041754	0
1	2847	1031848.633169129281	0
1	2856	1032267.820161164791	0
1	2888	1036229.064108310805	871.05235939559
1	2917	1062030.38810040642	0
2	500	209058.504494880662	1
2	502	209058.504494880662	0
2	508	209490.174252376018	1
2	510	209490.174252376018	0
2	517	211996.741397391583	1
2	519	211996.741397391583	0
2	530	213205.230523417656	1
2	538	213925.326424817283	0
2	566	219772.856239246826	1
2	568	219772.856239246826	0
2	575	222646.684647971269	1
2	577	222646.684647971269	0
2	600	232935.880575017123	1
2	602	232935.880575017123	0
2	618	244456.937653640669	1
2	620	244456.937653640669	0
2	640	276008.464313031153	1
2	642	276008.464313031153	0
2	658	293629.957346081629	1
2	660	293629.957346081629	0
2	667	295504.971826547727	1
2	669	295504.971826547727	0
2	692	301726.645057874201	1
2	694	301726.645057874201	0
2	700	304525.197131315002	1
2	702	304525.197131315002	0
2	722	309466.383183976194	1
2	727	309757.104146211306	0
2	742	314536.95239945054	1
2	744	314536.95239945054	0
2	759	319596.39577781727	1
2	761	319596.39577781727	0
2	767	320806.896008424022	1
2	769	320806.896008424022	0
2	792	325818.331443530296	1
2	794	325818.331443530296	0
2	800	326111.528888872782	1
2	802	326111.528888872782	0
2	813	329806.181889324434	1
2	822	330455.288890922534	0
2	842	339367.301871800886	1
2	844	339367.301871800886	0
2	859	344446.68095501473	1
2	861	344446.68095501473	0
2	877	354189.284906802098	1
2	879	354189.284906802098	0
2	885	356708.912097075859	1
2	887	356708.912097075859	0
2	910	363259.700212593915	1
2	912	363259.700212593915	0
2	919	366721.229180957034	1
2	921	366721.229180957034	0
2	945	378449.241788876818	1
2	947	378449.241788876818	0
2	958	383174.708093993114	1
2	963	383468.834235342658	0
2	970	385407.049293143791	1
2	972	385407.049293143791	0
2	975	385629.956428185677	1
2	980	385716.293333828847	0
2	1008	391421.367170682377	1
2	1011	391585.590342860542	2
2	1016	391678.841400277496	1
2	1021	391962.175521812822	0
2	1045	407360.197946159718	1
2	1047	407360.197946159718	0
2	1059	411389.370687329002	1
2	1064	412016.302015725182	0
2	1080	424251.30582438725	1
2	1082	424251.30582438725	0
2	1097	430719.706825018386	1
2	1099	430719.706825018386	0
2	1115	439148.284844858622	1
2	1117	439148.284844858622	0
2	1123	441169.089098231068	1
2	1125	441169.089098231068	0
2	1149	453807.41484140959	1
2	1151	453807.41484140959	0
2	1167	462890.499105154484	1
2	1169	462890.499105154484	0
2	1175	464410.992972668178	1
2	1177	464410.992972668178	0
2	1197	468363.441177631422	1
2	1202	468712.975208161324	0
2	1208	472940.913669761326	1
2	1210	472940.913669761326	0
2	1225	474790.751577193205	1
2	1227	474790.751577193205	0
2	1250	482786.309442932215	1
2	1252	482786.309442932215	0
2	1258	484511.945697797707	1
2	1260	484511.945697797707	0
2	1272	486807.511226972857	1
2	1277	487579.17296538527	0
2	1302	504420.898997176617	1
2	1304	504420.898997176617	0
2	1310	506603.185289882853	1
2	1312	506603.185289882853	0
2	1336	517126.530857725269	1
2	1338	517126.530857725269	0
2	1353	523679.132332316575	1
2	1355	523679.132332316575	0
2	1370	529605.405704469601	1
2	1372	529605.405704469601	0
2	1378	532525.398581442817	1
2	1380	532525.398581442817	0
2	1404	540427.192825653323	1
2	1406	540427.192825653323	0
2	1422	553971.345025483243	1
2	1424	553971.345025483243	0
2	1431	558354.294279340093	1
2	1433	558354.294279340093	0
2	1452	562045.032585567953	1
2	1457	562497.292006724806	0
2	1473	572656.754054326083	1
2	1475	572656.754054326083	0
2	1481	573500.562378513284	1
2	1483	573500.562378513284	0
2	1503	577369.137000113686	1
2	1508	578296.584629886012	0
2	1524	590588.727177597056	1
2	1526	590588.727177597056	0
2	1532	592355.214440690332	1
2	1534	592355.214440690332	0
2	1557	598367.853974431854	1
2	1559	598367.853974431854	0
2	1576	616090.785003128242	1
2	1578	616090.785003128242	0
2	1584	617682.368366388237	1
2	1586	617682.368366388237	0
2	1601	621282.60912866662	1
2	1603	621282.60912866662	0
2	1626	627597.428573192918	1
2	1628	627597.428573192918	0
2	1644	637499.183514586802	1
2	1646	637499.183514586802	0
2	1661	644135.414879558954	1
2	1663	644135.414879558954	0
2	1675	648323.325288814329	1
2	1680	648932.656333775098	0
2	1686	649874.7062450731	1
2	1688	649874.7062450731	0
2	1699	653638.831110613646	1
2	1704	653773.327388987229	0
2	1719	655927.231872203622	1
2	1721	655927.231872203622	0
2	1744	662911.959135115478	1
2	1746	662911.959135115478	0
2	1758	667216.050985717966	1
2	1763	667641.941503510551	0
2	1769	670540.847211446743	1
2	1771	670540.847211446743	0
2	1777	670854.043280880315	1
2	1779	670854.043280880315	0
2	1812	687562.326942139751	1
2	1814	687562.326942139751	0
2	1820	688604.679955351399	1
2	1822	688604.679955351399	0
2	1846	701120.515543168351	1
2	1848	701120.515543168351	0
2	1864	712991.664234252885	1
2	1866	712991.664234252885	0
2	1882	720102.931798205841	1
2	1884	720102.931798205841	0
2	1890	721268.148631591648	1
2	1892	721268.148631591648	0
2	1911	725838.290537413354	1
2	1917	726689.309954680319	0
2	1920	726944.228940390054	1
2	1925	727002.008030418977	0
2	1948	733451.383969672006	1
2	1950	733451.383969672006	0
2	1956	735464.633970696824	1
2	1958	735464.633970696824	0
2	1978	739425.750395264673	1
2	1983	740168.047257670565	0
2	1989	742321.866102538835	1
2	1991	742321.866102538835	0
2	2015	755233.820928319249	1
2	2017	755233.820928319249	0
2	2024	757893.774943710887	1
2	2026	757893.774943710887	0
2	2040	759664.132779111422	1
2	2042	759664.132779111422	0
2	2057	763016.377608360332	1
2	2059	763016.377608360332	0
2	2065	763342.93512166078	1
2	2067	763342.93512166078	0
2	2081	765911.447157032629	1
2	2083	765911.447157032629	0
2	2114	772075.573850686363	1
2	2116	772075.573850686363	0
2	2133	790607.526553826127	1
2	2135	790607.526553826127	0
2	2150	797620.463105557099	1
2	2152	797620.463105557099	0
2	2155	797726.829027364009	1
2	2160	797960.406770305387	0
2	2167	801051.314417420456	1
2	2169	801051.314417420456	0
2	2202	820702.530060620688	1
2	2204	820702.530060620688	0
2	2211	824545.911064967564	1
2	2213	824545.911064967564	0
2	2224	824960.269563879829	1
2	2229	825865.926351475511	0
2	2253	834125.321963014835	1
2	2255	834125.321963014835	0
2	2258	834246.419977748325	1
2	2263	834432.479209508097	0
2	2287	851401.357576192949	1
2	2289	851401.357576192949	0
2	2296	854151.633117140275	1
2	2298	854151.633117140275	0
2	2309	855581.708677489145	1
2	2312	855583.79866108604	2
2	2317	855677.419313855446	1
2	2322	855995.307896449329	0
2	2328	857589.6516785368	1
2	2330	857589.6516785368	0
2	2353	859970.836298777485	1
2	2358	860373.94789636476	0
2	2366	861713.897393315898	1
2	2371	861753.819981696147	0
2	2402	867676.483456298618	1
2	2404	867676.483456298618	0
2	2421	886854.305667017866	1
2	2423	886854.305667017866	0
2	2440	900611.22920429314	1
2	2442	900611.22920429314	0
2	2457	907115.809257921644	1
2	2459	907115.809257921644	0
2	2465	908075.499863398043	1
2	2467	908075.499863398043	0
2	2473	911331.368777366955	1
2	2475	911331.368777366955	0
2	2498	914491.272058978458	1
2	2500	914491.272058978458	0
2	2523	920889.378132710106	1
2	2525	920889.378132710106	0
2	2532	924014.802492341725	1
2	2534	924014.802492341725	0
2	2540	924444.316172746289	1
2	2542	924444.316172746289	0
2	2556	927154.005329114309	1
2	2558	927154.005329114309	0
2	2572	928466.389145811782	1
2	2577	929012.201179359886	0
2	2610	960003.087999507786	1
2	2612	960003.087999507786	0
2	2618	960479.402901363787	1
2	2620	960479.402901363787	0
2	2631	963865.135274323357	1
2	2636	964190.407375116094	0
2	2647	964966.185551504036	1
2	2650	965725.481131906274	2
2	2655	965756.732133714129	1
2	2658	965940.76308031131	2
2	2664	966078.102842611302	1
2	2669	966362.661448839078	0
2	2707	971874.263898780464	1
2	2709	971874.263898780464	0
2	2725	979482.068515633346	1
2	2727	979482.068515633346	0
2	2738	983781.942732873651	1
2	2744	984362.580716088318	0
2	2750	985026.058544879879	1
2	2752	985026.058544879879	0
2	2776	998509.698971514981	1
2	2778	998509.698971514981	0
2	2795	1017927.821162501445	1
2	2797	1017927.821162501445	0
2	2800	1018183.292238042204	1
2	2805	1018211.8534900099	0
2	2829	1028569.17877139105	1
2	2831	1028569.17877139105	0
2	2837	1029149.570396041754	1
2	2839	1029149.570396041754	0
2	2845	1031848.633169129281	1
2	2847	1031848.633169129281	0
2	2854	1032267.820161164791	1
2	2856	1032267.820161164791	0
2	2883	1035358.011748915212	1
2	2888	1036229.064108310805	0
2	2915	1062030.38810040642	1
2	2917	1062030.38810040642	0
3	527	213044.954391177192	0
3	543	214229.164325185598	1016.2639465893
3	551	215769.201904480207	0
3	560	217771.062177111753	0
3	585	224006.917644191878	0
3	593	226803.373318311627	0
3	611	236123.36642613147	0
3	629	248227.162500061196	0
3	650	280323.550882062867	0
3	677	297475.365783133604	0
3	685	298952.469569716774	0
3	710	305354.081667799934	0
3	719	308853.874051910588	0
3	736	313334.895408689567	0
3	753	318228.209993204417	0
3	777	323243.442582927058	0
3	786	324120.018190915072	0
3	810	329513.401336844509	0
3	827	330747.896477675127	755.0862195687
3	835	334351.202779632704	0
3	853	343438.313400564855	0
3	870	348758.126802519974	0
3	895	358379.750807738876	0
3	904	361062.533119028632	0
3	929	367444.384737392322	0
3	937	370787.504295772941	0
3	955	382547.568495346731	0
3	988	387186.764174624647	0
3	996	389771.497257803651	0
3	1005	390725.678282804415	600.44225853998
3	1029	395537.019343849675	0
3	1038	396277.684372127156	136.51536651418
3	1056	411069.48892271882	0
3	1073	415464.688806239828	0
3	1091	427742.17100554034	0
3	1108	434836.801563477131	0
3	1133	443051.601323238298	0
3	1142	444878.797273496729	0
3	1160	457619.029570586278	0
3	1185	466863.952365503778	0
3	1193	467966.090183912587	0
3	1218	473224.770559894372	84.628220091924
3	1235	476272.389423454285	0
3	1243	478891.838316282306	0
3	1269	486663.232777551405	0
3	1285	488727.756780214142	0
3	1293	491253.676492130081	0
3	1320	508845.160186531523	0
3	1329	511247.023527686743	0
3	1346	521573.041434354405	0
3	1363	527394.018314495916	0
3	1388	532907.036996410391	0
3	1397	536787.700349306759	0
3	1414	544092.560249336575	0
3	1441	558633.071371134168	115.57826480869
3	1449	561682.821889523479	0
3	1466	566403.788563715213	0
3	1492	576478.20865568613	0
3	1500	577359.116053797264	84.225314679745
3	1517	582098.029382411112	0
3	1543	594799.759583796172	0
3	1551	596485.071155661424	0
3	1568	602077.061531476113	0
3	1595	619874.925613413059	0
3	1611	621780.337706915283	0
3	1620	625116.836166406194	0
3	1637	631501.322179771967	0
3	1654	641045.595894524345	0
3	1671	647996.077604387349	0
3	1696	652881.019450076249	0
3	1713	654104.986708805581	180.83765484968
3	1729	657981.799764543204	0
3	1738	660165.012574355658	0
3	1755	666518.881901115484	0
3	1787	671829.507420048249	0
3	1796	674695.626763921836	0
3	1804	675521.320043853515	527.23519857449
3	1831	691261.599729019446	0
3	1839	692446.848065031621	0
3	1857	705244.506065290337	0
3	1875	716784.895577571771	0
3	1900	724177.166285719338	0
3	1908	725690.762851740933	0
3	1933	729832.04151315832	0
3	1941	731132.636799590699	0
3	1966	737680.591577562963	0
3	1975	739297.142542580941	0
3	2000	744357.580705162421	0
3	2008	747051.14436187532	0
3	2034	758771.294854714587	0
3	2050	761931.101167590232	0
3	2075	763679.814020211644	105.49747126751
3	2091	766374.40262028634	0
3	2099	767495.647751073399	633.86149551864
3	2108	769492.522252698479	0
3	2125	775625.696414846166	0
3	2144	794450.722388510279	0
3	2177	801651.995723178221	0
3	2185	802578.256607037055	755.26712123342
3	2194	804994.968396798352	0
3	2221	824891.942854816173	234.18144378731
3	2238	828205.116058804307	0
3	2246	829750.194071294225	0
3	2271	838247.942294944649	0
3	2279	839169.936876476276	734.79821158015
3	2306	854765.255313691268	0
3	2339	858201.971964633809	0
3	2347	859416.679614353062	0
3	2363	860710.290656198052	1210.2432689924
3	2379	862040.0563855956	162.58866579141
3	2388	864413.534273475753	0
3	2396	865610.65370572943	0
3	2413	871368.838307586528	0
3	2432	890573.087761884508	0
3	2450	904258.962593101805	0
3	2483	911671.257684962016	301.02813721505
3	2492	912676.121183555387	798.22458738395
3	2508	915089.383450152506	0
3	2516	917719.800659191345	0
3	2550	924826.833709972544	0
3	2566	928227.352437700258	0
3	2582	929281.51137759823	988.58399283981
3	2591	931224.405334378474	0
3	2599	933233.708828130526	0
3	2628	963378.363026021258	0
3	2644	964923.111978584	0
3	2677	968301.056158810266	0
3	2685	969243.892377109932	247.69579156716
3	2696	970125.33800553195	807.30333296314
3	2701	970933.578601396973	1177.7483281894
3	2718	975232.136792617953	0
3	2735	983533.386855037293	0
3	2760	988455.584292456389	0
3	2768	989326.707404358812	18.56187249347
3	2787	1002072.384016012326	0
3	2814	1021619.607322090631	0
3	2822	1022602.457093150889	816.83592265818
3	2864	1033397.379588056415	0
3	2872	1034310.375623974278	841.16141852553
3	2880	1035351.332615851573	0
3	2896	1037181.202177594172	0
3	2905	1039807.603684130044	0
4	525	213044.954391177192	1
4	527	213044.954391177192	0
4	533	213212.900378596326	1
4	543	214229.164325185598	0
4	549	215769.201904480207	1
4	551	215769.201904480207	0
4	558	217771.062177111753	1
4	560	217771.062177111753	0
4	583	224006.917644191878	1
4	585	224006.917644191878	0
4	591	226803.373318311627	1
4	593	226803.373318311627	0
4	609	236123.36642613147	1
4	611	236123.36642613147	0
4	627	248227.162500061196	1
4	629	248227.162500061196	0
4	648	280323.550882062867	1
4	650	280323.550882062867	0
4	675	297475.365783133604	1
4	677	297475.365783133604	0
4	683	298952.469569716774	1
4	685	298952.469569716774	0
4	708	305354.081667799934	1
4	710	305354.081667799934	0
4	717	308853.874051910588	1
4	719	308853.874051910588	0
4	734	313334.895408689567	1
4	736	313334.895408689567	0
4	751	318228.209993204417	1
4	753	318228.209993204417	0
4	775	323243.442582927058	1
4	777	323243.442582927058	0
4	784	324120.018190915072	1
4	786	324120.018190915072	0
4	808	329513.401336844509	1
4	810	329513.401336844509	0
4	816	329992.810258106423	1
4	827	330747.896477675127	0
4	833	334351.202779632704	1
4	835	334351.202779632704	0
4	851	343438.313400564855	1
4	853	343438.313400564855	0
4	868	348758.126802519974	1
4	870	348758.126802519974	0
4	893	358379.750807738876	1
4	895	358379.750807738876	0
4	902	361062.533119028632	1
4	904	361062.533119028632	0
4	927	367444.384737392322	1
4	929	367444.384737392322	0
4	935	370787.504295772941	1
4	937	370787.504295772941	0
4	953	382547.568495346731	1
4	955	382547.568495346731	0
4	986	387186.764174624647	1
4	988	387186.764174624647	0
4	994	389771.497257803651	1
4	996	389771.497257803651	0
4	1000	390125.236024264437	1
4	1005	390725.678282804415	0
4	1027	395537.019343849675	1
4	1029	395537.019343849675	0
4	1033	396141.169005612975	1
4	1038	396277.684372127156	0
4	1054	411069.48892271882	1
4	1056	411069.48892271882	0
4	1071	415464.688806239828	1
4	1073	415464.688806239828	0
4	1089	427742.17100554034	1
4	1091	427742.17100554034	0
4	1106	434836.801563477131	1
4	1108	434836.801563477131	0
4	1131	443051.601323238298	1
4	1133	443051.601323238298	0
4	1140	444878.797273496729	1
4	1142	444878.797273496729	0
4	1158	457619.029570586278	1
4	1160	457619.029570586278	0
4	1183	466863.952365503778	1
4	1185	466863.952365503778	0
4	1191	467966.090183912587	1
4	1193	467966.090183912587	0
4	1213	473140.142339802448	1
4	1218	473224.770559894372	0
4	1233	476272.389423454285	1
4	1235	476272.389423454285	0
4	1241	478891.838316282306	1
4	1243	478891.838316282306	0
4	1267	486663.232777551405	1
4	1269	486663.232777551405	0
4	1283	488727.756780214142	1
4	1285	488727.756780214142	0
4	1291	491253.676492130081	1
4	1293	491253.676492130081	0
4	1318	508845.160186531523	1
4	1320	508845.160186531523	0
4	1327	511247.023527686743	1
4	1329	511247.023527686743	0
4	1344	521573.041434354405	1
4	1346	521573.041434354405	0
4	1361	527394.018314495916	1
4	1363	527394.018314495916	0
4	1386	532907.036996410391	1
4	1388	532907.036996410391	0
4	1395	536787.700349306759	1
4	1397	536787.700349306759	0
4	1412	544092.560249336575	1
4	1414	544092.560249336575	0
4	1436	558517.493106325473	1
4	1441	558633.071371134168	0
4	1447	561682.821889523479	1
4	1449	561682.821889523479	0
4	1464	566403.788563715213	1
4	1466	566403.788563715213	0
4	1490	576478.20865568613	1
4	1492	576478.20865568613	0
4	1495	577274.890739117519	1
4	1500	577359.116053797264	0
4	1515	582098.029382411112	1
4	1517	582098.029382411112	0
4	1541	594799.759583796172	1
4	1543	594799.759583796172	0
4	1549	596485.071155661424	1
4	1551	596485.071155661424	0
4	1566	602077.061531476113	1
4	1568	602077.061531476113	0
4	1593	619874.925613413059	1
4	1595	619874.925613413059	0
4	1609	621780.337706915283	1
4	1611	621780.337706915283	0
4	1618	625116.836166406194	1
4	1620	625116.836166406194	0
4	1635	631501.322179771967	1
4	1637	631501.322179771967	0
4	1652	641045.595894524345	1
4	1654	641045.595894524345	0
4	1669	647996.077604387349	1
4	1671	647996.077604387349	0
4	1694	652881.019450076249	1
4	1696	652881.019450076249	0
4	1707	653924.149053955899	1
4	1713	654104.986708805581	0
4	1727	657981.799764543204	1
4	1729	657981.799764543204	0
4	1736	660165.012574355658	1
4	1738	660165.012574355658	0
4	1753	666518.881901115484	1
4	1755	666518.881901115484	0
4	1785	671829.507420048249	1
4	1787	671829.507420048249	0
4	1794	674695.626763921836	1
4	1796	674695.626763921836	0
4	1799	674994.084845279029	1
4	1804	675521.320043853515	0
4	1829	691261.599729019446	1
4	1831	691261.599729019446	0
4	1837	692446.848065031621	1
4	1839	692446.848065031621	0
4	1855	705244.506065290337	1
4	1857	705244.506065290337	0
4	1873	716784.895577571771	1
4	1875	716784.895577571771	0
4	1898	724177.166285719338	1
4	1900	724177.166285719338	0
4	1906	725690.762851740933	1
4	1908	725690.762851740933	0
4	1931	729832.04151315832	1
4	1933	729832.04151315832	0
4	1939	731132.636799590699	1
4	1941	731132.636799590699	0
4	1964	737680.591577562963	1
4	1966	737680.591577562963	0
4	1973	739297.142542580941	1
4	1975	739297.142542580941	0
4	1998	744357.580705162421	1
4	2000	744357.580705162421	0
4	2006	747051.14436187532	1
4	2008	747051.14436187532	0
4	2032	758771.294854714587	1
4	2034	758771.294854714587	0
4	2048	761931.101167590232	1
4	2050	761931.101167590232	0
4	2070	763574.316548944132	1
4	2075	763679.814020211644	0
4	2089	766374.40262028634	1
4	2091	766374.40262028634	0
4	2094	766861.786255554763	1
4	2099	767495.647751073399	0
4	2106	769492.522252698479	1
4	2108	769492.522252698479	0
4	2123	775625.696414846166	1
4	2125	775625.696414846166	0
4	2142	794450.722388510279	1
4	2144	794450.722388510279	0
4	2175	801651.995723178221	1
4	2177	801651.995723178221	0
4	2180	801822.989485803631	1
4	2185	802578.256607037055	0
4	2192	804994.968396798352	1
4	2194	804994.968396798352	0
4	2216	824657.761411028862	1
4	2221	824891.942854816173	0
4	2236	828205.116058804307	1
4	2238	828205.116058804307	0
4	2244	829750.194071294225	1
4	2246	829750.194071294225	0
4	2269	838247.942294944649	1
4	2271	838247.942294944649	0
4	2274	838435.13866489613	1
4	2279	839169.936876476276	0
4	2304	854765.255313691268	1
4	2306	854765.255313691268	0
4	2337	858201.971964633809	1
4	2339	858201.971964633809	0
4	2345	859416.679614353062	1
4	2347	859416.679614353062	0
4	2350	859500.047387205621	1
4	2363	860710.290656198052	0
4	2374	861877.467719804187	1
4	2379	862040.0563855956	0
4	2386	864413.534273475753	1
4	2388	864413.534273475753	0
4	2394	865610.65370572943	1
4	2396	865610.65370572943	0
4	2411	871368.838307586528	1
4	2413	871368.838307586528	0
4	2430	890573.087761884508	1
4	2432	890573.087761884508	0
4	2448	904258.962593101805	1
4	2450	904258.962593101805	0
4	2478	911370.229547746965	1
4	2483	911671.257684962016	0
4	2486	911877.896596171432	1
4	2492	912676.121183555387	0
4	2506	915089.383450152506	1
4	2508	915089.383450152506	0
4	2514	917719.800659191345	1
4	2516	917719.800659191345	0
4	2548	924826.833709972544	1
4	2550	924826.833709972544	0
4	2564	928227.352437700258	1
4	2566	928227.352437700258	0
4	2569	928292.927384758416	1
4	2582	929281.51137759823	0
4	2589	931224.405334378474	1
4	2591	931224.405334378474	0
4	2597	933233.708828130526	1
4	2599	933233.708828130526	0
4	2626	963378.363026021258	1
4	2628	963378.363026021258	0
4	2642	964923.111978584	1
4	2644	964923.111978584	0
4	2675	968301.056158810266	1
4	2677	968301.056158810266	0
4	2680	968996.196585542776	1
4	2685	969243.892377109932	0
4	2688	969318.034672568805	1
4	2691	969755.830273207585	2
4	2696	970125.33800553195	1
4	2701	970933.578601396973	0
4	2716	975232.136792617953	1
4	2718	975232.136792617953	0
4	2733	983533.386855037293	1
4	2735	983533.386855037293	0
4	2758	988455.584292456389	1
4	2760	988455.584292456389	0
4	2763	989308.145531865342	1
4	2768	989326.707404358812	0
4	2785	1002072.384016012326	1
4	2787	1002072.384016012326	0
4	2812	1021619.607322090631	1
4	2814	1021619.607322090631	0
4	2817	1021785.621170492714	1
4	2822	1022602.457093150889	0
4	2862	1033397.379588056415	1
4	2864	1033397.379588056415	0
4	2867	1033469.214205448749	1
4	2872	1034310.375623974278	0
4	2878	1035351.332615851573	1
4	2880	1035351.332615851573	0
4	2894	1037181.202177594172	1
4	2896	1037181.202177594172	0
4	2903	1039807.603684130044	1
4	2905	1039807.603684130044	0
5	498	204000	0
5	515	210000	2
5	553	216000	2
5	573	222000	1
5	598	228000	1
5	607	234000	1
5	616	240000	0
5	625	246000	1
5	634	252000	0
5	635	258000	0
5	636	264000	0
5	637	270000	0
5	638	276000	0
5	655	282000	1
5	656	288000	0
5	665	294000	1
5	690	300000	1
5	712	306000	2
5	732	312000	1
5	749	318000	1
5	779	324000	2
5	818	330000	2
5	840	336000	1
5	849	342000	1
5	866	348000	1
5	875	354000	0
5	900	360000	2
5	917	366000	1
5	942	372000	1
5	943	378000	0
5	968	384000	2
5	998	390000	2
5	1031	396000	2
5	1043	402000	0
5	1052	408000	1
5	1069	414000	1
5	1078	420000	0
5	1087	426000	1
5	1104	432000	1
5	1113	438000	0
5	1138	444000	2
5	1147	450000	0
5	1156	456000	1
5	1165	462000	0
5	1195	468000	2
5	1220	474000	2
5	1248	480000	1
5	1265	486000	2
5	1295	492000	1
5	1299	498000	0
5	1300	504000	0
5	1325	510000	2
5	1334	516000	0
5	1348	522000	1
5	1365	528000	1
5	1393	534000	2
5	1402	540000	0
5	1419	546000	1
5	1420	552000	0
5	1429	558000	1
5	1462	564000	2
5	1471	570000	0
5	1488	576000	2
5	1513	582000	1
5	1522	588000	0
5	1539	594000	2
5	1564	600000	1
5	1573	606000	0
5	1574	612000	0
5	1591	618000	2
5	1616	624000	1
5	1633	630000	1
5	1642	636000	0
5	1659	642000	1
5	1673	648000	1
5	1709	654000	2
5	1734	660000	2
5	1751	666000	1
5	1789	672000	3
5	1809	678000	0
5	1810	684000	0
5	1827	690000	2
5	1844	696000	0
5	1853	702000	1
5	1862	708000	0
5	1871	714000	1
5	1880	720000	0
5	1913	726000	2
5	1943	732000	2
5	1968	738000	2
5	1996	744000	2
5	2013	750000	0
5	2022	756000	1
5	2052	762000	2
5	2101	768000	3
5	2121	774000	1
5	2130	780000	0
5	2131	786000	0
5	2140	792000	1
5	2162	798000	1
5	2190	804000	2
5	2199	810000	0
5	2200	816000	0
5	2209	822000	1
5	2234	828000	2
5	2251	834000	0
5	2281	840000	2
5	2285	846000	0
5	2294	852000	1
5	2335	858000	4
5	2384	864000	2
5	2409	870000	1
5	2418	876000	0
5	2419	882000	0
5	2428	888000	1
5	2437	894000	0
5	2438	900000	0
5	2455	906000	1
5	2488	912000	3
5	2518	918000	1
5	2530	924000	1
5	2584	930000	4
5	2604	936000	0
5	2605	942000	0
5	2606	948000	0
5	2607	954000	0
5	2608	960000	0
5	2660	966000	3
5	2711	972000	3
5	2723	978000	1
5	2740	984000	1
5	2770	990000	2
5	2774	996000	0
5	2783	1002000	1
5	2792	1008000	0
5	2793	1014000	0
5	2810	1020000	2
5	2827	1026000	0
5	2849	1032000	2
5	2898	1038000	3
5	2910	1044000	0
5	2911	1050000	0
5	2912	1056000	0
5	2913	1062000	0
6	498	204000	1
6	515	210000	0
6	553	216000	2
6	573	222000	2
6	598	228000	2
6	607	234000	0
6	616	240000	1
6	625	246000	0
6	634	252000	1
6	635	258000	0
6	636	264000	0
6	637	270000	0
6	638	276000	0
6	655	282000	1
6	656	288000	0
6	665	294000	0
6	690	300000	2
6	712	306000	0
6	732	312000	2
6	749	318000	1
6	779	324000	1
6	818	330000	2
6	840	336000	3
6	849	342000	0
6	866	348000	1
6	875	354000	1
6	900	360000	1
6	917	366000	1
6	942	372000	2
6	943	378000	0
6	968	384000	1
6	998	390000	1
6	1031	396000	2
6	1043	402000	2
6	1052	408000	0
6	1069	414000	1
6	1078	420000	1
6	1087	426000	0
6	1104	432000	1
6	1113	438000	1
6	1138	444000	1
6	1147	450000	1
6	1156	456000	0
6	1165	462000	1
6	1195	468000	1
6	1220	474000	1
6	1248	480000	3
6	1265	486000	0
6	1295	492000	2
6	1299	498000	1
6	1300	504000	0
6	1325	510000	1
6	1334	516000	1
6	1348	522000	0
6	1365	528000	1
6	1393	534000	2
6	1402	540000	1
6	1419	546000	1
6	1420	552000	0
6	1429	558000	0
6	1462	564000	2
6	1471	570000	1
6	1488	576000	0
6	1513	582000	2
6	1522	588000	1
6	1539	594000	0
6	1564	600000	2
6	1573	606000	1
6	1574	612000	0
6	1591	618000	0
6	1616	624000	2
6	1633	630000	1
6	1642	636000	1
6	1659	642000	1
6	1673	648000	0
6	1709	654000	2
6	1734	660000	2
6	1751	666000	1
6	1789	672000	1
6	1809	678000	3
6	1810	684000	0
6	1827	690000	0
6	1844	696000	2
6	1853	702000	0
6	1862	708000	1
6	1871	714000	0
6	1880	720000	1
6	1913	726000	1
6	1943	732000	2
6	1968	738000	1
6	1996	744000	2
6	2013	750000	2
6	2022	756000	0
6	2052	762000	1
6	2101	768000	3
6	2121	774000	2
6	2130	780000	1
6	2131	786000	0
6	2140	792000	0
6	2162	798000	1
6	2190	804000	2
6	2199	810000	1
6	2200	816000	0
6	2209	822000	0
6	2234	828000	1
6	2251	834000	2
6	2281	840000	1
6	2285	846000	1
6	2294	852000	0
6	2335	858000	1
6	2384	864000	4
6	2409	870000	2
6	2418	876000	1
6	2419	882000	0
6	2428	888000	0
6	2437	894000	1
6	2438	900000	0
6	2455	906000	1
6	2488	912000	0
6	2518	918000	3
6	2530	924000	1
6	2584	930000	2
6	2604	936000	3
6	2605	942000	0
6	2606	948000	0
6	2607	954000	0
6	2608	960000	0
6	2660	966000	2
6	2711	972000	4
6	2723	978000	1
6	2740	984000	0
6	2770	990000	2
6	2774	996000	1
6	2783	1002000	0
6	2792	1008000	1
6	2793	1014000	0
6	2810	1020000	0
6	2827	1026000	2
6	2849	1032000	0
6	2898	1038000	3
6	2910	1044000	2
6	2911	1050000	0
6	2912	1056000	0
6	2913	1062000	0
7	505	209367.233090515495	1
7	513	209727.311150494565	2
7	522	212317.681643064678	3
7	524	213044.954391177192	2
7	532	213212.900378596326	1
7	541	214229.164325185598	2
7	548	215769.201904480207	1
7	557	217771.062177111753	0
7	571	220085.576754029403	1
7	580	222969.794016042138	2
7	582	224006.917644191878	1
7	590	226803.373318311627	0
7	605	233264.967089598662	1
7	608	236123.36642613147	0
7	623	244770.965483943769	1
7	626	248227.162500061196	0
7	645	276315.906487432111	1
7	647	280323.550882062867	0
7	663	293903.282164678746	1
7	672	295814.577051943886	2
7	674	297475.365783133604	1
7	682	298952.469569716774	0
7	697	302014.830252735193	1
7	705	304837.260640755851	2
7	707	305354.081667799934	1
7	716	308853.874051910588	0
7	730	310110.429657395948	1
7	733	313334.895408689567	0
7	747	314845.673117207949	1
7	750	318228.209993204417	0
7	764	319898.194623437687	1
7	772	321103.115758083453	2
7	774	323243.442582927058	1
7	783	324120.018190915072	0
7	797	326053.344708665472	1
7	805	326403.955624294796	2
7	807	329513.401336844509	1
7	815	329992.810258106423	0
7	825	330747.896477675127	1
7	832	334351.202779632704	0
7	847	339653.889726533412	1
7	850	343438.313400564855	0
7	864	344770.995069745526	1
7	867	348758.126802519974	0
7	882	354483.384788598307	1
7	890	357018.860700349023	2
7	892	358379.750807738876	1
7	901	361062.533119028632	0
7	915	363588.916521601861	1
7	924	367023.831136945983	2
7	926	367444.384737392322	1
7	934	370787.504295772941	0
7	950	378761.051671971893	1
7	952	382547.568495346731	0
7	966	383796.088975176916	1
7	978	385716.293333828847	2
7	983	386042.233600193444	3
7	985	387186.764174624647	2
7	993	389771.497257803651	1
7	999	390125.236024264437	0
7	1019	391962.175521812822	1
7	1024	392242.147790503849	2
7	1026	395537.019343849675	1
7	1032	396141.169005612975	0
7	1050	407679.809232302125	1
7	1053	411069.48892271882	0
7	1067	412323.702479653917	1
7	1070	415464.688806239828	0
7	1085	424595.055543278822	1
7	1088	427742.17100554034	0
7	1102	431007.783413672142	1
7	1105	434836.801563477131	0
7	1120	439435.961523881565	1
7	1128	441509.248322933576	2
7	1130	443051.601323238298	1
7	1139	444878.797273496729	0
7	1154	454075.070053440953	1
7	1157	457619.029570586278	0
7	1172	463208.750477015617	1
7	1180	464678.478531968871	2
7	1182	466863.952365503778	1
7	1190	467966.090183912587	0
7	1205	469003.523854460318	1
7	1212	473140.142339802448	0
7	1216	473224.770559894372	1
7	1230	475086.358789346049	2
7	1232	476272.389423454285	1
7	1240	478891.838316282306	0
7	1255	483070.273257556972	1
7	1263	484803.433622524932	2
7	1266	486663.232777551405	1
7	1280	487838.245221046017	2
7	1282	488727.756780214142	1
7	1290	491253.676492130081	0
7	1307	504701.78765973412	1
7	1315	506890.764683432389	2
7	1317	508845.160186531523	1
7	1326	511247.023527686743	0
7	1341	517409.941624380478	1
7	1343	521573.041434354405	0
7	1358	523975.985088723625	1
7	1360	527394.018314495916	0
7	1375	529892.708827501459	1
7	1383	532878.253973735396	2
7	1385	532907.036996410391	1
7	1394	536787.700349306759	0
7	1409	540750.04134093743	1
7	1411	544092.560249336575	0
7	1427	554316.338980871989	1
7	1435	558517.493106325473	0
7	1439	558633.071371134168	1
7	1446	561682.821889523479	0
7	1460	562793.545913772516	1
7	1463	566403.788563715213	0
7	1478	572966.225990829502	1
7	1486	573784.223413758114	2
7	1489	576478.20865568613	1
7	1494	577274.890739117519	0
7	1511	578615.572870429967	1
7	1514	582098.029382411112	0
7	1529	590931.231266137922	1
7	1537	592706.792316426497	2
7	1540	594799.759583796172	1
7	1548	596485.071155661424	0
7	1562	598674.262111396741	1
7	1565	602077.061531476113	0
7	1581	616361.975161782698	1
7	1589	617967.180178317435	2
7	1592	619874.925613413059	1
7	1606	621591.373700132315	2
7	1608	621780.337706915283	1
7	1617	625116.836166406194	0
7	1631	627897.97788745053	1
7	1634	631501.322179771967	0
7	1649	637831.780241297506	1
7	1651	641045.595894524345	0
7	1666	644447.546843604124	1
7	1668	647996.077604387349	0
7	1683	649224.315854194989	1
7	1691	650162.693799362062	2
7	1693	652881.019450076249	1
7	1706	653924.149053955899	0
7	1711	654104.986708805581	1
7	1724	656199.329925847267	2
7	1726	657981.799764543204	1
7	1735	660165.012574355658	0
7	1749	663177.213705816573	1
7	1752	666518.881901115484	0
7	1766	667972.458571956808	1
7	1774	670840.413774267677	2
7	1782	671167.236279153487	3
7	1784	671829.507420048249	2
7	1793	674695.626763921836	1
7	1798	674994.084845279029	0
7	1817	687848.566598427981	1
7	1825	688925.392498730694	2
7	1828	691261.599729019446	1
7	1836	692446.848065031621	0
7	1851	701434.805296275292	1
7	1854	705244.506065290337	0
7	1869	713256.862935634111	1
7	1872	716784.895577571771	0
7	1887	720457.171008183404	1
7	1895	721560.476320657904	2
7	1897	724177.166285719338	1
7	1905	725690.762851740933	0
7	1923	727002.008030418977	1
7	1928	727266.423840209346	2
7	1930	729832.04151315832	1
7	1938	731132.636799590699	0
7	1953	733797.224563704397	1
7	1961	735790.410216745198	2
7	1963	737680.591577562963	1
7	1972	739297.142542580941	0
7	1986	740469.846208465538	1
7	1994	742568.658274224868	2
7	1997	744357.580705162421	1
7	2005	747051.14436187532	0
7	2020	755454.255915923216	1
7	2029	758242.891844771114	2
7	2031	758771.294854714587	1
7	2045	759923.835919243545	2
7	2047	761931.101167590232	1
7	2062	763313.034099666072	2
7	2069	763574.316548944132	1
7	2073	763679.814020211644	2
7	2086	766242.956328173814	3
7	2088	766374.40262028634	2
7	2093	766861.786255554763	1
7	2105	769492.522252698479	0
7	2119	772347.28298027941	1
7	2122	775625.696414846166	0
7	2138	790929.199332152986	1
7	2141	794450.722388510279	0
7	2158	797960.406770305387	1
7	2164	798239.119167804115	2
7	2172	801390.953817358881	3
7	2174	801651.995723178221	2
7	2179	801822.989485803631	1
7	2191	804994.968396798352	0
7	2207	821026.72069441877	1
7	2215	824657.761411028862	0
7	2219	824891.942854816173	1
7	2232	826178.113823724872	2
7	2235	828205.116058804307	1
7	2243	829750.194071294225	0
7	2261	834432.479209508097	1
7	2266	834734.294996376755	2
7	2268	838247.942294944649	1
7	2273	838435.13866489613	0
7	2292	851697.305350424662	1
7	2301	854478.402078161516	2
7	2303	854765.255313691268	1
7	2320	855995.307896449329	2
7	2325	856237.325413848439	3
7	2333	857936.41095149204	4
7	2336	858201.971964633809	3
7	2344	859416.679614353062	2
7	2349	859500.047387205621	1
7	2361	860710.290656198052	2
7	2373	861877.467719804187	1
7	2377	862040.0563855956	2
7	2385	864413.534273475753	1
7	2393	865610.65370572943	0
7	2407	868029.058364055416	1
7	2410	871368.838307586528	0
7	2426	887140.866097497096	1
7	2429	890573.087761884508	0
7	2445	900911.186126978706	1
7	2447	904258.962593101805	0
7	2462	907440.813268004421	1
7	2470	908334.189477497278	2
7	2477	911370.229547746965	1
7	2481	911671.257684962016	2
7	2485	911877.896596171432	1
7	2503	914763.671504510382	2
7	2505	915089.383450152506	1
7	2513	917719.800659191345	0
7	2528	921212.545295411846	1
7	2537	924308.923872946914	2
7	2545	924736.91422008102	3
7	2547	924826.833709972544	2
7	2561	927446.14539419706	3
7	2563	928227.352437700258	2
7	2568	928292.927384758416	1
7	2580	929281.51137759823	2
7	2588	931224.405334378474	1
7	2596	933233.708828130526	0
7	2615	960283.51938051085	1
7	2623	960822.688334146605	2
7	2625	963378.363026021258	1
7	2639	964483.415202906789	2
7	2641	964923.111978584	1
7	2662	966078.102842611302	2
7	2667	966362.661448839078	3
7	2672	966603.189720790721	4
7	2674	968301.056158810266	3
7	2679	968996.196585542776	2
7	2687	969318.034672568805	1
7	2690	969755.830273207585	0
7	2713	972134.694049417443	1
7	2715	975232.136792617953	0
7	2730	979795.852409874043	1
7	2732	983533.386855037293	0
7	2747	984685.328666420701	1
7	2755	985314.276379434269	2
7	2757	988455.584292456389	1
7	2762	989308.145531865342	0
7	2781	998785.556680600299	1
7	2784	1002072.384016012326	0
7	2803	1018211.8534900099	1
7	2808	1018525.676516535326	2
7	2811	1021619.607322090631	1
7	2816	1021785.621170492714	0
7	2834	1028885.735149491125	1
7	2842	1029452.985104117676	2
7	2851	1032111.601608641441	3
7	2859	1032622.080981336822	4
7	2861	1033397.379588056415	3
7	2866	1033469.214205448749	2
7	2877	1035351.332615851573	1
7	2891	1036568.176836170347	2
7	2893	1037181.202177594172	1
7	2902	1039807.603684130044	0
7	2920	1062291.28233159737	1
