version 2
run WarmupMeasurement-20-20170109-15:30:30-1732
attr configname WarmupMeasurement
attr datetime 20170109-15:30:30
attr experiment WarmupMeasurement
attr inifile responseStudy.ini
attr iterationvars ""
attr iterationvars2 $repetition=20
attr measurement ""
attr network controltower.SimNetwork
attr processid 1732
attr repetition 20
attr replication #20
attr resultdir results
attr runnumber 20
attr seedset 20
param SimNetwork.a.parkingLot.parkingDelay "truncnormal(60min, 6min)"
param SimNetwork.a.runway.landingTime "truncnormal(5min, 0.5min)"
param SimNetwork.a.runway.takeoffTime "truncnormal(15min, 1.5min)"
param SimNetwork.a.runway.throughputCheckInterval 100min
param SimNetwork.wg.interArrivalTime exponential(100min)

vector 2  SimNetwork.a.landingQueue  queueLength:vector  ETV
attr source  queueLengthSignal
vector 1  SimNetwork.a.landingQueue  queueTime:vector  ETV
attr source  queueTimeSignal
vector 7  SimNetwork.a.parkingLot  parkingOccupancy:vector  ETV
attr source  parkingOccupancy
vector 5  SimNetwork.a.runway  landedThroughput:vector  ETV
attr source  landedThroughputSignal
vector 6  SimNetwork.a.runway  tookoffThroughput:vector  ETV
attr source  tookoffThroughputSignal
vector 4  SimNetwork.a.takeoffQueue  queueLength:vector  ETV
attr source  queueLengthSignal
vector 3  SimNetwork.a.takeoffQueue  queueTime:vector  ETV
attr source  queueTimeSignal
vector 0  SimNetwork.wg  responseTime:vector  ETV
attr source  responseTimeSignal
0	16	10789.059303649154	10789.059303649
0	45	23071.409496407606	17749.112832256
0	50	23985.966980014268	5559.5652047114
0	69	41754.864561447442	23109.166080765
0	95	49313.576871276548	12639.040456706
0	103	51415.112173935886	7132.5805232252
0	120	59682.595535019382	13125.451825097
0	144	85762.211253723153	30856.485620705
0	166	90087.904619471227	9072.3147969057
0	174	92018.530940769702	6934.7959960815
0	199	98066.727001756135	10937.662020729
0	226	101233.294661600441	7791.8089703927
0	246	103814.912945303351	6880.4653345902
0	256	105067.934786327748	6297.3613035033
0	264	106114.508271348635	7042.2215686529
0	281	108776.523970736783	7914.0065820465
0	289	111407.479897832037	8152.6329816032
0	311	131648.844148027487	25241.980531947
0	328	136242.53974802925	9206.6111095783
0	353	141861.662977439771	10651.738168051
0	366	142909.52540419333	7003.7506847148
0	375	146554.553792981973	8577.8253922838
0	393	158028.756832959001	16985.675939502
0	411	168560.730071704939	14866.523646106
0	431	175668.233967207641	12012.766882508
0	456	180938.236734097241	5657.0576418617
0	461	181874.144248712198	11084.159485424
0	481	189336.433679099941	13372.160836032
0	498	193398.867834951172	8548.0318033761
0	527	197672.845567559735	8479.2300210039
0	550	200135.263259853165	7180.2590811484
0	560	201282.479469671816	5702.5265470319
0	572	204293.440352295111	8212.7394683649
0	577	205165.014399023667	6297.0249428718
0	596	224040.284352841723	24455.863627334
0	622	236459.728330377062	17146.89427269
0	638	239618.597095877657	8501.3915657927
0	655	241755.249293072538	6919.5022614178
0	671	245364.214678827704	8209.0385148544
0	688	248691.869895836923	8046.2437865119
0	696	250850.769407072311	7194.4922993577
0	714	259647.334167714935	14202.119338058
0	732	271163.808724348249	16386.754934233
0	761	286319.893771039313	19465.86582364
0	775	288937.069166426125	7430.9577444966
0	789	290798.995087297303	7355.6490453401
0	811	295374.984256125623	9074.8455389082
0	816	296411.468178026825	6065.9422192824
0	836	301464.094566315881	10732.580657153
0	849	305948.526779694162	9441.967706314
0	869	324288.382233059339	23321.617426004
0	886	330424.821184465517	10525.389823785
0	905	349252.579330020715	23403.37664199
0	935	367535.667836328012	23552.222195528
0	940	368521.504271107005	5471.4924837624
0	959	384315.022814679099	20257.309684857
0	977	399151.581973834745	19814.241717425
0	1003	413539.034668793335	18883.424909208
0	1012	417123.514750447719	7814.5910845482
0	1030	427648.942774639095	15300.537998
1	4	5322.296664152064	0
1	23	18426.401775302822	0
1	31	18711.049248554574	65.350767872532
1	58	36674.536414570066	0
1	75	44282.531650710666	0
1	83	46557.143709922617	0
1	109	54905.725633018097	0
1	129	81015.589822565549	0
1	146	85762.211253723153	678.47630903494
1	154	87129.064981027298	0
1	179	93441.485691207712	0
1	188	96934.447610713135	0
1	204	98770.573482824398	0
1	212	99072.286702695738	0
1	228	101233.294661600441	370.77727291016
1	248	103814.912945303351	560.06602907454
1	269	106406.863616080101	0
1	297	127035.928638450921	0
1	313	131648.844148027487	438.91933863921
1	330	136242.53974802925	336.76502855075
1	338	137976.72840069821	0
1	355	141861.662977439771	818.58208398271
1	381	153694.206425598636	0
1	399	163655.467084699332	0
1	416	170789.98476328791	0
1	433	175668.233967207641	387.05487497211
1	441	175998.489359190796	34.216516122737
1	466	184850.836031575097	0
1	483	189336.433679099941	142.81813254412
1	500	193398.867834951172	443.86365624639
1	508	195579.952922639904	0
1	516	196080.700883930166	0
1	533	198867.989456151818	0
1	552	200135.263259853165	550.84253434546
1	584	219312.834057686571	0
1	602	231117.205530084969	0
1	611	234835.747031654772	0
1	627	237155.17616397335	0
1	644	240645.626109325008	0
1	660	243656.277107714614	0
1	676	245445.214829657335	0
1	702	254777.053790115399	0
1	720	266854.027947399657	0
1	738	281506.111421929483	0
1	747	283443.34604195724	0
1	763	286319.893771039313	19.755053821904
1	791	290798.995087297303	453.46912855291
1	796	291141.350157202059	409.83624803901
1	821	296506.559073380192	0
1	838	301464.094566315881	497.32975926085
1	857	319899.431360680761	0
1	874	325849.202688030755	0
1	893	343983.445640799811	0
1	912	363050.011787344599	0
1	920	364057.71312982204	0
1	947	379337.340256410208	0
1	965	394655.609759584966	0
1	984	409308.92366589956	0
1	992	412348.404776639519	0
1	1018	423476.320302584879	0
2	2	5322.296664152064	1
2	4	5322.296664152064	0
2	21	18426.401775302822	1
2	23	18426.401775302822	0
2	26	18645.698480682042	1
2	31	18711.049248554574	0
2	56	36674.536414570066	1
2	58	36674.536414570066	0
2	73	44282.531650710666	1
2	75	44282.531650710666	0
2	81	46557.143709922617	1
2	83	46557.143709922617	0
2	107	54905.725633018097	1
2	109	54905.725633018097	0
2	127	81015.589822565549	1
2	129	81015.589822565549	0
2	141	85083.734944688214	1
2	146	85762.211253723153	0
2	152	87129.064981027298	1
2	154	87129.064981027298	0
2	177	93441.485691207712	1
2	179	93441.485691207712	0
2	186	96934.447610713135	1
2	188	96934.447610713135	0
2	202	98770.573482824398	1
2	204	98770.573482824398	0
2	210	99072.286702695738	1
2	212	99072.286702695738	0
2	223	100862.517388690284	1
2	228	101233.294661600441	0
2	243	103254.846916228807	1
2	248	103814.912945303351	0
2	267	106406.863616080101	1
2	269	106406.863616080101	0
2	295	127035.928638450921	1
2	297	127035.928638450921	0
2	308	131209.924809388278	1
2	313	131648.844148027487	0
2	325	135905.774719478496	1
2	330	136242.53974802925	0
2	336	137976.72840069821	1
2	338	137976.72840069821	0
2	350	141043.080893457056	1
2	355	141861.662977439771	0
2	379	153694.206425598636	1
2	381	153694.206425598636	0
2	397	163655.467084699332	1
2	399	163655.467084699332	0
2	414	170789.98476328791	1
2	416	170789.98476328791	0
2	428	175281.179092235533	1
2	433	175668.233967207641	0
2	436	175964.272843068059	1
2	441	175998.489359190796	0
2	464	184850.836031575097	1
2	466	184850.836031575097	0
2	478	189193.615546555817	1
2	483	189336.433679099941	0
2	495	192955.004178704782	1
2	500	193398.867834951172	0
2	506	195579.952922639904	1
2	508	195579.952922639904	0
2	514	196080.700883930166	1
2	516	196080.700883930166	0
2	531	198867.989456151818	1
2	533	198867.989456151818	0
2	547	199584.420725507707	1
2	552	200135.263259853165	0
2	582	219312.834057686571	1
2	584	219312.834057686571	0
2	600	231117.205530084969	1
2	602	231117.205530084969	0
2	609	234835.747031654772	1
2	611	234835.747031654772	0
2	625	237155.17616397335	1
2	627	237155.17616397335	0
2	642	240645.626109325008	1
2	644	240645.626109325008	0
2	658	243656.277107714614	1
2	660	243656.277107714614	0
2	674	245445.214829657335	1
2	676	245445.214829657335	0
2	700	254777.053790115399	1
2	702	254777.053790115399	0
2	718	266854.027947399657	1
2	720	266854.027947399657	0
2	736	281506.111421929483	1
2	738	281506.111421929483	0
2	745	283443.34604195724	1
2	747	283443.34604195724	0
2	758	286300.138717217409	1
2	763	286319.893771039313	0
2	783	290345.525958744397	1
2	786	290731.513909163052	2
2	791	290798.995087297303	1
2	796	291141.350157202059	0
2	819	296506.559073380192	1
2	821	296506.559073380192	0
2	833	300966.764807055033	1
2	838	301464.094566315881	0
2	855	319899.431360680761	1
2	857	319899.431360680761	0
2	872	325849.202688030755	1
2	874	325849.202688030755	0
2	891	343983.445640799811	1
2	893	343983.445640799811	0
2	910	363050.011787344599	1
2	912	363050.011787344599	0
2	918	364057.71312982204	1
2	920	364057.71312982204	0
2	945	379337.340256410208	1
2	947	379337.340256410208	0
2	963	394655.609759584966	1
2	965	394655.609759584966	0
2	982	409308.92366589956	1
2	984	409308.92366589956	0
2	990	412348.404776639519	1
2	992	412348.404776639519	0
2	1016	423476.320302584879	1
2	1018	423476.320302584879	0
3	13	10008.680225986566	0
3	39	22147.41615671698	0
3	47	23071.409496407606	138.35244516324
3	66	40826.351730533429	0
3	92	48368.689719453249	0
3	100	50447.47178746598	0
3	117	58930.39679484463	0
3	138	85040.004895666392	0
3	162	89164.956812593466	0
3	171	91266.7089610386	0
3	196	97222.862760237815	178.53060052623
3	220	100394.730806923837	0
3	237	103016.524737321686	0
3	253	104115.871041055573	889.22293099636
3	261	105264.218752924331	0
3	277	107825.978536647036	0
3	286	110409.797861259722	0
3	305	130820.99939635309	0
3	322	135401.149467131366	0
3	347	140780.614407685397	0
3	363	142240.395530147353	0
3	372	145686.66673910071	0
3	390	157121.756143709482	0
3	407	167748.206722748537	0
3	425	174694.814839700697	0
3	450	180008.512423371755	0
3	458	180938.236734097241	897.32679627838
3	475	188428.267209556992	0
3	492	192557.21723317998	0
3	524	196788.229126881408	0
3	541	199302.470836851439	0
3	557	200465.588208718864	1086.59726071
3	565	203253.831391627659	0
3	574	204293.440352295111	212.39889392816
3	593	223164.281106762481	0
3	619	235475.301502404191	0
3	635	238729.688986844515	0
3	652	241015.026813934838	0
3	668	244277.379511766698	0
3	685	247683.257987529234	0
3	693	249805.326516286421	0
3	711	258750.210392840756	0
3	729	270164.810828611023	0
3	755	285294.669757360841	0
3	772	288239.808738212787	0
3	780	289902.07805430817	0
3	805	294412.934304770766	0
3	813	295374.984256125623	451.78040259536
3	830	300630.923829017844	0
3	846	305163.691252240337	0
3	865	323468.805754556112	0
3	882	329469.588656465291	0
3	902	348229.322495327386	0
3	929	366589.724588240254	0
3	937	367535.667836328012	120.95089927234
3	955	383389.229518048013	0
3	974	398027.479476978583	0
3	1000	412607.961307644515	53.97628082131
3	1009	416268.347405745818	0
3	1027	426924.942486624639	0
4	11	10008.680225986566	1
4	13	10008.680225986566	0
4	37	22147.41615671698	1
4	39	22147.41615671698	0
4	42	22933.057051244361	1
4	47	23071.409496407606	0
4	64	40826.351730533429	1
4	66	40826.351730533429	0
4	90	48368.689719453249	1
4	92	48368.689719453249	0
4	98	50447.47178746598	1
4	100	50447.47178746598	0
4	115	58930.39679484463	1
4	117	58930.39679484463	0
4	136	85040.004895666392	1
4	138	85040.004895666392	0
4	160	89164.956812593466	1
4	162	89164.956812593466	0
4	169	91266.7089610386	1
4	171	91266.7089610386	0
4	191	97044.332159711586	1
4	196	97222.862760237815	0
4	218	100394.730806923837	1
4	220	100394.730806923837	0
4	235	103016.524737321686	1
4	237	103016.524737321686	0
4	240	103226.648110059216	1
4	253	104115.871041055573	0
4	259	105264.218752924331	1
4	261	105264.218752924331	0
4	275	107825.978536647036	1
4	277	107825.978536647036	0
4	284	110409.797861259722	1
4	286	110409.797861259722	0
4	303	130820.99939635309	1
4	305	130820.99939635309	0
4	320	135401.149467131366	1
4	322	135401.149467131366	0
4	345	140780.614407685397	1
4	347	140780.614407685397	0
4	361	142240.395530147353	1
4	363	142240.395530147353	0
4	370	145686.66673910071	1
4	372	145686.66673910071	0
4	388	157121.756143709482	1
4	390	157121.756143709482	0
4	405	167748.206722748537	1
4	407	167748.206722748537	0
4	423	174694.814839700697	1
4	425	174694.814839700697	0
4	448	180008.512423371755	1
4	450	180008.512423371755	0
4	453	180040.909937818859	1
4	458	180938.236734097241	0
4	473	188428.267209556992	1
4	475	188428.267209556992	0
4	490	192557.21723317998	1
4	492	192557.21723317998	0
4	522	196788.229126881408	1
4	524	196788.229126881408	0
4	539	199302.470836851439	1
4	541	199302.470836851439	0
4	544	199378.990948008837	1
4	557	200465.588208718864	0
4	563	203253.831391627659	1
4	565	203253.831391627659	0
4	569	204081.041458366954	1
4	574	204293.440352295111	0
4	591	223164.281106762481	1
4	593	223164.281106762481	0
4	617	235475.301502404191	1
4	619	235475.301502404191	0
4	633	238729.688986844515	1
4	635	238729.688986844515	0
4	650	241015.026813934838	1
4	652	241015.026813934838	0
4	666	244277.379511766698	1
4	668	244277.379511766698	0
4	683	247683.257987529234	1
4	685	247683.257987529234	0
4	691	249805.326516286421	1
4	693	249805.326516286421	0
4	709	258750.210392840756	1
4	711	258750.210392840756	0
4	727	270164.810828611023	1
4	729	270164.810828611023	0
4	753	285294.669757360841	1
4	755	285294.669757360841	0
4	770	288239.808738212787	1
4	772	288239.808738212787	0
4	778	289902.07805430817	1
4	780	289902.07805430817	0
4	803	294412.934304770766	1
4	805	294412.934304770766	0
4	808	294923.203853530265	1
4	813	295374.984256125623	0
4	828	300630.923829017844	1
4	830	300630.923829017844	0
4	844	305163.691252240337	1
4	846	305163.691252240337	0
4	863	323468.805754556112	1
4	865	323468.805754556112	0
4	880	329469.588656465291	1
4	882	329469.588656465291	0
4	900	348229.322495327386	1
4	902	348229.322495327386	0
4	927	366589.724588240254	1
4	929	366589.724588240254	0
4	932	367414.716937055674	1
4	937	367535.667836328012	0
4	953	383389.229518048013	1
4	955	383389.229518048013	0
4	972	398027.479476978583	1
4	974	398027.479476978583	0
4	995	412553.985026823205	1
4	1000	412607.961307644515	0
4	1007	416268.347405745818	1
4	1009	416268.347405745818	0
4	1025	426924.942486624639	1
4	1027	426924.942486624639	0
5	9	6000	1
5	18	12000	0
5	19	18000	0
5	52	24000	2
5	53	30000	0
5	54	36000	0
5	71	42000	1
5	88	48000	2
5	105	54000	0
5	122	60000	1
5	123	66000	0
5	124	72000	0
5	125	78000	0
5	134	84000	1
5	164	90000	2
5	184	96000	1
5	233	102000	4
5	279	108000	2
5	291	114000	0
5	292	120000	0
5	293	126000	0
5	318	132000	2
5	340	138000	1
5	368	144000	2
5	377	150000	0
5	386	156000	1
5	395	162000	0
5	409	168000	1
5	421	174000	1
5	446	180000	2
5	471	186000	1
5	488	192000	1
5	529	198000	3
5	567	204000	2
5	579	210000	0
5	580	216000	0
5	589	222000	1
5	598	228000	0
5	607	234000	1
5	640	240000	2
5	681	246000	3
5	698	252000	0
5	707	258000	1
5	716	264000	0
5	725	270000	1
5	734	276000	0
5	743	282000	1
5	768	288000	2
5	801	294000	2
5	826	300000	1
5	851	306000	1
5	852	312000	0
5	853	318000	0
5	867	324000	1
5	884	330000	1
5	888	336000	0
5	889	342000	0
5	898	348000	1
5	907	354000	0
5	908	360000	0
5	925	366000	2
5	942	372000	0
5	943	378000	0
5	957	384000	1
5	961	390000	0
5	970	396000	1
5	979	402000	0
5	980	408000	0
5	1005	414000	2
5	1014	420000	0
5	1023	426000	1
5	1032	432000	0
6	9	6000	0
6	18	12000	1
6	19	18000	0
6	52	24000	2
6	53	30000	0
6	54	36000	0
6	71	42000	1
6	88	48000	0
6	105	54000	2
6	122	60000	1
6	123	66000	0
6	124	72000	0
6	125	78000	0
6	134	84000	0
6	164	90000	1
6	184	96000	2
6	233	102000	2
6	279	108000	3
6	291	114000	2
6	292	120000	0
6	293	126000	0
6	318	132000	1
6	340	138000	1
6	368	144000	2
6	377	150000	1
6	386	156000	0
6	395	162000	1
6	409	168000	0
6	421	174000	1
6	446	180000	1
6	471	186000	2
6	488	192000	1
6	529	198000	2
6	567	204000	2
6	579	210000	2
6	580	216000	0
6	589	222000	0
6	598	228000	1
6	607	234000	0
6	640	240000	2
6	681	246000	2
6	698	252000	2
6	707	258000	0
6	716	264000	1
6	725	270000	0
6	734	276000	1
6	743	282000	0
6	768	288000	1
6	801	294000	2
6	826	300000	2
6	851	306000	2
6	852	312000	0
6	853	318000	0
6	867	324000	0
6	884	330000	1
6	888	336000	1
6	889	342000	0
6	898	348000	0
6	907	354000	1
6	908	360000	0
6	925	366000	0
6	942	372000	2
6	943	378000	0
6	957	384000	0
6	961	390000	1
6	970	396000	0
6	979	402000	1
6	980	408000	0
6	1005	414000	1
6	1014	420000	1
6	1023	426000	0
6	1032	432000	1
7	7	5683.748756450619	1
7	10	10008.680225986566	0
7	29	18711.049248554574	1
7	34	19046.113058664943	2
7	36	22147.41615671698	1
7	41	22933.057051244361	0
7	61	36984.606398046016	1
7	63	40826.351730533429	0
7	78	44589.357615780343	1
7	86	46859.802102554013	2
7	89	48368.689719453249	1
7	97	50447.47178746598	0
7	112	55240.560698718726	1
7	114	58930.39679484463	0
7	132	81293.412800377362	1
7	135	85040.004895666392	0
7	149	86047.324633152768	1
7	157	87422.64320405467	2
7	159	89164.956812593466	1
7	168	91266.7089610386	0
7	182	93764.20656871228	1
7	190	97044.332159711586	0
7	194	97222.862760237815	1
7	207	99058.503599781332	2
7	215	99325.738598000064	3
7	217	100394.730806923837	2
7	231	101526.917821723016	3
7	234	103016.524737321686	2
7	239	103226.648110059216	1
7	251	104115.871041055573	2
7	258	105264.218752924331	1
7	272	106745.197826238454	2
7	274	107825.978536647036	1
7	283	110409.797861259722	0
7	300	127402.495205652294	1
7	302	130820.99939635309	0
7	316	131922.262027461202	1
7	319	135401.149467131366	0
7	333	136514.994386824375	1
7	342	138249.60056602132	2
7	344	140780.614407685397	1
7	358	142134.960748517556	2
7	360	142240.395530147353	1
7	369	145686.66673910071	0
7	384	153987.511901273218	1
7	387	157121.756143709482	0
7	402	163942.293689918013	1
7	404	167748.206722748537	0
7	419	171081.575525303629	1
7	422	174694.814839700697	0
7	439	175998.489359190796	1
7	444	176312.452705039806	2
7	447	180008.512423371755	1
7	452	180040.909937818859	0
7	469	185177.385770631544	1
7	472	188428.267209556992	0
7	486	189607.413746588899	1
7	489	192557.21723317998	0
7	503	193623.651255358263	1
7	511	195885.703362405173	2
7	519	196354.864378456551	3
7	521	196788.229126881408	2
7	536	199150.142965950058	3
7	538	199302.470836851439	2
7	543	199378.990948008837	1
7	555	200465.588208718864	2
7	562	203253.831391627659	1
7	568	204081.041458366954	0
7	587	219523.884829031175	1
7	590	223164.281106762481	0
7	605	231421.71452662624	1
7	614	235199.877335367433	2
7	616	235475.301502404191	1
7	630	237441.898390020748	2
7	632	238729.688986844515	1
7	647	240916.91659392561	2
7	649	241015.026813934838	1
7	663	243928.084466017053	2
7	665	244277.379511766698	1
7	679	245742.463668245428	2
7	682	247683.257987529234	1
7	690	249805.326516286421	0
7	705	255082.361454510449	1
7	708	258750.210392840756	0
7	723	267171.638278601136	1
7	726	270164.810828611023	0
7	741	281780.055175114156	1
7	750	283694.833766580503	2
7	752	285294.669757360841	1
7	766	286678.485402023945	2
7	769	288239.808738212787	1
7	777	289902.07805430817	0
7	794	291141.350157202059	1
7	799	291416.956888396353	2
7	802	294412.934304770766	1
7	807	294923.203853530265	0
7	824	296857.099899399468	1
7	827	300630.923829017844	0
7	841	301744.010714187213	1
7	843	305163.691252240337	0
7	860	320210.171877862118	1
7	862	323468.805754556112	0
7	877	326115.755129509209	1
7	879	329469.588656465291	0
7	896	344231.590727828374	1
7	899	348229.322495327386	0
7	915	363346.179967593114	1
7	923	364389.855035249819	2
7	926	366589.724588240254	1
7	931	367414.716937055674	0
7	950	379688.262779047001	1
7	952	383389.229518048013	0
7	968	394923.23731427077	1
7	971	398027.479476978583	0
7	987	409575.464201664152	1
7	994	412553.985026823205	0
7	998	412607.961307644515	1
7	1006	416268.347405745818	0
7	1021	423771.608913150471	1
7	1024	426924.942486624639	0
