version 2
run ResponseMeasurement-38-20170110-19:45:36-22615
attr configname ResponseMeasurement
attr datetime 20170110-19:45:36
attr experiment ResponseMeasurement
attr inifile responseStudy.ini
attr iterationvars ""
attr iterationvars2 $repetition=38
attr measurement ""
attr network controltower.SimNetwork
attr processid 22615
attr repetition 38
attr replication #38
attr resultdir results
attr runnumber 38
attr seedset 38
param SimNetwork.a.parkingLot.parkingDelay "truncnormal(60min, 6min)"
param SimNetwork.a.runway.landingTime "truncnormal(15min, 1.5min)"
param SimNetwork.a.runway.takeoffTime "truncnormal(5min, 0.5min)"
param SimNetwork.a.runway.throughputCheckInterval 100min
param SimNetwork.wg.interArrivalTime exponential(100min)

vector 5  SimNetwork.a.runway  landedThroughput:vector  ETV
attr source  landedThroughputSignal
vector 6  SimNetwork.a.runway  tookoffThroughput:vector  ETV
attr source  tookoffThroughputSignal
vector 2  SimNetwork.a.landingQueue  queueLength:vector  ETV
attr source  queueLengthSignal
vector 1  SimNetwork.a.landingQueue  queueTime:vector  ETV
attr source  queueTimeSignal
vector 7  SimNetwork.a.parkingLot  parkingOccupancy:vector  ETV
attr source  parkingOccupancy
vector 4  SimNetwork.a.takeoffQueue  queueLength:vector  ETV
attr source  queueLengthSignal
vector 3  SimNetwork.a.takeoffQueue  queueTime:vector  ETV
attr source  queueTimeSignal
vector 0  SimNetwork.wg  responseTime:vector  ETV
attr source  responseTimeSignal
0	573	233837.900086238355	46609.606677682
0	582	237673.489454143146	9168.8023577186
0	601	255986.807044700079	23423.91231086
0	619	264472.002506090847	13368.502211369
0	636	272660.95646674296	13304.457001559
0	661	278308.860836133245	10233.384976325
0	669	281303.168181728776	7637.5485123201
0	695	289673.432718632107	13779.864425208
0	711	292631.05309395695	7398.5081568346
0	720	296082.257783765535	8681.5817703141
0	740	318430.763764587387	26874.490485355
0	765	329157.626856791976	15546.721923318
0	774	331062.631703001449	6579.3480186412
0	799	339488.234790110078	12728.256973075
0	816	342227.902922690618	7457.0312187621
0	824	345380.746605420518	8659.2025033285
0	850	356946.472112299463	16587.636021825
0	858	359741.437369295934	7471.3052714227
0	876	367184.189627867687	11990.64376053
0	909	375237.490576082412	13109.136287042
0	926	378196.79090017028	7847.1618523886
0	934	379324.59013344487	6546.4669377996
0	966	382996.106187777455	9129.8755691054
0	975	384438.552795705836	7535.8471408881
0	983	385730.206842028706	5993.5316580827
0	991	386656.142427223826	5841.9729557102
0	1009	396623.246539273425	15481.469373699
0	1026	402989.136520989489	10710.190157996
0	1044	418885.006366772343	20928.419643985
0	1064	442641.306323406212	28597.686998751
0	1089	449200.427349687196	11236.154013457
0	1098	452652.339632707791	8875.075240765
0	1127	480368.873317924068	32505.306948807
0	1151	483590.471224982319	7553.9275705026
0	1160	486136.47993691421	9449.6976675628
0	1168	487735.728317962315	6504.5742851336
0	1188	495734.003592047491	14377.739052538
0	1202	500439.634321160027	10215.680735514
0	1228	510153.115515331412	14605.81808377
0	1244	512950.592559364694	7462.6364139251
0	1252	515323.626580793118	7069.7651571758
0	1315	535346.223352705048	24912.543041751
0	1320	535675.324060453959	6877.290673781
0	1328	536403.575529716827	5950.187686119
0	1347	538122.613524297372	7461.3852379144
0	1352	538377.887028653985	6044.5574983895
0	1360	538694.802683801455	5441.293116712
0	1369	541505.672043362898	8199.2172059952
0	1387	554057.324840934969	17145.044097303
0	1434	562444.30196989808	12988.483693143
0	1444	563741.681766843227	7552.8557068709
0	1453	564775.699188090058	7775.4398750794
0	1461	565605.210064113637	5277.819015687
0	1469	567650.780008508607	6932.8534359045
0	1494	573255.577381419435	10844.142651401
0	1503	576489.544805208357	7769.1005386156
0	1528	582915.248795736954	10666.908562783
0	1536	584100.51900764603	5795.4282449122
0	1562	598689.016089258393	19934.053392536
0	1571	602244.846776110932	8296.6768388623
0	1590	622715.172983439388	25656.521135709
0	1608	630752.472435035518	12414.178733644
0	1625	638239.323080240333	12190.067659207
0	1651	651122.116418282355	18315.620550453
0	1659	651859.29908203081	5319.147510075
0	1679	672289.763930898207	25128.693184416
0	1704	678558.291512498712	11848.135235605
0	1712	679832.344184269699	5874.2460446326
0	1729	685658.839954152449	10837.600990217
0	1747	697200.373688621408	15715.856714671
0	1764	702978.565282352752	10275.104838012
0	1790	719001.687633932715	21360.091099869
0	1818	721949.50238902713	7543.5719628217
0	1839	724369.093050941456	8661.5601674791
0	1847	725073.057427990094	5047.7006087811
0	1856	726624.041339347414	6526.9567776024
0	1864	727921.037288386852	6151.9385707945
0	1892	736000.155968763531	13496.028668454
0	1897	736284.672981202872	5742.9317373717
0	1938	742222.092249355533	11037.141605771
0	1946	742949.627612099237	5398.8829941941
0	1955	744238.518785501493	5458.4286496562
0	1963	745963.10008329652	7170.3874276483
0	1988	753226.131389741647	12613.952806283
0	1996	754334.690643602336	5926.7742471261
0	2013	760917.298903277372	11779.991499057
0	2038	766836.064373671873	10195.212228003
0	2055	770490.394346593708	9146.9195752161
0	2063	772526.475507478593	6791.3896653141
0	2090	791625.52445119104	23616.695608933
0	2099	794752.256359620956	7990.2962398482
0	2116	802558.228431421913	12320.314381007
0	2177	810567.718849001321	12749.035068191
0	2182	810863.950376535335	5892.6470239493
0	2190	812049.21335906005	6942.2862215531
0	2198	812785.395316590838	6955.106399413
0	2206	813352.477071480168	6624.8317452187
0	2214	813840.648524624902	6797.8696288332
0	2239	821427.198004883007	14319.474598356
0	2256	825864.42350440862	9976.3718447402
0	2265	829340.652011145597	9120.5391178543
0	2298	834206.836105500223	9561.073018618
0	2306	836694.030051662672	6665.3786780465
0	2314	837470.06295776132	5473.4997491032
0	2349	854282.009949479079	21668.327983899
0	2357	855951.566651682299	6504.5761009352
0	2369	858096.927564299435	6850.5879153989
0	2382	862749.956011945018	9633.9054249765
0	2400	870500.575245240197	12511.305830657
0	2420	895048.91099227718	29211.534984762
0	2437	905909.052405256059	15966.607088302
0	2472	921660.553670573755	20613.18312826
0	2480	922819.069881733789	5831.9349839452
0	2489	925447.621445668596	7760.1025624981
0	2514	933520.370057220002	13183.802664421
0	2522	935430.998091317919	6518.0765067916
0	2551	942982.304821359984	12427.792511308
0	2564	945595.530566259964	7523.8752275817
0	2573	948251.972537027193	7593.8256925816
0	2598	959916.103754631104	17071.482137624
0	2607	962018.632404240666	6984.4841919539
0	2624	967277.569094195314	9888.8547814234
0	2641	977491.657716331389	15088.579373333
0	2659	984545.363295894115	11835.822879247
0	2692	995437.007377879502	15412.770101838
0	2701	996668.893078003316	6276.7396547396
0	2709	998041.562815111406	6272.6941909057
0	2727	1009159.753160865498	16664.42580316
0	2755	1015974.472878520278	11447.590972575
0	2776	1019183.141917473196	7263.9050761317
0	2788	1020820.801573213156	4897.4241821241
0	2793	1021146.849944464506	6874.9368163997
0	2847	1041189.338724086466	24887.092253187
0	2852	1041494.90583262161	5858.2091812
0	2860	1043549.755721957048	6192.1443316158
0	2869	1044117.001445474375	6197.6692950977
0	2877	1045286.124829278492	7148.3722107588
0	2894	1051511.344613669383	11559.448556336
0	2920	1062299.657309909194	15524.805338831
1	554	228504.687096424533	0
1	562	232562.894733840178	0
1	589	251103.50029472191	0
1	607	259356.499465184072	0
1	624	268075.475859807898	0
1	641	273665.619669408654	0
1	649	275893.568293424408	0
1	675	285232.544937122394	0
1	683	287400.676013451443	0
1	700	291556.273279232248	0
1	728	313610.904933474056	0
1	746	324483.283684360218	0
1	754	326759.977817035036	0
1	779	334770.871703928504	0
1	788	336721.544102092016	0
1	804	340358.836090474544	0
1	830	352270.132097873228	0
1	839	355193.545867337403	0
1	864	362128.354289040167	0
1	881	370349.629047781651	0
1	890	372778.123195645295	0
1	898	373866.230618672062	0
1	914	376902.705654817721	0
1	939	379736.675183945983	0
1	947	380814.169471513653	0
1	958	381791.067765974279	649.29060039993
1	997	392278.946362993921	0
1	1014	397956.586722787555	0
1	1033	414043.619324655393	0
1	1052	437964.273336230221	0
1	1069	443777.264391942841	0
1	1078	447863.566369116746	0
1	1107	476036.543654479706	0
1	1115	476948.413035182623	261.63076583123
1	1132	481231.154032828714	0
1	1143	482127.621851451699	771.35731194224
1	1173	490223.953585645576	0
1	1190	495734.003592047491	186.70616048591
1	1208	505487.956145439552	0
1	1216	508253.861423617341	0
1	1233	510433.680310953584	0
1	1260	528798.033386672988	0
1	1268	530453.38784359786	0
1	1276	531463.226107951411	801.99782156845
1	1284	532351.079755801964	17.750225537442
1	1295	533274.344928757497	20.835361668048
1	1304	534009.651685589059	703.19684822139
1	1333	536912.280743631745	0
1	1375	549455.818276755133	0
1	1392	556188.826059972305	0
1	1400	557164.218043579601	163.95873056891
1	1409	560327.391048426643	0
1	1420	561187.003331950603	469.0767593465
1	1436	562444.30196989808	32.867239879973
1	1474	568720.444266592751	0
1	1483	572248.340232953963	0
1	1508	578305.090762733845	0
1	1516	579164.280643154014	409.31794643126
1	1542	593948.169937248603	0
1	1551	597058.651847730393	0
1	1579	618338.293701391777	0
1	1596	626049.255421033761	0
1	1613	632806.495867828889	0
1	1631	646540.151571955851	0
1	1639	647247.860884836463	86.790138354627
1	1667	666710.15627689336	0
1	1684	673958.098139637128	0
1	1692	674880.039446043361	58.800482107573
1	1717	681484.516973950226	0
1	1735	692703.460444341104	0
1	1752	697641.596534063758	0
1	1771	714405.930426205402	0
1	1779	715707.532883462383	0
1	1796	720025.356819209032	0
1	1804	720711.704765400272	614.62020365529
1	1820	721949.50238902713	180.40367143474
1	1828	722761.932087050174	257.80478674061
1	1869	730541.741243831173	0
1	1877	731388.801714192211	203.8510706072
1	1902	737550.744617905171	0
1	1911	738780.09013584534	0
1	1919	739675.796758079955	883.08410243177
1	1927	740612.178583458335	0
1	1968	748407.916396476265	0
1	1976	749190.430291922063	53.122887701232
1	2002	756640.852145669095	0
1	2018	761343.474771377617	0
1	2027	765735.085842164539	0
1	2044	768008.828842258535	0
1	2071	786761.960119772751	0
1	2079	790237.914050414761	0
1	2104	797818.683780810761	0
1	2122	804971.303352586009	0
1	2130	805813.164140485345	706.23700297843
1	2138	806669.237187153856	838.94826997603
1	2152	807470.533373912813	742.88804765133
1	2157	808405.97509585881	1363.1962000671
1	2165	809319.469342832037	2211.7459363053
1	2219	815888.05165966837	0
1	2228	820220.11289329125	0
1	2245	824645.763086882181	0
1	2270	830028.651373616179	0
1	2278	831996.563208658097	0
1	2286	832970.907668461361	357.22570288144
1	2321	849446.99055074711	0
1	2329	851246.339648900538	0
1	2338	853116.050586968526	0
1	2371	858096.927564299435	107.65814971599
1	2388	865837.3760075153	0
1	2408	889942.445316954016	0
1	2426	901047.370542314216	0
1	2444	916987.134897788612	0
1	2452	917820.967361304726	133.44847813426
1	2461	920336.567392798733	0
1	2494	928912.921584526279	0
1	2503	930554.512310051943	0
1	2528	938071.655338678263	0
1	2536	940658.146844445642	0
1	2553	942982.304821359984	137.68320435276
1	2579	955034.148212286797	0
1	2587	957388.714312771951	0
1	2612	962403.078342997947	0
1	2630	972709.540416647019	0
1	2647	980024.237276041587	0
1	2665	990392.153423263687	0
1	2673	991768.868624205666	0
1	2681	992636.908202024288	141.58084431916
1	2715	1004526.881905945101	0
1	2732	1011919.236841341469	0
1	2741	1014271.913128064822	0
1	2757	1015974.472878520278	51.09548743123
1	2765	1016881.079073013517	578.83260211378
1	2800	1035636.696651421613	0
1	2808	1037357.6113903412	0
1	2820	1038287.542992158322	368.21084178163
1	2825	1039240.154620852916	1102.4020023333
1	2833	1039951.896057333655	0
1	2882	1046774.851971078151	0
1	2900	1057751.415850666169	0
1	2908	1059908.172920863338	0
1	2925	1063423.738444901664	0
2	552	228504.687096424533	1
2	554	228504.687096424533	0
2	560	232562.894733840178	1
2	562	232562.894733840178	0
2	587	251103.50029472191	1
2	589	251103.50029472191	0
2	605	259356.499465184072	1
2	607	259356.499465184072	0
2	622	268075.475859807898	1
2	624	268075.475859807898	0
2	639	273665.619669408654	1
2	641	273665.619669408654	0
2	647	275893.568293424408	1
2	649	275893.568293424408	0
2	673	285232.544937122394	1
2	675	285232.544937122394	0
2	681	287400.676013451443	1
2	683	287400.676013451443	0
2	698	291556.273279232248	1
2	700	291556.273279232248	0
2	726	313610.904933474056	1
2	728	313610.904933474056	0
2	744	324483.283684360218	1
2	746	324483.283684360218	0
2	752	326759.977817035036	1
2	754	326759.977817035036	0
2	777	334770.871703928504	1
2	779	334770.871703928504	0
2	786	336721.544102092016	1
2	788	336721.544102092016	0
2	802	340358.836090474544	1
2	804	340358.836090474544	0
2	828	352270.132097873228	1
2	830	352270.132097873228	0
2	837	355193.545867337403	1
2	839	355193.545867337403	0
2	862	362128.354289040167	1
2	864	362128.354289040167	0
2	879	370349.629047781651	1
2	881	370349.629047781651	0
2	888	372778.123195645295	1
2	890	372778.123195645295	0
2	896	373866.230618672062	1
2	898	373866.230618672062	0
2	912	376902.705654817721	1
2	914	376902.705654817721	0
2	937	379736.675183945983	1
2	939	379736.675183945983	0
2	945	380814.169471513653	1
2	947	380814.169471513653	0
2	950	381141.777165574349	1
2	958	381791.067765974279	0
2	995	392278.946362993921	1
2	997	392278.946362993921	0
2	1012	397956.586722787555	1
2	1014	397956.586722787555	0
2	1031	414043.619324655393	1
2	1033	414043.619324655393	0
2	1050	437964.273336230221	1
2	1052	437964.273336230221	0
2	1067	443777.264391942841	1
2	1069	443777.264391942841	0
2	1076	447863.566369116746	1
2	1078	447863.566369116746	0
2	1105	476036.543654479706	1
2	1107	476036.543654479706	0
2	1110	476686.782269351394	1
2	1115	476948.413035182623	0
2	1130	481231.154032828714	1
2	1132	481231.154032828714	0
2	1135	481356.264539509462	1
2	1143	482127.621851451699	0
2	1171	490223.953585645576	1
2	1173	490223.953585645576	0
2	1185	495547.297431561584	1
2	1190	495734.003592047491	0
2	1206	505487.956145439552	1
2	1208	505487.956145439552	0
2	1214	508253.861423617341	1
2	1216	508253.861423617341	0
2	1231	510433.680310953584	1
2	1233	510433.680310953584	0
2	1258	528798.033386672988	1
2	1260	528798.033386672988	0
2	1266	530453.38784359786	1
2	1268	530453.38784359786	0
2	1271	530661.228286382965	1
2	1276	531463.226107951411	0
2	1279	532333.329530264522	1
2	1284	532351.079755801964	0
2	1290	533253.509567089449	1
2	1295	533274.344928757497	0
2	1298	533306.454837367667	1
2	1304	534009.651685589059	0
2	1331	536912.280743631745	1
2	1333	536912.280743631745	0
2	1373	549455.818276755133	1
2	1375	549455.818276755133	0
2	1390	556188.826059972305	1
2	1392	556188.826059972305	0
2	1395	557000.25931301069	1
2	1400	557164.218043579601	0
2	1407	560327.391048426643	1
2	1409	560327.391048426643	0
2	1412	560717.926572604103	1
2	1420	561187.003331950603	0
2	1431	562411.434730018107	1
2	1436	562444.30196989808	0
2	1472	568720.444266592751	1
2	1474	568720.444266592751	0
2	1481	572248.340232953963	1
2	1483	572248.340232953963	0
2	1506	578305.090762733845	1
2	1508	578305.090762733845	0
2	1511	578754.962696722751	1
2	1516	579164.280643154014	0
2	1540	593948.169937248603	1
2	1542	593948.169937248603	0
2	1549	597058.651847730393	1
2	1551	597058.651847730393	0
2	1577	618338.293701391777	1
2	1579	618338.293701391777	0
2	1594	626049.255421033761	1
2	1596	626049.255421033761	0
2	1611	632806.495867828889	1
2	1613	632806.495867828889	0
2	1629	646540.151571955851	1
2	1631	646540.151571955851	0
2	1634	647161.070746481836	1
2	1639	647247.860884836463	0
2	1665	666710.15627689336	1
2	1667	666710.15627689336	0
2	1682	673958.098139637128	1
2	1684	673958.098139637128	0
2	1687	674821.238963935788	1
2	1692	674880.039446043361	0
2	1715	681484.516973950226	1
2	1717	681484.516973950226	0
2	1733	692703.460444341104	1
2	1735	692703.460444341104	0
2	1750	697641.596534063758	1
2	1752	697641.596534063758	0
2	1769	714405.930426205402	1
2	1771	714405.930426205402	0
2	1777	715707.532883462383	1
2	1779	715707.532883462383	0
2	1794	720025.356819209032	1
2	1796	720025.356819209032	0
2	1799	720097.084561744981	1
2	1804	720711.704765400272	0
2	1815	721769.09871759239	1
2	1820	721949.50238902713	0
2	1823	722504.127300309567	1
2	1828	722761.932087050174	0
2	1867	730541.741243831173	1
2	1869	730541.741243831173	0
2	1872	731184.950643585009	1
2	1877	731388.801714192211	0
2	1900	737550.744617905171	1
2	1902	737550.744617905171	0
2	1909	738780.09013584534	1
2	1911	738780.09013584534	0
2	1914	738792.712655648185	1
2	1919	739675.796758079955	0
2	1925	740612.178583458335	1
2	1927	740612.178583458335	0
2	1966	748407.916396476265	1
2	1968	748407.916396476265	0
2	1971	749137.307404220831	1
2	1976	749190.430291922063	0
2	2000	756640.852145669095	1
2	2002	756640.852145669095	0
2	2016	761343.474771377617	1
2	2018	761343.474771377617	0
2	2025	765735.085842164539	1
2	2027	765735.085842164539	0
2	2042	768008.828842258535	1
2	2044	768008.828842258535	0
2	2069	786761.960119772751	1
2	2071	786761.960119772751	0
2	2077	790237.914050414761	1
2	2079	790237.914050414761	0
2	2102	797818.683780810761	1
2	2104	797818.683780810761	0
2	2120	804971.303352586009	1
2	2122	804971.303352586009	0
2	2125	805106.927137506917	1
2	2130	805813.164140485345	0
2	2133	805830.288917177822	1
2	2138	806669.237187153856	0
2	2141	806727.645326261479	1
2	2144	807042.778895791724	2
2	2147	807107.72340652673	3
2	2152	807470.533373912813	2
2	2157	808405.97509585881	1
2	2165	809319.469342832037	0
2	2217	815888.05165966837	1
2	2219	815888.05165966837	0
2	2226	820220.11289329125	1
2	2228	820220.11289329125	0
2	2243	824645.763086882181	1
2	2245	824645.763086882181	0
2	2268	830028.651373616179	1
2	2270	830028.651373616179	0
2	2276	831996.563208658097	1
2	2278	831996.563208658097	0
2	2281	832613.681965579924	1
2	2286	832970.907668461361	0
2	2319	849446.99055074711	1
2	2321	849446.99055074711	0
2	2327	851246.339648900538	1
2	2329	851246.339648900538	0
2	2336	853116.050586968526	1
2	2338	853116.050586968526	0
2	2365	857989.269414583442	1
2	2371	858096.927564299435	0
2	2386	865837.3760075153	1
2	2388	865837.3760075153	0
2	2406	889942.445316954016	1
2	2408	889942.445316954016	0
2	2424	901047.370542314216	1
2	2426	901047.370542314216	0
2	2442	916987.134897788612	1
2	2444	916987.134897788612	0
2	2447	917687.518883170463	1
2	2452	917820.967361304726	0
2	2459	920336.567392798733	1
2	2461	920336.567392798733	0
2	2492	928912.921584526279	1
2	2494	928912.921584526279	0
2	2501	930554.512310051943	1
2	2503	930554.512310051943	0
2	2526	938071.655338678263	1
2	2528	938071.655338678263	0
2	2534	940658.146844445642	1
2	2536	940658.146844445642	0
2	2548	942844.621617007223	1
2	2553	942982.304821359984	0
2	2577	955034.148212286797	1
2	2579	955034.148212286797	0
2	2585	957388.714312771951	1
2	2587	957388.714312771951	0
2	2610	962403.078342997947	1
2	2612	962403.078342997947	0
2	2628	972709.540416647019	1
2	2630	972709.540416647019	0
2	2645	980024.237276041587	1
2	2647	980024.237276041587	0
2	2663	990392.153423263687	1
2	2665	990392.153423263687	0
2	2671	991768.868624205666	1
2	2673	991768.868624205666	0
2	2676	992495.327357705129	1
2	2681	992636.908202024288	0
2	2713	1004526.881905945101	1
2	2715	1004526.881905945101	0
2	2730	1011919.236841341469	1
2	2732	1011919.236841341469	0
2	2739	1014271.913128064822	1
2	2741	1014271.913128064822	0
2	2752	1015923.377391089048	1
2	2757	1015974.472878520278	0
2	2760	1016302.246470899741	1
2	2765	1016881.079073013517	0
2	2798	1035636.696651421613	1
2	2800	1035636.696651421613	0
2	2806	1037357.6113903412	1
2	2808	1037357.6113903412	0
2	2811	1037919.33215037669	1
2	2815	1038137.752618519662	2
2	2820	1038287.542992158322	1
2	2825	1039240.154620852916	0
2	2831	1039951.896057333655	1
2	2833	1039951.896057333655	0
2	2880	1046774.851971078151	1
2	2882	1046774.851971078151	0
2	2898	1057751.415850666169	1
2	2900	1057751.415850666169	0
2	2906	1059908.172920863338	1
2	2908	1059908.172920863338	0
2	2923	1063423.738444901664	1
2	2925	1063423.738444901664	0
2	2928	1063440.533096460742	1
3	570	233602.709379952029	465.87247329784
3	579	237444.110909533712	0
3	598	255689.247314709127	0
3	616	264164.730907810948	0
3	633	272356.285661913805	0
3	658	278013.452292491604	0
3	666	280995.975449263298	0
3	692	289393.155684345748	0
3	708	292348.741715912532	670.25526980409
3	717	295794.585296138395	0
3	737	318117.561765835486	0
3	762	328841.379441744095	0
3	771	330784.914591320833	0
3	796	339170.571468143247	0
3	812	341898.644953315075	0
3	821	345101.616357870109	0
3	847	356632.586755853863	0
3	855	359404.820985960253	0
3	873	366945.449577054009	0
3	906	374926.060740812344	591.65034561604
3	922	377853.011305829192	383.96938809561
3	931	379016.509821077002	0
3	963	382664.921044040604	1443.2870375579
3	972	384094.410298196185	0
3	980	385430.5429920592	0
3	988	386386.251429925487	0
3	1006	396307.485364009178	0
3	1023	402728.01843018701	0
3	1041	418581.651180178638	0
3	1061	442295.739724905735	0
3	1086	448910.103339585936	0
3	1095	452293.996801387941	0
3	1124	480076.377974598108	0
3	1148	483269.316184904288	1575.4938056283
3	1156	485845.144310209409	0
3	1165	487460.456898701264	0
3	1182	495412.933587284024	0
3	1199	500096.049762595781	0
3	1224	509828.219378393574	0
3	1241	512674.376376377808	0
3	1249	515042.975475779576	0
3	1312	535034.910724608621	1856.1249417087
3	1317	535346.223352705048	474.14035003155
3	1325	536126.5713526084	0
3	1344	537887.124455129999	777.3153014139
3	1349	538122.613524297372	384.30120296243
3	1357	538412.900364574003	0
3	1366	541190.515671454563	0
3	1384	553756.487104030197	0
3	1428	562122.137936469963	1192.3141920364
3	1441	563379.198371393876	1642.2073050171
3	1450	564496.763939005928	0
3	1458	565369.118066028545	0
3	1466	567361.717749337789	0
3	1491	573012.722586101697	29.494475202345
3	1500	576236.601163163908	0
3	1525	582642.672675322323	0
3	1533	583824.140859025893	0
3	1559	598355.835615317775	0
3	1568	601977.014278595433	0
3	1587	622473.032809650856	0
3	1605	630420.731165193387	0
3	1622	637921.988644105115	0
3	1648	650790.657490645366	0
3	1656	651585.230144541501	0
3	1675	671939.053264485353	0
3	1701	678249.206801992471	0
3	1709	679525.868263308526	0
3	1726	685359.341162166554	0
3	1744	696893.45350499122	0
3	1761	702667.721854577781	0
3	1787	718705.566346403641	0
3	1812	721632.819593479329	849.22724253181
3	1836	724093.592380176613	0
3	1844	724802.738466124662	0
3	1853	726304.390228065546	0
3	1861	727612.375335024466	0
3	1886	735749.841231406208	0
3	1894	736000.155968763531	71.369496060584
3	1935	741955.799517504903	0
3	1943	742639.55823004968	0
3	1951	743891.882166934764	0
3	1960	745620.091605516338	0
3	1985	752906.913037139636	0
3	1993	753997.629633111159	0
3	2010	760628.974385068079	0
3	2035	766577.4882054646	518.85919792974
3	2052	770200.923935113463	0
3	2060	772238.890527552037	0
3	2087	791313.69033379918	0
3	2096	794456.883072638019	0
3	2113	802275.655728495454	0
3	2174	810233.54322077091	1221.0157604533
3	2179	810567.718849001321	441.04556935698
3	2187	811763.096850128749	0
3	2195	812434.601941208888	0
3	2203	813030.264150721119	0
3	2211	813525.006793259561	0
3	2236	821118.423939043069	345.02755291669
3	2253	825586.943515927425	656.46364272714
3	2262	829094.308124885144	0
3	2294	833896.719054733608	0
3	2303	836414.852956105339	0
3	2311	837172.493488411502	0
3	2346	853916.649070780464	123.91360192612
3	2354	855663.584520653411	0
3	2362	857750.486407611485	0
3	2379	862452.541381383432	0
3	2397	870215.7411254468	0
3	2417	894766.046267529288	0
3	2434	905641.024977935064	0
3	2469	921320.36910670803	0
3	2477	922566.968057878597	0
3	2486	925129.240490475829	0
3	2511	933268.524893645669	0
3	2519	935099.412806815693	0
3	2545	942735.561267463841	0
3	2561	945262.09458054668	0
3	2569	947945.679837264388	0
3	2595	959633.196195612588	0
3	2604	961672.364637721595	0
3	2621	966983.869701398321	0
3	2638	977200.980984312884	0
3	2656	984199.191884865184	0
3	2689	995069.762135166699	0
3	2698	996332.811843538319	0
3	2706	997721.385730757879	0
3	2724	1008836.363606635615	0
3	2749	1015687.644893495435	0
3	2773	1018842.375606525478	0
3	2782	1020567.936071877312	0
3	2790	1020820.801573213156	8.526970361649
3	2841	1040880.541134139429	669.27248444014
3	2849	1041189.338724086466	75.45916139545
3	2857	1043231.225218839143	0
3	2865	1043798.052242428399	0
3	2874	1044990.896653564811	0
3	2891	1051271.368165343002	0
3	2917	1062058.806921838846	0
4	565	233136.836906654185	1
4	570	233602.709379952029	0
4	577	237444.110909533712	1
4	579	237444.110909533712	0
4	596	255689.247314709127	1
4	598	255689.247314709127	0
4	614	264164.730907810948	1
4	616	264164.730907810948	0
4	631	272356.285661913805	1
4	633	272356.285661913805	0
4	656	278013.452292491604	1
4	658	278013.452292491604	0
4	664	280995.975449263298	1
4	666	280995.975449263298	0
4	690	289393.155684345748	1
4	692	289393.155684345748	0
4	703	291678.486446108439	1
4	708	292348.741715912532	0
4	715	295794.585296138395	1
4	717	295794.585296138395	0
4	735	318117.561765835486	1
4	737	318117.561765835486	0
4	760	328841.379441744095	1
4	762	328841.379441744095	0
4	769	330784.914591320833	1
4	771	330784.914591320833	0
4	794	339170.571468143247	1
4	796	339170.571468143247	0
4	810	341898.644953315075	1
4	812	341898.644953315075	0
4	819	345101.616357870109	1
4	821	345101.616357870109	0
4	845	356632.586755853863	1
4	847	356632.586755853863	0
4	853	359404.820985960253	1
4	855	359404.820985960253	0
4	871	366945.449577054009	1
4	873	366945.449577054009	0
4	901	374334.410395196303	1
4	906	374926.060740812344	0
4	917	377469.041917733577	1
4	922	377853.011305829192	0
4	929	379016.509821077002	1
4	931	379016.509821077002	0
4	953	381221.63400648271	1
4	963	382664.921044040604	0
4	970	384094.410298196185	1
4	972	384094.410298196185	0
4	978	385430.5429920592	1
4	980	385430.5429920592	0
4	986	386386.251429925487	1
4	988	386386.251429925487	0
4	1004	396307.485364009178	1
4	1006	396307.485364009178	0
4	1021	402728.01843018701	1
4	1023	402728.01843018701	0
4	1039	418581.651180178638	1
4	1041	418581.651180178638	0
4	1059	442295.739724905735	1
4	1061	442295.739724905735	0
4	1084	448910.103339585936	1
4	1086	448910.103339585936	0
4	1093	452293.996801387941	1
4	1095	452293.996801387941	0
4	1122	480076.377974598108	1
4	1124	480076.377974598108	0
4	1138	481693.822379275938	1
4	1148	483269.316184904288	0
4	1154	485845.144310209409	1
4	1156	485845.144310209409	0
4	1163	487460.456898701264	1
4	1165	487460.456898701264	0
4	1180	495412.933587284024	1
4	1182	495412.933587284024	0
4	1197	500096.049762595781	1
4	1199	500096.049762595781	0
4	1222	509828.219378393574	1
4	1224	509828.219378393574	0
4	1239	512674.376376377808	1
4	1241	512674.376376377808	0
4	1247	515042.975475779576	1
4	1249	515042.975475779576	0
4	1287	533178.785782899931	1
4	1307	534872.083002673497	2
4	1312	535034.910724608621	1
4	1317	535346.223352705048	0
4	1323	536126.5713526084	1
4	1325	536126.5713526084	0
4	1336	537109.809153716103	1
4	1339	537738.312321334945	2
4	1344	537887.124455129999	1
4	1349	538122.613524297372	0
4	1355	538412.900364574003	1
4	1357	538412.900364574003	0
4	1364	541190.515671454563	1
4	1366	541190.515671454563	0
4	1382	553756.487104030197	1
4	1384	553756.487104030197	0
4	1415	560929.823744433577	1
4	1423	561736.991066376807	2
4	1428	562122.137936469963	1
4	1441	563379.198371393876	0
4	1448	564496.763939005928	1
4	1450	564496.763939005928	0
4	1456	565369.118066028545	1
4	1458	565369.118066028545	0
4	1464	567361.717749337789	1
4	1466	567361.717749337789	0
4	1486	572983.228110899352	1
4	1491	573012.722586101697	0
4	1498	576236.601163163908	1
4	1500	576236.601163163908	0
4	1523	582642.672675322323	1
4	1525	582642.672675322323	0
4	1531	583824.140859025893	1
4	1533	583824.140859025893	0
4	1557	598355.835615317775	1
4	1559	598355.835615317775	0
4	1566	601977.014278595433	1
4	1568	601977.014278595433	0
4	1585	622473.032809650856	1
4	1587	622473.032809650856	0
4	1603	630420.731165193387	1
4	1605	630420.731165193387	0
4	1620	637921.988644105115	1
4	1622	637921.988644105115	0
4	1646	650790.657490645366	1
4	1648	650790.657490645366	0
4	1654	651585.230144541501	1
4	1656	651585.230144541501	0
4	1673	671939.053264485353	1
4	1675	671939.053264485353	0
4	1699	678249.206801992471	1
4	1701	678249.206801992471	0
4	1707	679525.868263308526	1
4	1709	679525.868263308526	0
4	1724	685359.341162166554	1
4	1726	685359.341162166554	0
4	1742	696893.45350499122	1
4	1744	696893.45350499122	0
4	1759	702667.721854577781	1
4	1761	702667.721854577781	0
4	1785	718705.566346403641	1
4	1787	718705.566346403641	0
4	1807	720783.592350947517	1
4	1812	721632.819593479329	0
4	1834	724093.592380176613	1
4	1836	724093.592380176613	0
4	1842	724802.738466124662	1
4	1844	724802.738466124662	0
4	1851	726304.390228065546	1
4	1853	726304.390228065546	0
4	1859	727612.375335024466	1
4	1861	727612.375335024466	0
4	1884	735749.841231406208	1
4	1886	735749.841231406208	0
4	1889	735928.786472702947	1
4	1894	736000.155968763531	0
4	1933	741955.799517504903	1
4	1935	741955.799517504903	0
4	1941	742639.55823004968	1
4	1943	742639.55823004968	0
4	1949	743891.882166934764	1
4	1951	743891.882166934764	0
4	1958	745620.091605516338	1
4	1960	745620.091605516338	0
4	1983	752906.913037139636	1
4	1985	752906.913037139636	0
4	1991	753997.629633111159	1
4	1993	753997.629633111159	0
4	2008	760628.974385068079	1
4	2010	760628.974385068079	0
4	2030	766058.62900753486	1
4	2035	766577.4882054646	0
4	2050	770200.923935113463	1
4	2052	770200.923935113463	0
4	2058	772238.890527552037	1
4	2060	772238.890527552037	0
4	2085	791313.69033379918	1
4	2087	791313.69033379918	0
4	2094	794456.883072638019	1
4	2096	794456.883072638019	0
4	2111	802275.655728495454	1
4	2113	802275.655728495454	0
4	2160	809012.527460317656	1
4	2169	810126.673279644338	2
4	2174	810233.54322077091	1
4	2179	810567.718849001321	0
4	2185	811763.096850128749	1
4	2187	811763.096850128749	0
4	2193	812434.601941208888	1
4	2195	812434.601941208888	0
4	2201	813030.264150721119	1
4	2203	813030.264150721119	0
4	2209	813525.006793259561	1
4	2211	813525.006793259561	0
4	2231	820773.396386126379	1
4	2236	821118.423939043069	0
4	2248	824930.479873200289	1
4	2253	825586.943515927425	0
4	2260	829094.308124885144	1
4	2262	829094.308124885144	0
4	2292	833896.719054733608	1
4	2294	833896.719054733608	0
4	2301	836414.852956105339	1
4	2303	836414.852956105339	0
4	2309	837172.493488411502	1
4	2311	837172.493488411502	0
4	2341	853792.735468854341	1
4	2346	853916.649070780464	0
4	2352	855663.584520653411	1
4	2354	855663.584520653411	0
4	2360	857750.486407611485	1
4	2362	857750.486407611485	0
4	2377	862452.541381383432	1
4	2379	862452.541381383432	0
4	2395	870215.7411254468	1
4	2397	870215.7411254468	0
4	2415	894766.046267529288	1
4	2417	894766.046267529288	0
4	2432	905641.024977935064	1
4	2434	905641.024977935064	0
4	2467	921320.36910670803	1
4	2469	921320.36910670803	0
4	2475	922566.968057878597	1
4	2477	922566.968057878597	0
4	2484	925129.240490475829	1
4	2486	925129.240490475829	0
4	2509	933268.524893645669	1
4	2511	933268.524893645669	0
4	2517	935099.412806815693	1
4	2519	935099.412806815693	0
4	2543	942735.561267463841	1
4	2545	942735.561267463841	0
4	2559	945262.09458054668	1
4	2561	945262.09458054668	0
4	2567	947945.679837264388	1
4	2569	947945.679837264388	0
4	2593	959633.196195612588	1
4	2595	959633.196195612588	0
4	2602	961672.364637721595	1
4	2604	961672.364637721595	0
4	2619	966983.869701398321	1
4	2621	966983.869701398321	0
4	2636	977200.980984312884	1
4	2638	977200.980984312884	0
4	2654	984199.191884865184	1
4	2656	984199.191884865184	0
4	2687	995069.762135166699	1
4	2689	995069.762135166699	0
4	2696	996332.811843538319	1
4	2698	996332.811843538319	0
4	2704	997721.385730757879	1
4	2706	997721.385730757879	0
4	2722	1008836.363606635615	1
4	2724	1008836.363606635615	0
4	2747	1015687.644893495435	1
4	2749	1015687.644893495435	0
4	2771	1018842.375606525478	1
4	2773	1018842.375606525478	0
4	2780	1020567.936071877312	1
4	2782	1020567.936071877312	0
4	2785	1020812.274602851507	1
4	2790	1020820.801573213156	0
4	2836	1040211.268649699294	1
4	2841	1040880.541134139429	0
4	2844	1041113.879562691016	1
4	2849	1041189.338724086466	0
4	2855	1043231.225218839143	1
4	2857	1043231.225218839143	0
4	2863	1043798.052242428399	1
4	2865	1043798.052242428399	0
4	2872	1044990.896653564811	1
4	2874	1044990.896653564811	0
4	2889	1051271.368165343002	1
4	2891	1051271.368165343002	0
4	2915	1062058.806921838846	1
4	2917	1062058.806921838846	0
5	546	204000	0
5	547	210000	0
5	548	216000	0
5	549	222000	0
5	550	228000	0
5	575	234000	2
5	584	240000	0
5	585	246000	0
5	594	252000	1
5	603	258000	0
5	612	264000	1
5	629	270000	1
5	651	276000	1
5	671	282000	1
5	685	288000	1
5	713	294000	2
5	722	300000	0
5	723	306000	0
5	724	312000	0
5	733	318000	1
5	742	324000	0
5	767	330000	2
5	784	336000	1
5	814	342000	2
5	826	348000	0
5	835	354000	1
5	860	360000	1
5	869	366000	1
5	886	372000	1
5	924	378000	3
5	968	384000	3
5	993	390000	0
5	1002	396000	1
5	1019	402000	1
5	1028	408000	0
5	1029	414000	0
5	1046	420000	1
5	1047	426000	0
5	1048	432000	0
5	1054	438000	0
5	1071	444000	1
5	1091	450000	2
5	1100	456000	0
5	1101	462000	0
5	1102	468000	0
5	1103	474000	0
5	1120	480000	2
5	1158	486000	2
5	1178	492000	1
5	1195	498000	1
5	1204	504000	0
5	1226	510000	2
5	1254	516000	1
5	1255	522000	0
5	1256	528000	0
5	1300	534000	4
5	1362	540000	3
5	1371	546000	0
5	1380	552000	1
5	1402	558000	1
5	1446	564000	4
5	1479	570000	1
5	1496	576000	1
5	1521	582000	2
5	1538	588000	0
5	1544	594000	0
5	1564	600000	2
5	1573	606000	0
5	1574	612000	0
5	1575	618000	0
5	1592	624000	1
5	1601	630000	1
5	1618	636000	1
5	1627	642000	0
5	1641	648000	1
5	1661	654000	1
5	1662	660000	0
5	1663	666000	0
5	1677	672000	1
5	1697	678000	2
5	1722	684000	1
5	1731	690000	0
5	1740	696000	1
5	1757	702000	1
5	1766	708000	0
5	1767	714000	0
5	1792	720000	2
5	1849	726000	4
5	1879	732000	1
5	1904	738000	1
5	1953	744000	4
5	1978	750000	1
5	1998	756000	1
5	2020	762000	1
5	2040	768000	2
5	2065	774000	1
5	2066	780000	0
5	2067	786000	0
5	2092	792000	2
5	2106	798000	0
5	2118	804000	1
5	2167	810000	5
5	2221	816000	1
5	2241	822000	2
5	2258	828000	1
5	2296	834000	3
5	2316	840000	0
5	2317	846000	0
5	2331	852000	1
5	2367	858000	2
5	2384	864000	1
5	2393	870000	1
5	2402	876000	0
5	2403	882000	0
5	2404	888000	0
5	2413	894000	1
5	2422	900000	0
5	2439	906000	1
5	2440	912000	0
5	2454	918000	1
5	2482	924000	2
5	2499	930000	1
5	2524	936000	1
5	2541	942000	2
5	2571	948000	1
5	2575	954000	0
5	2600	960000	2
5	2617	966000	1
5	2626	972000	0
5	2643	978000	1
5	2652	984000	1
5	2661	990000	0
5	2694	996000	3
5	2711	1002000	0
5	2720	1008000	1
5	2737	1014000	1
5	2778	1020000	3
5	2795	1026000	0
5	2796	1032000	0
5	2813	1038000	1
5	2867	1044000	4
5	2887	1050000	1
5	2896	1056000	0
5	2913	1062000	2
6	546	204000	0
6	547	210000	0
6	548	216000	0
6	549	222000	0
6	550	228000	0
6	575	234000	1
6	584	240000	1
6	585	246000	0
6	594	252000	0
6	603	258000	1
6	612	264000	0
6	629	270000	1
6	651	276000	1
6	671	282000	2
6	685	288000	0
6	713	294000	2
6	722	300000	1
6	723	306000	0
6	724	312000	0
6	733	318000	0
6	742	324000	1
6	767	330000	1
6	784	336000	1
6	814	342000	1
6	826	348000	2
6	835	354000	0
6	860	360000	2
6	869	366000	0
6	886	372000	1
6	924	378000	1
6	968	384000	3
6	993	390000	3
6	1002	396000	0
6	1019	402000	1
6	1028	408000	1
6	1029	414000	0
6	1046	420000	1
6	1047	426000	0
6	1048	432000	0
6	1054	438000	0
6	1071	444000	1
6	1091	450000	1
6	1100	456000	1
6	1101	462000	0
6	1102	468000	0
6	1103	474000	0
6	1120	480000	0
6	1158	486000	2
6	1178	492000	2
6	1195	498000	1
6	1204	504000	1
6	1226	510000	0
6	1254	516000	3
6	1255	522000	0
6	1256	528000	0
6	1300	534000	0
6	1362	540000	6
6	1371	546000	1
6	1380	552000	0
6	1402	558000	1
6	1446	564000	2
6	1479	570000	3
6	1496	576000	1
6	1521	582000	1
6	1538	588000	2
6	1544	594000	0
6	1564	600000	1
6	1573	606000	1
6	1574	612000	0
6	1575	618000	0
6	1592	624000	1
6	1601	630000	0
6	1618	636000	1
6	1627	642000	1
6	1641	648000	0
6	1661	654000	2
6	1662	660000	0
6	1663	666000	0
6	1677	672000	0
6	1697	678000	1
6	1722	684000	2
6	1731	690000	1
6	1740	696000	0
6	1757	702000	1
6	1766	708000	1
6	1767	714000	0
6	1792	720000	1
6	1849	726000	3
6	1879	732000	2
6	1904	738000	2
6	1953	744000	2
6	1978	750000	2
6	1998	756000	2
6	2020	762000	1
6	2040	768000	1
6	2065	774000	2
6	2066	780000	0
6	2067	786000	0
6	2092	792000	1
6	2106	798000	1
6	2118	804000	1
6	2167	810000	0
6	2221	816000	6
6	2241	822000	1
6	2258	828000	1
6	2296	834000	1
6	2316	840000	3
6	2317	846000	0
6	2331	852000	0
6	2367	858000	2
6	2384	864000	2
6	2393	870000	0
6	2402	876000	1
6	2403	882000	0
6	2404	888000	0
6	2413	894000	0
6	2422	900000	1
6	2439	906000	1
6	2440	912000	0
6	2454	918000	0
6	2482	924000	2
6	2499	930000	1
6	2524	936000	2
6	2541	942000	0
6	2571	948000	2
6	2575	954000	1
6	2600	960000	1
6	2617	966000	1
6	2626	972000	1
6	2643	978000	1
6	2652	984000	0
6	2661	990000	1
6	2694	996000	1
6	2711	1002000	2
6	2720	1008000	0
6	2737	1014000	1
6	2778	1020000	2
6	2795	1026000	2
6	2796	1032000	0
6	2813	1038000	0
6	2867	1044000	3
6	2887	1050000	2
6	2896	1056000	1
6	2913	1062000	0
7	557	229414.979111863094	1
7	564	233136.836906654185	0
7	568	233602.709379952029	1
7	576	237444.110909533712	0
7	592	251943.9794265863	1
7	595	255689.247314709127	0
7	610	260279.208567935717	1
7	613	264164.730907810948	0
7	627	268978.750312693009	1
7	630	272356.285661913805	0
7	644	274617.038954021762	1
7	653	276879.01498180832	2
7	655	278013.452292491604	1
7	663	280995.975449263298	0
7	678	286083.376115555114	1
7	687	288434.911118137278	2
7	689	289393.155684345748	1
7	702	291678.486446108439	0
7	706	292348.741715912532	1
7	714	295794.585296138395	0
7	731	314526.809998935181	1
7	734	318117.561765835486	0
7	749	325209.413371747202	1
7	757	327658.605858638192	2
7	759	328841.379441744095	1
7	768	330784.914591320833	0
7	782	335706.988052072678	1
7	791	337656.236792652419	2
7	793	339170.571468143247	1
7	807	341207.431623026184	2
7	809	341898.644953315075	1
7	818	345101.616357870109	0
7	833	353267.620478392353	1
7	842	356118.892545019768	2
7	844	356632.586755853863	1
7	852	359404.820985960253	0
7	867	363018.696725083262	1
7	870	366945.449577054009	0
7	884	371124.496158309678	1
7	893	373645.197980929737	2
7	900	374334.410395196303	1
7	904	374926.060740812344	2
7	916	377469.041917733577	1
7	920	377853.011305829192	2
7	928	379016.509821077002	1
7	942	380681.912453117628	2
7	952	381221.63400648271	1
7	956	381791.067765974279	2
7	961	382664.921044040604	3
7	969	384094.410298196185	2
7	977	385430.5429920592	1
7	985	386386.251429925487	0
7	1000	393261.729119712722	1
7	1003	396307.485364009178	0
7	1017	398817.38062446312	1
7	1020	402728.01843018701	0
7	1036	414740.305768928225	1
7	1038	418581.651180178638	0
7	1056	438893.436039710607	1
7	1058	442295.739724905735	0
7	1073	444802.660433649961	1
7	1081	448778.865347523578	2
7	1083	448910.103339585936	1
7	1092	452293.996801387941	0
7	1113	476948.413035182623	1
7	1118	477844.172668967907	2
7	1121	480076.377974598108	1
7	1137	481693.822379275938	0
7	1141	482127.621851451699	1
7	1146	483269.316184904288	2
7	1153	485845.144310209409	1
7	1162	487460.456898701264	0
7	1176	491228.859375351304	1
7	1179	495412.933587284024	0
7	1193	496629.561746389238	1
7	1196	500096.049762595781	0
7	1211	506387.738321913964	1
7	1219	509238.714543964859	2
7	1221	509828.219378393574	1
7	1236	511309.061358846879	2
7	1238	512674.376376377808	1
7	1246	515042.975475779576	0
7	1263	529711.720345902385	1
7	1274	531463.226107951411	2
7	1282	532351.079755801964	3
7	1286	533178.785782899931	2
7	1293	533274.344928757497	3
7	1302	534009.651685589059	4
7	1306	534872.083002673497	3
7	1310	535034.910724608621	4
7	1322	536126.5713526084	3
7	1335	537109.809153716103	2
7	1338	537738.312321334945	1
7	1342	537887.124455129999	2
7	1354	538412.900364574003	1
7	1363	541190.515671454563	0
7	1378	550403.057531210816	1
7	1381	553756.487104030197	0
7	1398	557164.218043579601	1
7	1404	558105.451228758442	2
7	1414	560929.823744433577	1
7	1418	561187.003331950603	2
7	1422	561736.991066376807	1
7	1426	562122.137936469963	2
7	1439	563379.198371393876	3
7	1447	564496.763939005928	2
7	1455	565369.118066028545	1
7	1463	567361.717749337789	0
7	1477	569634.842199338462	1
7	1485	572983.228110899352	0
7	1489	573012.722586101697	1
7	1497	576236.601163163908	0
7	1514	579164.280643154014	1
7	1519	580102.644845951032	2
7	1522	582642.672675322323	1
7	1530	583824.140859025893	0
7	1546	594859.683640917326	1
7	1554	598074.011616212132	2
7	1556	598355.835615317775	1
7	1565	601977.014278595433	0
7	1582	619225.077230655313	1
7	1584	622473.032809650856	0
7	1599	627015.100442682394	1
7	1602	630420.731165193387	0
7	1616	633718.020100409497	1
7	1619	637921.988644105115	0
7	1637	647247.860884836463	1
7	1643	648231.833264872284	2
7	1645	650790.657490645366	1
7	1653	651585.230144541501	0
7	1670	667663.858699794343	1
7	1672	671939.053264485353	0
7	1690	674880.039446043361	1
7	1695	675888.244674659325	2
7	1698	678249.206801992471	1
7	1706	679525.868263308526	0
7	1720	682305.052854300554	1
7	1723	685359.341162166554	0
7	1738	693530.379585216718	1
7	1741	696893.45350499122	0
7	1755	698550.69560197461	1
7	1758	702667.721854577781	0
7	1774	715279.680282189532	1
7	1782	716638.725269413896	2
7	1784	718705.566346403641	1
7	1802	720711.704765400272	2
7	1806	720783.592350947517	1
7	1810	721632.819593479329	2
7	1826	722761.932087050174	3
7	1831	723864.174699809704	4
7	1833	724093.592380176613	3
7	1841	724802.738466124662	2
7	1850	726304.390228065546	1
7	1858	727612.375335024466	0
7	1875	731388.801714192211	1
7	1881	732321.879020913859	2
7	1883	735749.841231406208	1
7	1888	735928.786472702947	0
7	1906	738448.162346408931	1
7	1917	739675.796758079955	2
7	1922	740503.196309275815	3
7	1930	741430.745866710407	4
7	1932	741955.799517504903	3
7	1940	742639.55823004968	2
7	1948	743891.882166934764	1
7	1957	745620.091605516338	0
7	1974	749190.430291922063	1
7	1980	750181.919550050893	2
7	1982	752906.913037139636	1
7	1990	753997.629633111159	0
7	2005	757571.551742450127	1
7	2007	760628.974385068079	0
7	2022	762312.300231934906	1
7	2029	766058.62900753486	0
7	2033	766577.4882054646	1
7	2047	769077.811724452817	2
7	2049	770200.923935113463	1
7	2057	772238.890527552037	0
7	2074	787754.534020347398	1
7	2082	791039.492372084491	2
7	2084	791313.69033379918	1
7	2093	794456.883072638019	0
7	2108	798604.941236295865	1
7	2110	802275.655728495454	0
7	2128	805813.164140485345	1
7	2136	806669.237187153856	2
7	2150	807470.533373912813	3
7	2155	808405.97509585881	4
7	2159	809012.527460317656	3
7	2163	809319.469342832037	4
7	2168	810126.673279644338	3
7	2172	810233.54322077091	4
7	2184	811763.096850128749	3
7	2192	812434.601941208888	2
7	2200	813030.264150721119	1
7	2208	813525.006793259561	0
7	2223	816757.49649414987	1
7	2230	820773.396386126379	0
7	2234	821118.423939043069	1
7	2247	824930.479873200289	0
7	2251	825586.943515927425	1
7	2259	829094.308124885144	0
7	2273	830757.396643066377	1
7	2284	832970.907668461361	2
7	2289	833777.437694572284	3
7	2291	833896.719054733608	2
7	2300	836414.852956105339	1
7	2308	837172.493488411502	0
7	2324	850405.276910313745	1
7	2333	852174.769732835192	2
7	2340	853792.735468854341	1
7	2344	853916.649070780464	2
7	2351	855663.584520653411	1
7	2359	857750.486407611485	0
7	2374	859036.124750026139	1
7	2376	862452.541381383432	0
7	2391	866742.850636407523	1
7	2394	870215.7411254468	0
7	2411	890759.422418518222	1
7	2414	894766.046267529288	0
7	2429	901875.225289481676	1
7	2431	905641.024977935064	0
7	2450	917820.967361304726	1
7	2456	918629.419197563262	2
7	2464	921303.969113936665	3
7	2466	921320.36910670803	2
7	2474	922566.968057878597	1
7	2483	925129.240490475829	0
7	2497	929825.742066774373	1
7	2506	931520.949937843825	2
7	2508	933268.524893645669	1
7	2516	935099.412806815693	0
7	2531	938974.880357397799	1
7	2539	941649.995828623952	2
7	2542	942735.561267463841	1
7	2556	943821.059068642297	2
7	2558	945262.09458054668	1
7	2566	947945.679837264388	0
7	2582	955848.67074093438	1
7	2590	958093.060026485587	2
7	2592	959633.196195612588	1
7	2601	961672.364637721595	0
7	2615	963440.497453286365	1
7	2618	966983.869701398321	0
7	2633	973583.953944879986	1
7	2635	977200.980984312884	0
7	2650	980893.316035902895	1
7	2653	984199.191884865184	0
7	2668	991320.713817075817	1
7	2679	992636.908202024288	2
7	2684	993681.410753382305	3
7	2686	995069.762135166699	2
7	2695	996332.811843538319	1
7	2703	997721.385730757879	0
7	2718	1005218.260369422084	1
7	2721	1008836.363606635615	0
7	2735	1012815.100586571497	1
7	2744	1015161.272660458226	2
7	2746	1015687.644893495435	1
7	2763	1016881.079073013517	2
7	2768	1017741.852966912102	3
7	2770	1018842.375606525478	2
7	2779	1020567.936071877312	1
7	2784	1020812.274602851507	0
7	2803	1036402.467094886443	1
7	2818	1038287.542992158322	2
7	2823	1039240.154620852916	3
7	2828	1039950.142459373726	4
7	2835	1040211.268649699294	3
7	2839	1040880.541134139429	4
7	2843	1041113.879562691016	3
7	2854	1043231.225218839143	2
7	2862	1043798.052242428399	1
7	2871	1044990.896653564811	0
7	2885	1047677.729151622963	1
7	2888	1051271.368165343002	0
7	2903	1058844.978093814171	1
7	2911	1060897.572604814639	2
7	2914	1062058.806921838846	1
