version 2
run ResponseMeasurement-42-20170110-19:45:37-22619
attr configname ResponseMeasurement
attr datetime 20170110-19:45:37
attr experiment ResponseMeasurement
attr inifile responseStudy.ini
attr iterationvars ""
attr iterationvars2 $repetition=42
attr measurement ""
attr network controltower.SimNetwork
attr processid 22619
attr repetition 42
attr replication #42
attr resultdir results
attr runnumber 42
attr seedset 42
param SimNetwork.a.parkingLot.parkingDelay "truncnormal(60min, 6min)"
param SimNetwork.a.runway.landingTime "truncnormal(15min, 1.5min)"
param SimNetwork.a.runway.takeoffTime "truncnormal(5min, 0.5min)"
param SimNetwork.a.runway.throughputCheckInterval 100min
param SimNetwork.wg.interArrivalTime exponential(100min)

statistic SimNetwork.wg 	responseTime:stats
field count 157
field mean 10611.94411375
field stddev 5571.3323570229
field sum 1666075.2258587
field sqrsum 22522497286.371
field min 5080.1220857606
field max 30441.791862299
attr source  responseTimeSignal
scalar SimNetwork.a.landingQueue 	queueLength:timeavg 	0.020862686822999
attr source  queueLengthSignal
statistic SimNetwork.a.landingQueue 	queueLength:stats
field count 316
field mean 0.5253164556962
field stddev 0.52492620298999
field sum 166
field sqrsum 174
field min 0
field max 2
attr source  queueLengthSignal
statistic SimNetwork.a.landingQueue 	queueTime:stats
field count 158
field mean 113.79490915497
field stddev 280.47287275615
field sum 17979.595646486
field sqrsum 14396396.532512
field min 0
field max 1511.1656675181
attr source  queueTimeSignal
scalar SimNetwork.a.takeoffQueue 	queueLength:timeavg 	0.025085449205265
attr source  queueLengthSignal
statistic SimNetwork.a.takeoffQueue 	queueLength:stats
field count 314
field mean 0.51910828025478
field stddev 0.51923189251622
field sum 163
field sqrsum 169
field min 0
field max 2
attr source  queueLengthSignal
statistic SimNetwork.a.takeoffQueue 	queueTime:stats
field count 157
field mean 137.90022122132
field stddev 428.57152179259
field sum 21650.334731747
field sqrsum 31638659.638516
field min 0
field max 3323.9873650121
attr source  queueTimeSignal
scalar SimNetwork.a.parkingLot 	parkingOccupancy:timeavg 	0.65145483272011
attr source  parkingOccupancy
statistic SimNetwork.a.parkingLot 	parkingOccupancy:stats
field count 315
field mean 1.184126984127
field stddev 0.90173335368529
field sum 373
field sqrsum 697
field min 0
field max 4
attr source  parkingOccupancy
