version 2
run ResponseMeasurement-13-20170110-19:45:26-22590
attr configname ResponseMeasurement
attr datetime 20170110-19:45:26
attr experiment ResponseMeasurement
attr inifile responseStudy.ini
attr iterationvars ""
attr iterationvars2 $repetition=13
attr measurement ""
attr network controltower.SimNetwork
attr processid 22590
attr repetition 13
attr replication #13
attr resultdir results
attr runnumber 13
attr seedset 13
param SimNetwork.a.parkingLot.parkingDelay "truncnormal(60min, 6min)"
param SimNetwork.a.runway.landingTime "truncnormal(15min, 1.5min)"
param SimNetwork.a.runway.takeoffTime "truncnormal(5min, 0.5min)"
param SimNetwork.a.runway.throughputCheckInterval 100min
param SimNetwork.wg.interArrivalTime exponential(100min)

statistic SimNetwork.wg 	responseTime:stats
field count 130
field mean 11642.555444413
field stddev 6243.4505854257
field sum 1513532.2077736
field sqrsum 22649889748.341
field min 5220.4920581618
field max 35036.558163852
attr source  responseTimeSignal
scalar SimNetwork.a.landingQueue 	queueLength:timeavg 	0.011027814708354
attr source  queueLengthSignal
statistic SimNetwork.a.landingQueue 	queueLength:stats
field count 262
field mean 0.50763358778626
field stddev 0.50849011271568
field sum 133
field sqrsum 135
field min 0
field max 2
attr source  queueLengthSignal
statistic SimNetwork.a.landingQueue 	queueTime:stats
field count 131
field mean 72.682592926715
field stddev 202.21826665477
field sum 9521.4196733997
field sqrsum 6008031.0281581
field min 0
field max 1227.4819153415
attr source  queueTimeSignal
scalar SimNetwork.a.takeoffQueue 	queueLength:timeavg 	0.019637491103287
attr source  queueLengthSignal
statistic SimNetwork.a.takeoffQueue 	queueLength:stats
field count 260
field mean 0.52307692307692
field stddev 0.52306469350996
field sum 136
field sqrsum 142
field min 0
field max 2
attr source  queueLengthSignal
statistic SimNetwork.a.takeoffQueue 	queueTime:stats
field count 130
field mean 129.77158287137
field stddev 381.95074695267
field sum 16870.305773278
field sqrsum 21008628.413326
field min 0
field max 2913.2725116112
attr source  queueTimeSignal
scalar SimNetwork.a.parkingLot 	parkingOccupancy:timeavg 	0.54883125653507
attr source  parkingOccupancy
statistic SimNetwork.a.parkingLot 	parkingOccupancy:stats
field count 261
field mean 1.1072796934866
field stddev 0.92610883349133
field sum 289
field sqrsum 543
field min 0
field max 4
attr source  parkingOccupancy
