version 2
run ResponseMeasurement-37-20170110-19:45:36-22614
attr configname ResponseMeasurement
attr datetime 20170110-19:45:36
attr experiment ResponseMeasurement
attr inifile responseStudy.ini
attr iterationvars ""
attr iterationvars2 $repetition=37
attr measurement ""
attr network controltower.SimNetwork
attr processid 22614
attr repetition 37
attr replication #37
attr resultdir results
attr runnumber 37
attr seedset 37
param SimNetwork.a.parkingLot.parkingDelay "truncnormal(60min, 6min)"
param SimNetwork.a.runway.landingTime "truncnormal(15min, 1.5min)"
param SimNetwork.a.runway.takeoffTime "truncnormal(5min, 0.5min)"
param SimNetwork.a.runway.throughputCheckInterval 100min
param SimNetwork.wg.interArrivalTime exponential(100min)

statistic SimNetwork.wg 	responseTime:stats
field count 134
field mean 11370.505272087
field stddev 6987.2388577865
field sum 1523647.7064596
field sqrsum 23817904690.918
field min 4915.2192140977
field max 47714.174137006
attr source  responseTimeSignal
scalar SimNetwork.a.landingQueue 	queueLength:timeavg 	0.010595968055738
attr source  queueLengthSignal
statistic SimNetwork.a.landingQueue 	queueLength:stats
field count 270
field mean 0.5
field stddev 0.50092850590652
field sum 135
field sqrsum 135
field min 0
field max 1
attr source  queueLengthSignal
statistic SimNetwork.a.landingQueue 	queueTime:stats
field count 135
field mean 67.538123088986
field stddev 184.17542839495
field sum 9117.6466170131
field sqrsum 5161147.5883798
field min 0
field max 836.01429435622
attr source  queueTimeSignal
scalar SimNetwork.a.takeoffQueue 	queueLength:timeavg 	0.010925783844545
attr source  queueLengthSignal
statistic SimNetwork.a.takeoffQueue 	queueLength:stats
field count 268
field mean 0.5
field stddev 0.50093545451287
field sum 134
field sqrsum 134
field min 0
field max 1
attr source  queueLengthSignal
statistic SimNetwork.a.takeoffQueue 	queueTime:stats
field count 134
field mean 70.422358392999
field stddev 251.19124738504
field sum 9436.5960246619
field sqrsum 9056454.0347183
field min 0
field max 1729.692394525
attr source  queueTimeSignal
scalar SimNetwork.a.parkingLot 	parkingOccupancy:timeavg 	0.55667446645975
attr source  parkingOccupancy
statistic SimNetwork.a.parkingLot 	parkingOccupancy:stats
field count 269
field mean 1.0631970260223
field stddev 0.83291801964768
field sum 286
field sqrsum 490
field min 0
field max 3
attr source  parkingOccupancy
