version 2
run WarmupMeasurement-3-20170109-15:30:42-1805
attr configname WarmupMeasurement
attr datetime 20170109-15:30:42
attr experiment WarmupMeasurement
attr inifile responseStudy.ini
attr iterationvars ""
attr iterationvars2 $repetition=3
attr measurement ""
attr network controltower.SimNetwork
attr processid 1805
attr repetition 3
attr replication #3
attr resultdir results
attr runnumber 3
attr seedset 3
param SimNetwork.a.parkingLot.parkingDelay "truncnormal(60min, 6min)"
param SimNetwork.a.runway.landingTime "truncnormal(15min, 1.5min)"
param SimNetwork.a.runway.takeoffTime "truncnormal(5min, 0.5min)"
param SimNetwork.a.runway.throughputCheckInterval 100min
param SimNetwork.wg.interArrivalTime exponential(100min)

vector 2  SimNetwork.a.landingQueue  queueLength:vector  ETV
attr source  queueLengthSignal
vector 1  SimNetwork.a.landingQueue  queueTime:vector  ETV
attr source  queueTimeSignal
vector 7  SimNetwork.a.parkingLot  parkingOccupancy:vector  ETV
attr source  parkingOccupancy
vector 5  SimNetwork.a.runway  landedThroughput:vector  ETV
attr source  landedThroughputSignal
vector 6  SimNetwork.a.runway  tookoffThroughput:vector  ETV
attr source  tookoffThroughputSignal
vector 4  SimNetwork.a.takeoffQueue  queueLength:vector  ETV
attr source  queueLengthSignal
vector 3  SimNetwork.a.takeoffQueue  queueTime:vector  ETV
attr source  queueTimeSignal
vector 0  SimNetwork.wg  responseTime:vector  ETV
attr source  responseTimeSignal
0	48	10202.455384387726	10202.455384388
0	56	10930.551329785533	6128.8569844298
0	65	12441.455575931835	7199.6586027897
0	73	13067.180446893052	5762.7910239704
0	81	13966.852100875378	6548.9067850932
0	117	21013.540377962238	12202.164767367
0	130	22424.122420348802	6491.5538324652
0	147	24778.379411346918	7045.2384634097
0	155	25771.322695718368	5843.3632133959
0	163	27803.499254666337	6851.7511201284
0	191	49803.967148579837	27065.135298353
0	207	52842.721847069766	7726.8242139608
0	216	55812.350716898368	7492.7198284354
0	233	63904.865105395783	12892.823984369
0	266	69206.678522128574	9920.9305873648
0	274	70058.42389200183	5477.6737642668
0	282	70696.472261393241	5646.6547095965
0	307	77989.054308283741	11590.026170903
0	316	80817.772445001254	7340.4528895335
0	349	85962.399134680631	9678.4816355103
0	360	87323.19185733671	6378.5413998941
0	365	87630.811394765161	5018.3808493798
0	406	93869.792204054628	11128.636185833
0	414	94965.924227204447	5917.6551152447
0	422	95411.660245953296	5201.4303271068
0	431	96506.30161777626	5465.3672286566
0	448	103265.611906881147	11685.124576427
0	465	112562.405632841877	14115.015335504
0	487	127707.021303097905	19584.870834822
0	501	133075.547979280632	10234.675267631
0	526	141751.43985265999	14180.772361836
0	535	145135.088350988206	8343.4836257028
0	553	161081.59619024753	20487.721756371
0	570	164885.443764735166	8510.3361949744
0	595	172376.697658904404	10906.465543646
0	603	173985.4086425352	6382.3246009195
0	637	180553.11948437432	11166.013226623
0	645	183377.025240409841	7671.7078910346
0	653	184775.772207880469	6432.6390054086
0	671	195554.682619407041	16854.75941566
0	689	209241.155404031233	18742.263356972
0	707	217067.190097703403	13012.849394622
0	748	224546.196874017035	12212.183549611
0	759	225324.949671585537	5866.9945336995
0	764	225651.039197237103	5594.9487328138
0	772	227802.643664738925	6845.3324297415
0	801	237451.845357757676	14268.485636549
0	814	238886.431964876696	6077.4351238089
0	823	242400.316960447951	8919.5484103692
0	849	257597.123648152324	20163.914910542
0	858	260177.529222312192	6916.0703072135
0	883	266212.661075623834	10986.053204549
0	891	267737.059111127087	6329.0739758913
0	925	278999.939080741053	16017.245446951
0	933	280510.021638636348	5972.9500575998
0	944	280784.709499584351	5968.2490298425
0	958	286110.574027682973	9785.0381194353
0	1000	298990.159356441295	18300.869764489
0	1008	299302.272456274241	4751.0448382988
0	1017	300695.953188220171	5718.649466409
0	1025	302019.743307091561	5606.0829212209
0	1072	325610.420353992086	27978.388337774
0	1085	326713.2922707483	5879.7496812786
0	1093	328162.801735541597	6332.2990044322
0	1101	329501.072926928282	6086.0082042506
0	1110	330808.79788447523	7209.0516838342
0	1127	337449.902784643522	11906.005939988
0	1152	347080.915585439314	14416.979420901
0	1169	351113.199592856779	8989.6842255567
0	1178	354396.106476489179	9103.5374302435
0	1203	361053.795265690572	11212.383320047
0	1219	365244.907599016938	9729.2736116538
0	1228	366267.453948539861	6569.8122518563
0	1252	371598.498331857474	9806.1197830216
0	1261	372803.719398332953	6435.1361445383
0	1290	384295.586796285566	16790.794197384
0	1327	388752.658218314221	9594.4016957237
0	1335	389647.750180228372	6788.2809572515
0	1344	390954.737946054651	6821.4291363219
0	1352	391486.504960369454	5859.8402749431
0	1360	391982.416787446721	6215.9992488003
0	1377	398029.889994018363	11912.149203305
0	1395	410872.21137284976	18023.239588928
1	4	4801.694345355742	0
1	12	5777.339539071083	535.54256592896
1	21	7304.38942292262	0
1	29	8249.504948394072	831.55963261193
1	37	9112.342286445945	300.96667585074
1	86	15932.568587883577	0
1	94	17733.140947937243	0
1	103	19927.959482322511	0
1	119	21013.540377962238	61.79224342432
1	135	22738.831850227233	0
1	171	45115.897633108937	0
1	180	48319.630888463006	0
1	196	51012.041121027142	0
1	221	59285.747934763798	0
1	238	64580.750127735006	0
1	246	65484.803705872643	434.98615407588
1	255	66532.129512517668	133.10137513692
1	288	73477.319555467769	0
1	296	76283.917499170365	0
1	321	80944.650457442657	0
1	329	82612.430545385329	0
1	337	83375.245474163149	634.08945594159
1	370	89048.26911195971	0
1	379	90210.22991884649	0
1	387	91040.934389119643	0
1	395	91828.743614843845	248.25628438991
1	436	98447.39029733779	0
1	454	108122.150468275796	0
1	472	122840.872711649736	0
1	489	127707.021303097905	136.35381227389
1	506	136791.604725285446	0
1	515	140593.874433876581	0
1	542	156375.107569760773	0
1	558	161470.232115258265	0
1	575	167603.084041615709	0
1	584	169387.106257751566	0
1	609	175705.317349375268	0
1	617	178343.133202471851	0
1	625	179284.278240211409	584.35503646418
1	659	190498.892047059511	0
1	678	204054.340703081767	0
1	695	212334.013324406123	0
1	712	219457.955137886027	0
1	720	220237.602096659934	181.51163223663
1	728	221023.553107744718	66.241872747253
1	737	223183.359721208822	0
1	778	232808.996841067776	0
1	786	233677.467581042112	196.69903096332
1	803	237451.845357757676	18.636620147712
1	830	253261.458915098688	0
1	838	255226.607871074926	0
1	863	261407.985135235766	0
1	871	262982.693633790484	0
1	897	274537.071581036508	0
1	905	275454.946095783116	638.48562604124
1	914	276370.626807695557	45.090899447912
1	946	280784.709499584351	95.419907632015
1	965	294551.227617975442	0
1	973	295516.416536005279	539.11281419414
1	981	296441.514014257655	27.853628386948
1	989	297632.032016217857	0
1	1033	320833.542589469741	0
1	1041	321830.502731109408	0
1	1049	323415.064722677647	0
1	1058	324106.585762689642	506.83956204865
1	1074	325610.420353992086	66.523509336192
1	1115	332663.936164538228	0
1	1133	342123.515367300068	0
1	1141	345292.56904624563	0
1	1158	349841.411945643998	0
1	1183	355515.633987363096	0
1	1191	359697.641696683519	0
1	1208	361792.378548835919	0
1	1233	366368.583253794669	0
1	1241	367504.792598901765	0
1	1267	379158.256522590491	0
1	1275	382859.469222976837	0
1	1292	384295.586796285566	162.27798655279
1	1300	385626.664685426306	0
1	1311	386558.641358412012	792.22381976558
1	1316	387438.853220521379	1321.1124298078
1	1365	392848.971783921462	0
1	1383	406414.1495855505	0
1	1403	428104.674083089524	0
2	2	4801.694345355742	1
2	4	4801.694345355742	0
2	7	5241.796973142123	1
2	12	5777.339539071083	0
2	19	7304.38942292262	1
2	21	7304.38942292262	0
2	24	7417.945315782145	1
2	29	8249.504948394072	0
2	32	8811.375610595201	1
2	37	9112.342286445945	0
2	84	15932.568587883577	1
2	86	15932.568587883577	0
2	92	17733.140947937243	1
2	94	17733.140947937243	0
2	101	19927.959482322511	1
2	103	19927.959482322511	0
2	114	20951.748134537918	1
2	119	21013.540377962238	0
2	133	22738.831850227233	1
2	135	22738.831850227233	0
2	169	45115.897633108937	1
2	171	45115.897633108937	0
2	178	48319.630888463006	1
2	180	48319.630888463006	0
2	194	51012.041121027142	1
2	196	51012.041121027142	0
2	219	59285.747934763798	1
2	221	59285.747934763798	0
2	236	64580.750127735006	1
2	238	64580.750127735006	0
2	241	65049.817551796766	1
2	246	65484.803705872643	0
2	250	66399.028137380743	1
2	255	66532.129512517668	0
2	286	73477.319555467769	1
2	288	73477.319555467769	0
2	294	76283.917499170365	1
2	296	76283.917499170365	0
2	319	80944.650457442657	1
2	321	80944.650457442657	0
2	327	82612.430545385329	1
2	329	82612.430545385329	0
2	332	82741.156018221556	1
2	337	83375.245474163149	0
2	368	89048.26911195971	1
2	370	89048.26911195971	0
2	377	90210.22991884649	1
2	379	90210.22991884649	0
2	385	91040.934389119643	1
2	387	91040.934389119643	0
2	390	91580.487330453936	1
2	395	91828.743614843845	0
2	434	98447.39029733779	1
2	436	98447.39029733779	0
2	452	108122.150468275796	1
2	454	108122.150468275796	0
2	470	122840.872711649736	1
2	472	122840.872711649736	0
2	484	127570.667490824016	1
2	489	127707.021303097905	0
2	504	136791.604725285446	1
2	506	136791.604725285446	0
2	513	140593.874433876581	1
2	515	140593.874433876581	0
2	540	156375.107569760773	1
2	542	156375.107569760773	0
2	556	161470.232115258265	1
2	558	161470.232115258265	0
2	573	167603.084041615709	1
2	575	167603.084041615709	0
2	582	169387.106257751566	1
2	584	169387.106257751566	0
2	607	175705.317349375268	1
2	609	175705.317349375268	0
2	615	178343.133202471851	1
2	617	178343.133202471851	0
2	620	178699.923203747231	1
2	625	179284.278240211409	0
2	657	190498.892047059511	1
2	659	190498.892047059511	0
2	676	204054.340703081767	1
2	678	204054.340703081767	0
2	693	212334.013324406123	1
2	695	212334.013324406123	0
2	710	219457.955137886027	1
2	712	219457.955137886027	0
2	715	220056.090464423299	1
2	720	220237.602096659934	0
2	723	220957.311234997465	1
2	728	221023.553107744718	0
2	735	223183.359721208822	1
2	737	223183.359721208822	0
2	776	232808.996841067776	1
2	778	232808.996841067776	0
2	781	233480.768550078795	1
2	786	233677.467581042112	0
2	798	237433.208737609964	1
2	803	237451.845357757676	0
2	828	253261.458915098688	1
2	830	253261.458915098688	0
2	836	255226.607871074926	1
2	838	255226.607871074926	0
2	861	261407.985135235766	1
2	863	261407.985135235766	0
2	869	262982.693633790484	1
2	871	262982.693633790484	0
2	895	274537.071581036508	1
2	897	274537.071581036508	0
2	900	274816.46046974188	1
2	905	275454.946095783116	0
2	909	276325.535908247645	1
2	914	276370.626807695557	0
2	941	280689.289591952336	1
2	946	280784.709499584351	0
2	963	294551.227617975442	1
2	965	294551.227617975442	0
2	968	294977.303721811142	1
2	973	295516.416536005279	0
2	976	296413.660385870707	1
2	981	296441.514014257655	0
2	987	297632.032016217857	1
2	989	297632.032016217857	0
2	1031	320833.542589469741	1
2	1033	320833.542589469741	0
2	1039	321830.502731109408	1
2	1041	321830.502731109408	0
2	1047	323415.064722677647	1
2	1049	323415.064722677647	0
2	1052	323599.746200640995	1
2	1058	324106.585762689642	0
2	1069	325543.896844655894	1
2	1074	325610.420353992086	0
2	1113	332663.936164538228	1
2	1115	332663.936164538228	0
2	1131	342123.515367300068	1
2	1133	342123.515367300068	0
2	1139	345292.56904624563	1
2	1141	345292.56904624563	0
2	1156	349841.411945643998	1
2	1158	349841.411945643998	0
2	1181	355515.633987363096	1
2	1183	355515.633987363096	0
2	1189	359697.641696683519	1
2	1191	359697.641696683519	0
2	1206	361792.378548835919	1
2	1208	361792.378548835919	0
2	1231	366368.583253794669	1
2	1233	366368.583253794669	0
2	1239	367504.792598901765	1
2	1241	367504.792598901765	0
2	1265	379158.256522590491	1
2	1267	379158.256522590491	0
2	1273	382859.469222976837	1
2	1275	382859.469222976837	0
2	1287	384133.30880973278	1
2	1292	384295.586796285566	0
2	1298	385626.664685426306	1
2	1300	385626.664685426306	0
2	1303	385766.417538646428	1
2	1306	386117.740790713554	2
2	1311	386558.641358412012	1
2	1316	387438.853220521379	0
2	1363	392848.971783921462	1
2	1365	392848.971783921462	0
2	1381	406414.1495855505	1
2	1383	406414.1495855505	0
2	1401	428104.674083089524	1
2	1403	428104.674083089524	0
3	45	9917.179530079678	722.51758217575
3	53	10675.559049697424	0
3	62	12107.152608638706	0
3	70	12766.524220907519	0
3	78	13628.996225281376	0
3	111	20732.731500071354	474.28631455345
3	127	22054.293594737169	0
3	144	24447.487107902186	0
3	152	25493.127908490578	0
3	160	27477.101996581358	0
3	188	49541.823924715544	0
3	204	52561.611678513581	0
3	213	55543.404652789588	0
3	230	63632.735458407342	0
3	263	68954.622217267168	0
3	271	69741.937067693243	0
3	279	70415.025605328854	0
3	304	77668.710989479961	0
3	313	80521.220545672618	0
3	346	85643.750885890368	0
3	354	86961.768062009636	0
3	362	87323.19185733671	214.66699068823
3	403	93541.52948800144	0
3	411	94636.403724384478	0
3	419	95117.448338552037	0
3	428	96267.737992393627	0
3	445	102930.524507112918	0
3	462	112321.029455743336	0
3	481	127392.943030840921	0
3	498	132794.201291212595	0
3	523	141511.617631173382	63.564436524045
3	532	144827.997866058314	0
3	550	160735.587654673454	0
3	567	164562.868379911478	0
3	592	172086.424608954425	0
3	600	173590.56464879547	0
3	634	180234.831138879921	258.67775569811
3	642	183064.254508100672	0
3	650	184521.032062711638	0
3	668	195224.227609222128	0
3	686	208925.820135106539	0
3	704	216809.862528191003	0
3	745	224216.864770844328	554.00216526634
3	753	225023.901938336385	0
3	761	225324.949671585537	65.895276197312
3	769	227477.78430691844	0
3	795	237146.134385552117	0
3	811	238597.509050725234	0
3	820	242121.172557625665	0
3	846	257324.324600631519	0
3	855	259920.910378120334	0
3	880	265952.00897352891	0
3	888	267400.185626234019	0
3	922	278686.240731126856	0
3	930	280189.101687882267	0
3	938	280538.297069412324	0
3	955	285821.832198963163	0
3	997	298723.575216609778	0
3	1005	298998.059224036116	0
3	1014	300413.772270606421	0
3	1022	301764.819805558121	0
3	1066	325345.269557363405	0
3	1082	326430.879571669533	0
3	1090	327897.14150584422	0
3	1098	329224.535267466194	0
3	1107	330474.249621509938	0
3	1124	337165.106657821623	0
3	1149	346742.575559517056	0
3	1166	350773.484487650998	891.8398341353
3	1175	354095.805810172677	0
3	1200	360769.142358131865	593.17957046159
3	1216	364911.33863005943	0
3	1224	365997.314583095058	0
3	1249	371305.534085388621	0
3	1258	372482.184268754996	0
3	1283	383930.626213157783	0
3	1324	388425.87172674169	445.66679972767
3	1332	389345.542749949477	0
3	1341	390636.9979389035	0
3	1349	391181.411621391666	0
3	1357	391640.326364225245	0
3	1374	397676.944292082953	0
3	1392	410562.53054434259	0
3	1411	431910.221770436695	0
4	40	9194.661947903933	1
4	45	9917.179530079678	0
4	51	10675.559049697424	1
4	53	10675.559049697424	0
4	60	12107.152608638706	1
4	62	12107.152608638706	0
4	68	12766.524220907519	1
4	70	12766.524220907519	0
4	76	13628.996225281376	1
4	78	13628.996225281376	0
4	106	20258.4451855179	1
4	111	20732.731500071354	0
4	125	22054.293594737169	1
4	127	22054.293594737169	0
4	142	24447.487107902186	1
4	144	24447.487107902186	0
4	150	25493.127908490578	1
4	152	25493.127908490578	0
4	158	27477.101996581358	1
4	160	27477.101996581358	0
4	186	49541.823924715544	1
4	188	49541.823924715544	0
4	202	52561.611678513581	1
4	204	52561.611678513581	0
4	211	55543.404652789588	1
4	213	55543.404652789588	0
4	228	63632.735458407342	1
4	230	63632.735458407342	0
4	261	68954.622217267168	1
4	263	68954.622217267168	0
4	269	69741.937067693243	1
4	271	69741.937067693243	0
4	277	70415.025605328854	1
4	279	70415.025605328854	0
4	302	77668.710989479961	1
4	304	77668.710989479961	0
4	311	80521.220545672618	1
4	313	80521.220545672618	0
4	344	85643.750885890368	1
4	346	85643.750885890368	0
4	352	86961.768062009636	1
4	354	86961.768062009636	0
4	357	87108.524866648482	1
4	362	87323.19185733671	0
4	401	93541.52948800144	1
4	403	93541.52948800144	0
4	409	94636.403724384478	1
4	411	94636.403724384478	0
4	417	95117.448338552037	1
4	419	95117.448338552037	0
4	426	96267.737992393627	1
4	428	96267.737992393627	0
4	443	102930.524507112918	1
4	445	102930.524507112918	0
4	460	112321.029455743336	1
4	462	112321.029455743336	0
4	479	127392.943030840921	1
4	481	127392.943030840921	0
4	496	132794.201291212595	1
4	498	132794.201291212595	0
4	518	141448.053194649337	1
4	523	141511.617631173382	0
4	530	144827.997866058314	1
4	532	144827.997866058314	0
4	548	160735.587654673454	1
4	550	160735.587654673454	0
4	565	164562.868379911478	1
4	567	164562.868379911478	0
4	590	172086.424608954425	1
4	592	172086.424608954425	0
4	598	173590.56464879547	1
4	600	173590.56464879547	0
4	628	179976.153383181809	1
4	634	180234.831138879921	0
4	640	183064.254508100672	1
4	642	183064.254508100672	0
4	648	184521.032062711638	1
4	650	184521.032062711638	0
4	666	195224.227609222128	1
4	668	195224.227609222128	0
4	684	208925.820135106539	1
4	686	208925.820135106539	0
4	702	216809.862528191003	1
4	704	216809.862528191003	0
4	740	223662.86260557799	1
4	745	224216.864770844328	0
4	751	225023.901938336385	1
4	753	225023.901938336385	0
4	756	225259.054395388225	1
4	761	225324.949671585537	0
4	767	227477.78430691844	1
4	769	227477.78430691844	0
4	793	237146.134385552117	1
4	795	237146.134385552117	0
4	809	238597.509050725234	1
4	811	238597.509050725234	0
4	818	242121.172557625665	1
4	820	242121.172557625665	0
4	844	257324.324600631519	1
4	846	257324.324600631519	0
4	853	259920.910378120334	1
4	855	259920.910378120334	0
4	878	265952.00897352891	1
4	880	265952.00897352891	0
4	886	267400.185626234019	1
4	888	267400.185626234019	0
4	920	278686.240731126856	1
4	922	278686.240731126856	0
4	928	280189.101687882267	1
4	930	280189.101687882267	0
4	936	280538.297069412324	1
4	938	280538.297069412324	0
4	953	285821.832198963163	1
4	955	285821.832198963163	0
4	995	298723.575216609778	1
4	997	298723.575216609778	0
4	1003	298998.059224036116	1
4	1005	298998.059224036116	0
4	1012	300413.772270606421	1
4	1014	300413.772270606421	0
4	1020	301764.819805558121	1
4	1022	301764.819805558121	0
4	1064	325345.269557363405	1
4	1066	325345.269557363405	0
4	1080	326430.879571669533	1
4	1082	326430.879571669533	0
4	1088	327897.14150584422	1
4	1090	327897.14150584422	0
4	1096	329224.535267466194	1
4	1098	329224.535267466194	0
4	1105	330474.249621509938	1
4	1107	330474.249621509938	0
4	1122	337165.106657821623	1
4	1124	337165.106657821623	0
4	1147	346742.575559517056	1
4	1149	346742.575559517056	0
4	1161	349881.6446535157	1
4	1166	350773.484487650998	0
4	1173	354095.805810172677	1
4	1175	354095.805810172677	0
4	1195	360175.962787670277	1
4	1200	360769.142358131865	0
4	1214	364911.33863005943	1
4	1216	364911.33863005943	0
4	1222	365997.314583095058	1
4	1224	365997.314583095058	0
4	1247	371305.534085388621	1
4	1249	371305.534085388621	0
4	1256	372482.184268754996	1
4	1258	372482.184268754996	0
4	1281	383930.626213157783	1
4	1283	383930.626213157783	0
4	1319	387980.204927014017	1
4	1324	388425.87172674169	0
4	1330	389345.542749949477	1
4	1332	389345.542749949477	0
4	1339	390636.9979389035	1
4	1341	390636.9979389035	0
4	1347	391181.411621391666	1
4	1349	391181.411621391666	0
4	1355	391640.326364225245	1
4	1357	391640.326364225245	0
4	1372	397676.944292082953	1
4	1374	397676.944292082953	0
4	1390	410562.53054434259	1
4	1392	410562.53054434259	0
4	1409	431910.221770436695	1
4	1411	431910.221770436695	0
5	14	6000	1
5	58	12000	4
5	96	18000	1
5	140	24000	4
5	165	30000	0
5	166	36000	0
5	167	42000	0
5	176	48000	1
5	209	54000	2
5	223	60000	0
5	248	66000	2
5	284	72000	2
5	309	78000	2
5	339	84000	2
5	375	90000	2
5	424	96000	3
5	441	102000	1
5	450	108000	0
5	467	114000	1
5	468	120000	0
5	477	126000	1
5	494	132000	1
5	511	138000	1
5	528	144000	1
5	537	150000	0
5	538	156000	0
5	560	162000	1
5	577	168000	1
5	605	174000	2
5	630	180000	2
5	655	186000	1
5	664	192000	1
5	673	198000	0
5	674	204000	0
5	691	210000	1
5	700	216000	1
5	733	222000	3
5	774	228000	1
5	788	234000	1
5	816	240000	2
5	825	246000	0
5	826	252000	0
5	851	258000	2
5	876	264000	2
5	893	270000	0
5	907	276000	1
5	951	282000	3
5	960	288000	0
5	961	294000	0
5	1010	300000	4
5	1027	306000	0
5	1028	312000	0
5	1029	318000	0
5	1054	324000	2
5	1103	330000	3
5	1120	336000	1
5	1129	342000	0
5	1154	348000	2
5	1171	354000	1
5	1193	360000	1
5	1226	366000	2
5	1254	372000	2
5	1263	378000	0
5	1285	384000	2
5	1337	390000	4
5	1370	396000	1
5	1379	402000	0
5	1388	408000	1
5	1397	414000	0
5	1398	420000	0
5	1399	426000	0
5	1413	432000	1
6	14	6000	0
6	58	12000	2
6	96	18000	3
6	140	24000	2
6	165	30000	3
6	166	36000	0
6	167	42000	0
6	176	48000	0
6	209	54000	2
6	223	60000	1
6	248	66000	1
6	284	72000	3
6	309	78000	1
6	339	84000	1
6	375	90000	3
6	424	96000	3
6	441	102000	1
6	450	108000	1
6	467	114000	1
6	468	120000	0
6	477	126000	0
6	494	132000	1
6	511	138000	1
6	528	144000	1
6	537	150000	1
6	538	156000	0
6	560	162000	1
6	577	168000	1
6	605	174000	2
6	630	180000	0
6	655	186000	3
6	664	192000	0
6	673	198000	1
6	674	204000	0
6	691	210000	1
6	700	216000	0
6	733	222000	1
6	774	228000	4
6	788	234000	0
6	816	240000	2
6	825	246000	1
6	826	252000	0
6	851	258000	1
6	876	264000	1
6	893	270000	2
6	907	276000	0
6	951	282000	3
6	960	288000	1
6	961	294000	0
6	1010	300000	2
6	1027	306000	2
6	1028	312000	0
6	1029	318000	0
6	1054	324000	0
6	1103	330000	4
6	1120	336000	1
6	1129	342000	1
6	1154	348000	1
6	1171	354000	1
6	1193	360000	1
6	1226	366000	2
6	1254	372000	2
6	1263	378000	1
6	1285	384000	0
6	1337	390000	3
6	1370	396000	3
6	1379	402000	1
6	1388	408000	0
6	1397	414000	1
6	1398	420000	0
6	1399	426000	0
6	1413	432000	0
7	10	5777.339539071083	1
7	16	6768.712434189884	2
7	27	8249.504948394072	3
7	35	9112.342286445945	4
7	39	9194.661947903933	3
7	43	9917.179530079678	4
7	50	10675.559049697424	3
7	59	12107.152608638706	2
7	67	12766.524220907519	1
7	75	13628.996225281376	0
7	89	16753.936576133219	1
7	98	18514.788755710195	2
7	105	20258.4451855179	1
7	109	20732.731500071354	2
7	122	21963.444625515056	3
7	124	22054.293594737169	2
7	138	23615.428392518649	3
7	141	24447.487107902186	2
7	149	25493.127908490578	1
7	157	27477.101996581358	0
7	174	46046.193777560847	1
7	183	49222.669361944206	2
7	185	49541.823924715544	1
7	199	51857.008834516895	2
7	201	52561.611678513581	1
7	210	55543.404652789588	0
7	225	60147.699777167891	1
7	227	63632.735458407342	0
7	244	65484.803705872643	1
7	253	66532.129512517668	2
7	258	67376.762657573566	3
7	260	68954.622217267168	2
7	268	69741.937067693243	1
7	276	70415.025605328854	0
7	291	74291.996675749577	1
7	299	77237.946565738696	2
7	301	77668.710989479961	1
7	310	80521.220545672618	0
7	324	82005.312947768649	1
7	335	83375.245474163149	2
7	341	84169.730922959526	3
7	343	85643.750885890368	2
7	351	86961.768062009636	1
7	356	87108.524866648482	0
7	373	89999.828951414832	1
7	382	90968.25042859034	2
7	393	91828.743614843845	3
7	398	92706.077035840184	4
7	400	93541.52948800144	3
7	408	94636.403724384478	2
7	416	95117.448338552037	1
7	425	96267.737992393627	0
7	439	99245.814762854142	1
7	442	102930.524507112918	0
7	457	108916.689177586893	1
7	459	112321.029455743336	0
7	475	123768.893012696187	1
7	478	127392.943030840921	0
7	492	128830.447768497217	1
7	495	132794.201291212595	0
7	509	137652.569801852343	1
7	517	141448.053194649337	0
7	521	141511.617631173382	1
7	529	144827.997866058314	0
7	545	157244.268875069842	1
7	547	160735.587654673454	0
7	562	162385.983814039211	1
7	564	164562.868379911478	0
7	579	168492.80540738166	1
7	587	170096.584187798627	2
7	589	172086.424608954425	1
7	597	173590.56464879547	0
7	612	176513.257213686239	1
7	623	179284.278240211409	2
7	627	179976.153383181809	1
7	632	180234.831138879921	2
7	639	183064.254508100672	1
7	647	184521.032062711638	0
7	662	191322.769357267214	1
7	665	195224.227609222128	0
7	681	204984.849549313928	1
7	683	208925.820135106539	0
7	698	213275.948702073644	1
7	701	216809.862528191003	0
7	718	220237.602096659934	1
7	726	221023.553107744718	2
7	731	221871.562140957133	3
7	739	223662.86260557799	2
7	743	224216.864770844328	3
7	750	225023.901938336385	2
7	755	225259.054395388225	1
7	766	227477.78430691844	0
7	784	233677.467581042112	1
7	790	234610.809278677258	2
7	792	237146.134385552117	1
7	806	238310.901270010769	2
7	808	238597.509050725234	1
7	817	242121.172557625665	0
7	833	254102.226640209795	1
7	841	256134.759320233546	2
7	843	257324.324600631519	1
7	852	259920.910378120334	0
7	866	262349.510507553436	1
7	874	263963.683616362861	2
7	877	265952.00897352891	1
7	885	267400.185626234019	0
7	903	275454.946095783116	1
7	912	276370.626807695557	2
7	917	277372.106471380839	3
7	919	278686.240731126856	2
7	927	280189.101687882267	1
7	935	280538.297069412324	0
7	949	281663.967395417481	1
7	952	285821.832198963163	0
7	971	295516.416536005279	1
7	979	296441.514014257655	2
7	984	297245.569755618366	3
7	992	298498.323907152817	4
7	994	298723.575216609778	3
7	1002	298998.059224036116	2
7	1011	300413.772270606421	1
7	1019	301764.819805558121	0
7	1036	321741.289471317457	1
7	1044	322833.023292471158	2
7	1056	324106.585762689642	3
7	1061	324985.89259322003	4
7	1063	325345.269557363405	3
7	1077	326397.620077250607	4
7	1079	326430.879571669533	3
7	1087	327897.14150584422	2
7	1095	329224.535267466194	1
7	1104	330474.249621509938	0
7	1118	333520.937442126401	1
7	1121	337165.106657821623	0
7	1136	343144.356702719731	1
7	1144	346214.459545614913	2
7	1146	346742.575559517056	1
7	1160	349881.6446535157	0
7	1164	350773.484487650998	1
7	1172	354095.805810172677	0
7	1186	356459.992221651171	1
7	1194	360175.962787670277	0
7	1198	360769.142358131865	1
7	1211	362774.481844382515	2
7	1213	364911.33863005943	1
7	1221	365997.314583095058	0
7	1236	367350.698731326706	1
7	1244	368456.66920247133	2
7	1246	371305.534085388621	1
7	1255	372482.184268754996	0
7	1270	380082.194953143673	1
7	1278	383661.443719669603	2
7	1280	383930.626213157783	1
7	1295	385193.577495872695	2
7	1309	386558.641358412012	3
7	1314	387438.853220521379	4
7	1318	387980.204927014017	3
7	1322	388425.87172674169	4
7	1329	389345.542749949477	3
7	1338	390636.9979389035	2
7	1346	391181.411621391666	1
7	1354	391640.326364225245	0
7	1368	393748.795633375586	1
7	1371	397676.944292082953	0
7	1386	407414.336080317173	1
7	1389	410562.53054434259	0
7	1406	429060.615656392574	1
7	1408	431910.221770436695	0
