version 2
run WarmupMeasurement-15-20170109-15:30:43-1817
attr configname WarmupMeasurement
attr datetime 20170109-15:30:43
attr experiment WarmupMeasurement
attr inifile responseStudy.ini
attr iterationvars ""
attr iterationvars2 $repetition=15
attr measurement ""
attr network controltower.SimNetwork
attr processid 1817
attr repetition 15
attr replication #15
attr resultdir results
attr runnumber 15
attr seedset 15
param SimNetwork.a.parkingLot.parkingDelay "truncnormal(60min, 6min)"
param SimNetwork.a.runway.landingTime "truncnormal(15min, 1.5min)"
param SimNetwork.a.runway.takeoffTime "truncnormal(5min, 0.5min)"
param SimNetwork.a.runway.throughputCheckInterval 100min
param SimNetwork.wg.interArrivalTime exponential(100min)

vector 5  SimNetwork.a.runway  landedThroughput:vector  ETV
attr source  landedThroughputSignal
vector 6  SimNetwork.a.runway  tookoffThroughput:vector  ETV
attr source  tookoffThroughputSignal
vector 2  SimNetwork.a.landingQueue  queueLength:vector  ETV
attr source  queueLengthSignal
vector 1  SimNetwork.a.landingQueue  queueTime:vector  ETV
attr source  queueTimeSignal
vector 7  SimNetwork.a.parkingLot  parkingOccupancy:vector  ETV
attr source  parkingOccupancy
vector 4  SimNetwork.a.takeoffQueue  queueLength:vector  ETV
attr source  queueLengthSignal
vector 3  SimNetwork.a.takeoffQueue  queueTime:vector  ETV
attr source  queueTimeSignal
vector 0  SimNetwork.wg  responseTime:vector  ETV
attr source  responseTimeSignal
0	17	16192.304955222543	16192.304955223
0	43	26000.040425629267	14664.427387191
0	51	28239.533657502703	6825.3875906621
0	77	38789.279256684454	15442.312541124
0	85	40334.452040689313	6621.5981682499
0	121	65943.078557158771	30389.876453391
0	130	66727.945480527386	6194.5788206354
0	146	68486.549016077756	7711.8598353782
0	162	71998.308303219257	8511.4461756286
0	171	74159.717502255891	6824.1229951575
0	188	79134.898405420069	9249.6273406192
0	214	90473.592310591878	15958.486872224
0	222	93207.991690653407	8177.4348073737
0	261	101322.749963698826	13165.02268411
0	272	102463.453887986969	6381.7816284629
0	280	103307.095168773128	6371.6552388312
0	288	106545.741630831331	7822.162561979
0	315	121485.3903481917	20361.04160184
0	326	124329.560789184849	7599.4818482141
0	340	128773.812898417862	9258.8166650476
0	373	135707.95338710196	11548.153773101
0	385	138977.912018338841	5445.248008871
0	390	139287.261363963133	9577.3940804515
0	425	157775.116397611366	24169.95541836
0	433	160225.948593716208	6646.9188237554
0	441	161662.347943566791	5911.8687006054
0	458	167543.463591699234	10847.859432825
0	475	173523.320343315357	11211.015714161
0	494	186720.423606495275	17421.193832674
0	512	201545.025729936962	19505.516393304
0	529	207388.613905126424	10492.017205863
0	549	214717.056783465364	12087.148761136
0	571	219491.977688145579	9800.9239115226
0	579	220801.114269752466	6367.6295466134
0	596	226515.819501635999	10978.166117933
0	614	239120.036292673976	17007.144365574
0	631	244349.950843683053	10582.855328969
0	656	250992.373072146647	11552.367893936
0	665	253694.454760376171	7790.1849339024
0	690	259968.196462884013	11291.816271375
0	698	263535.095768816319	7810.7746978775
0	717	281811.531050120264	23362.24135738
0	734	287179.486338651721	10631.52836843
0	755	313252.039528191705	30735.27630446
0	781	325437.840507310761	17202.780294371
0	797	328370.405546487732	9185.0634038395
0	806	330817.842016519894	6809.1090907551
0	823	336660.286532762512	10134.275895221
0	865	349604.319634384845	17809.14538085
0	884	351692.435007822197	6996.2360389767
0	889	351984.228951418769	5947.1055339949
0	897	352941.881464241172	6261.6287323565
0	906	355284.520486591915	8191.7195873465
0	925	372897.70260638077	22378.091013156
0	950	382603.668796525564	14546.443633926
0	967	386128.621615710775	7873.3671988869
0	976	390040.139589055315	9098.0215740849
0	993	396326.76796058265	11412.291782834
0	1010	405997.75136265033	14339.616123211
0	1030	426743.215199372936	26287.909735748
1	5	11335.61303843843	0
1	23	21414.146066840606	0
1	31	23346.966715560621	0
1	57	33712.853872439369	0
1	65	35553.202103767336	0
1	94	60533.366659892008	0
1	102	61447.153530508351	672.4643498088
1	110	63486.862127590706	0
1	135	67335.594507098432	0
1	151	69885.271064800842	0
1	176	74515.10543836797	0
1	194	85030.556883279708	0
1	202	88157.727279589116	0
1	228	96081.67225952409	0
1	236	97135.951073295238	200.51114335334
1	244	98723.579068852287	0
1	263	101322.749963698826	198.40121734744
1	295	116730.078940970731	0
1	303	119514.996233370269	0
1	328	124329.560789184849	169.76117518378
1	345	129709.867283511599	0
1	354	133532.664009467836	0
1	365	134567.900885296706	962.73990604536
1	397	153579.029769960805	0
1	405	155750.479242961388	0
1	414	156695.604158874082	0
1	447	162312.304629154662	0
1	464	169299.22977382097	0
1	482	182039.50933663309	0
1	500	196896.596699263422	0
1	517	202629.908022328986	0
1	534	209691.053776623002	0
1	551	214717.056783465364	283.57206032625
1	559	215585.676590752877	48.023207050082
1	585	222112.891927100001	0
1	602	233767.095514714171	0
1	619	239440.005178210573	0
1	636	245904.269826473751	0
1	645	248676.380191508953	0
1	670	255724.321070938827	0
1	679	258449.289692740195	0
1	706	276547.957970221575	0
1	723	282516.763223731999	0
1	743	308235.060212940195	0
1	761	319185.342142648233	0
1	770	324008.732925764783	0
1	786	326526.010637541073	0
1	811	331795.174253534349	0
1	829	344696.198968845493	0
1	837	346037.123417423828	0
1	845	346937.828643764069	257.57591187937
1	853	347820.636639790593	727.83574054518
1	870	350519.611593224855	0
1	913	368057.225162599725	0
1	931	378255.254416823827	0
1	939	380942.118014970415	0
1	956	384914.476177748193	0
1	981	391658.135239439709	0
1	998	400455.305463624839	0
1	1018	421859.057307625619	0
2	3	11335.61303843843	1
2	5	11335.61303843843	0
2	21	21414.146066840606	1
2	23	21414.146066840606	0
2	29	23346.966715560621	1
2	31	23346.966715560621	0
2	55	33712.853872439369	1
2	57	33712.853872439369	0
2	63	35553.202103767336	1
2	65	35553.202103767336	0
2	92	60533.366659892008	1
2	94	60533.366659892008	0
2	97	60774.689180699552	1
2	102	61447.153530508351	0
2	108	63486.862127590706	1
2	110	63486.862127590706	0
2	133	67335.594507098432	1
2	135	67335.594507098432	0
2	149	69885.271064800842	1
2	151	69885.271064800842	0
2	174	74515.10543836797	1
2	176	74515.10543836797	0
2	192	85030.556883279708	1
2	194	85030.556883279708	0
2	200	88157.727279589116	1
2	202	88157.727279589116	0
2	226	96081.67225952409	1
2	228	96081.67225952409	0
2	231	96935.439929941898	1
2	236	97135.951073295238	0
2	242	98723.579068852287	1
2	244	98723.579068852287	0
2	255	101124.348746351383	1
2	263	101322.749963698826	0
2	293	116730.078940970731	1
2	295	116730.078940970731	0
2	301	119514.996233370269	1
2	303	119514.996233370269	0
2	323	124159.799614001069	1
2	328	124329.560789184849	0
2	343	129709.867283511599	1
2	345	129709.867283511599	0
2	352	133532.664009467836	1
2	354	133532.664009467836	0
2	357	133605.160979251345	1
2	365	134567.900885296706	0
2	395	153579.029769960805	1
2	397	153579.029769960805	0
2	403	155750.479242961388	1
2	405	155750.479242961388	0
2	412	156695.604158874082	1
2	414	156695.604158874082	0
2	445	162312.304629154662	1
2	447	162312.304629154662	0
2	462	169299.22977382097	1
2	464	169299.22977382097	0
2	480	182039.50933663309	1
2	482	182039.50933663309	0
2	498	196896.596699263422	1
2	500	196896.596699263422	0
2	515	202629.908022328986	1
2	517	202629.908022328986	0
2	532	209691.053776623002	1
2	534	209691.053776623002	0
2	546	214433.48472313911	1
2	551	214717.056783465364	0
2	554	215537.653383702795	1
2	559	215585.676590752877	0
2	583	222112.891927100001	1
2	585	222112.891927100001	0
2	600	233767.095514714171	1
2	602	233767.095514714171	0
2	617	239440.005178210573	1
2	619	239440.005178210573	0
2	634	245904.269826473751	1
2	636	245904.269826473751	0
2	643	248676.380191508953	1
2	645	248676.380191508953	0
2	668	255724.321070938827	1
2	670	255724.321070938827	0
2	677	258449.289692740195	1
2	679	258449.289692740195	0
2	704	276547.957970221575	1
2	706	276547.957970221575	0
2	721	282516.763223731999	1
2	723	282516.763223731999	0
2	741	308235.060212940195	1
2	743	308235.060212940195	0
2	759	319185.342142648233	1
2	761	319185.342142648233	0
2	768	324008.732925764783	1
2	770	324008.732925764783	0
2	784	326526.010637541073	1
2	786	326526.010637541073	0
2	809	331795.174253534349	1
2	811	331795.174253534349	0
2	827	344696.198968845493	1
2	829	344696.198968845493	0
2	835	346037.123417423828	1
2	837	346037.123417423828	0
2	840	346680.252731884701	1
2	845	346937.828643764069	0
2	848	347092.800899245414	1
2	853	347820.636639790593	0
2	868	350519.611593224855	1
2	870	350519.611593224855	0
2	911	368057.225162599725	1
2	913	368057.225162599725	0
2	929	378255.254416823827	1
2	931	378255.254416823827	0
2	937	380942.118014970415	1
2	939	380942.118014970415	0
2	954	384914.476177748193	1
2	956	384914.476177748193	0
2	979	391658.135239439709	1
2	981	391658.135239439709	0
2	996	400455.305463624839	1
2	998	400455.305463624839	0
2	1016	421859.057307625619	1
2	1018	421859.057307625619	0
3	14	15880.429414331774	0
3	40	25684.215304050742	0
3	48	27873.890579861802	0
3	74	38494.242490886248	0
3	82	40033.02090030115	0
3	118	65626.40080387581	0
3	127	66461.316632189204	0
3	143	68201.47862096515	174.39740268781
3	159	71740.680810754725	0
3	168	73884.679449300806	0
3	185	78814.976109525769	0
3	211	90180.851656248766	0
3	219	92912.578268525722	0
3	252	101042.621213077257	0
3	269	102141.304091463182	935.61701245367
3	277	102997.396443896839	0
3	285	106244.39567860012	0
3	312	121222.651853280075	0
3	320	124015.15317889723	0
3	337	128453.432946366408	0
3	370	135429.977792172313	1291.625642754
3	379	138671.434233833304	0
3	387	138977.912018338841	298.0390040831
3	422	157464.920975223752	168.03335450514
3	430	159916.50410014783	0
3	438	161323.236320505866	0
3	455	167229.814092752209	0
3	472	173205.13413913251	0
3	491	186464.487588564695	0
3	509	201183.147758918855	0
3	526	207049.83032652312	0
3	543	214397.864229317215	0
3	568	219187.040850547478	0
3	576	220539.842550335841	0
3	593	226121.132413379605	0
3	611	238839.595980511121	0
3	628	243991.53986289405	0
3	653	250669.763028438427	0
3	662	253349.495051900912	0
3	687	259676.218508874386	0
3	695	263201.606706687587	0
3	714	281526.170543152012	0
3	731	286833.734071701347	0
3	752	312905.938153349531	0
3	778	325126.88017794388	1099.2509702306
3	794	328079.361442796441	0
3	803	330514.825920417408	0
3	820	336362.730895559349	0
3	862	349280.558246562195	0
3	878	351442.002977836053	92.779852771745
3	886	351692.435007822197	77.907933904662
3	894	352614.789483198043	0
3	903	355007.119868663595	0
3	922	372594.676317094721	0
3	947	382332.075007576022	0
3	964	385809.201335748818	429.27533911891
3	972	389725.828327603409	0
3	990	396033.12718346954	0
3	1007	405711.780853134157	0
3	1027	426481.828295209723	0
4	12	15880.429414331774	1
4	14	15880.429414331774	0
4	38	25684.215304050742	1
4	40	25684.215304050742	0
4	46	27873.890579861802	1
4	48	27873.890579861802	0
4	72	38494.242490886248	1
4	74	38494.242490886248	0
4	80	40033.02090030115	1
4	82	40033.02090030115	0
4	116	65626.40080387581	1
4	118	65626.40080387581	0
4	125	66461.316632189204	1
4	127	66461.316632189204	0
4	138	68027.081218277342	1
4	143	68201.47862096515	0
4	157	71740.680810754725	1
4	159	71740.680810754725	0
4	166	73884.679449300806	1
4	168	73884.679449300806	0
4	183	78814.976109525769	1
4	185	78814.976109525769	0
4	209	90180.851656248766	1
4	211	90180.851656248766	0
4	217	92912.578268525722	1
4	219	92912.578268525722	0
4	250	101042.621213077257	1
4	252	101042.621213077257	0
4	258	101205.68707900951	1
4	269	102141.304091463182	0
4	275	102997.396443896839	1
4	277	102997.396443896839	0
4	283	106244.39567860012	1
4	285	106244.39567860012	0
4	310	121222.651853280075	1
4	312	121222.651853280075	0
4	318	124015.15317889723	1
4	320	124015.15317889723	0
4	335	128453.432946366408	1
4	337	128453.432946366408	0
4	360	134138.35214941831	1
4	370	135429.977792172313	0
4	377	138671.434233833304	1
4	379	138671.434233833304	0
4	382	138679.873014255738	1
4	387	138977.912018338841	0
4	417	157296.887620718614	1
4	422	157464.920975223752	0
4	428	159916.50410014783	1
4	430	159916.50410014783	0
4	436	161323.236320505866	1
4	438	161323.236320505866	0
4	453	167229.814092752209	1
4	455	167229.814092752209	0
4	470	173205.13413913251	1
4	472	173205.13413913251	0
4	489	186464.487588564695	1
4	491	186464.487588564695	0
4	507	201183.147758918855	1
4	509	201183.147758918855	0
4	524	207049.83032652312	1
4	526	207049.83032652312	0
4	541	214397.864229317215	1
4	543	214397.864229317215	0
4	566	219187.040850547478	1
4	568	219187.040850547478	0
4	574	220539.842550335841	1
4	576	220539.842550335841	0
4	591	226121.132413379605	1
4	593	226121.132413379605	0
4	609	238839.595980511121	1
4	611	238839.595980511121	0
4	626	243991.53986289405	1
4	628	243991.53986289405	0
4	651	250669.763028438427	1
4	653	250669.763028438427	0
4	660	253349.495051900912	1
4	662	253349.495051900912	0
4	685	259676.218508874386	1
4	687	259676.218508874386	0
4	693	263201.606706687587	1
4	695	263201.606706687587	0
4	712	281526.170543152012	1
4	714	281526.170543152012	0
4	729	286833.734071701347	1
4	731	286833.734071701347	0
4	750	312905.938153349531	1
4	752	312905.938153349531	0
4	773	324027.629207713237	1
4	778	325126.88017794388	0
4	792	328079.361442796441	1
4	794	328079.361442796441	0
4	801	330514.825920417408	1
4	803	330514.825920417408	0
4	818	336362.730895559349	1
4	820	336362.730895559349	0
4	860	349280.558246562195	1
4	862	349280.558246562195	0
4	873	351349.223125064308	1
4	878	351442.002977836053	0
4	881	351614.527073917535	1
4	886	351692.435007822197	0
4	892	352614.789483198043	1
4	894	352614.789483198043	0
4	901	355007.119868663595	1
4	903	355007.119868663595	0
4	920	372594.676317094721	1
4	922	372594.676317094721	0
4	945	382332.075007576022	1
4	947	382332.075007576022	0
4	959	385379.925996629904	1
4	964	385809.201335748818	0
4	970	389725.828327603409	1
4	972	389725.828327603409	0
4	988	396033.12718346954	1
4	990	396033.12718346954	0
4	1005	405711.780853134157	1
4	1007	405711.780853134157	0
4	1025	426481.828295209723	1
4	1027	426481.828295209723	0
5	1	6000	0
5	7	12000	0
5	19	18000	1
5	33	24000	1
5	53	30000	1
5	67	36000	1
5	87	42000	1
5	88	48000	0
5	89	54000	0
5	90	60000	0
5	123	66000	3
5	164	72000	2
5	181	78000	1
5	190	84000	0
5	207	90000	2
5	224	96000	0
5	265	102000	3
5	290	108000	1
5	291	114000	0
5	305	120000	1
5	333	126000	2
5	350	132000	1
5	375	138000	2
5	392	144000	0
5	393	150000	0
5	407	156000	1
5	443	162000	2
5	460	168000	1
5	477	174000	1
5	478	180000	0
5	487	186000	1
5	496	192000	0
5	505	198000	1
5	522	204000	1
5	536	210000	0
5	561	216000	2
5	581	222000	1
5	598	228000	1
5	604	234000	0
5	621	240000	1
5	638	246000	1
5	658	252000	2
5	675	258000	1
5	700	264000	1
5	701	270000	0
5	702	276000	0
5	719	282000	1
5	736	288000	1
5	737	294000	0
5	738	300000	0
5	739	306000	0
5	748	312000	1
5	757	318000	0
5	766	324000	1
5	799	330000	2
5	816	336000	1
5	825	342000	0
5	855	348000	3
5	899	354000	2
5	908	360000	0
5	909	366000	0
5	918	372000	1
5	927	378000	0
5	952	384000	2
5	974	390000	1
5	986	396000	1
5	1003	402000	1
5	1012	408000	0
5	1013	414000	0
5	1014	420000	0
5	1023	426000	1
5	1032	432000	0
6	1	6000	0
6	7	12000	0
6	19	18000	1
6	33	24000	0
6	53	30000	2
6	67	36000	0
6	87	42000	2
6	88	48000	0
6	89	54000	0
6	90	60000	0
6	123	66000	1
6	164	72000	3
6	181	78000	1
6	190	84000	1
6	207	90000	0
6	224	96000	2
6	265	102000	1
6	290	108000	3
6	291	114000	0
6	305	120000	0
6	333	126000	2
6	350	132000	1
6	375	138000	1
6	392	144000	2
6	393	150000	0
6	407	156000	0
6	443	162000	3
6	460	168000	1
6	477	174000	1
6	478	180000	0
6	487	186000	0
6	496	192000	1
6	505	198000	0
6	522	204000	1
6	536	210000	1
6	561	216000	1
6	581	222000	2
6	598	228000	1
6	604	234000	0
6	621	240000	1
6	638	246000	1
6	658	252000	1
6	675	258000	1
6	700	264000	2
6	701	270000	0
6	702	276000	0
6	719	282000	1
6	736	288000	1
6	737	294000	0
6	738	300000	0
6	739	306000	0
6	748	312000	0
6	757	318000	1
6	766	324000	0
6	799	330000	2
6	816	336000	1
6	825	342000	1
6	855	348000	0
6	899	354000	4
6	908	360000	1
6	909	366000	0
6	918	372000	0
6	927	378000	1
6	952	384000	1
6	974	390000	1
6	986	396000	1
6	1003	402000	1
6	1012	408000	1
6	1013	414000	0
6	1014	420000	0
6	1023	426000	0
6	1032	432000	1
7	9	12188.161609044554	1
7	11	15880.429414331774	0
7	26	22112.069025963801	1
7	35	24232.560184832753	2
7	37	25684.215304050742	1
7	45	27873.890579861802	0
7	60	34591.481545622144	1
7	69	36308.963187258805	2
7	71	38494.242490886248	1
7	79	40033.02090030115	0
7	100	61447.153530508351	1
7	105	62342.156189011485	2
7	113	64156.189080023122	3
7	115	65626.40080387581	2
7	124	66461.316632189204	1
7	137	68027.081218277342	0
7	141	68201.47862096515	1
7	154	70724.230177915895	2
7	156	71740.680810754725	1
7	165	73884.679449300806	0
7	179	75383.160215087974	1
7	182	78814.976109525769	0
7	197	86082.671805735172	1
7	205	89026.902024133241	2
7	208	90180.851656248766	1
7	216	92912.578268525722	0
7	234	97135.951073295238	1
7	239	98128.532632101844	2
7	247	99644.618586683212	3
7	249	101042.621213077257	2
7	257	101205.68707900951	1
7	267	102141.304091463182	2
7	274	102997.396443896839	1
7	282	106244.39567860012	0
7	298	117693.418386932887	1
7	307	120499.559771742517	2
7	309	121222.651853280075	1
7	317	124015.15317889723	0
7	331	125288.848361592704	1
7	334	128453.432946366408	0
7	348	130668.217844114845	1
7	359	134138.35214941831	0
7	363	134567.900885296706	1
7	368	135429.977792172313	2
7	376	138671.434233833304	1
7	381	138679.873014255738	0
7	400	154470.694890413664	1
7	409	156540.699552358722	2
7	416	157296.887620718614	1
7	420	157464.920975223752	2
7	427	159916.50410014783	1
7	435	161323.236320505866	0
7	450	163303.195653698656	1
7	452	167229.814092752209	0
7	467	170213.160341437442	1
7	469	173205.13413913251	0
7	485	182854.368723699657	1
7	488	186464.487588564695	0
7	503	197858.094087611878	1
7	506	201183.147758918855	0
7	520	203475.89877489308	1
7	523	207049.83032652312	0
7	538	210721.384638123451	1
7	540	214397.864229317215	0
7	557	215585.676590752877	1
7	563	216549.09086583348	2
7	565	219187.040850547478	1
7	573	220539.842550335841	0
7	588	222988.609176854764	1
7	590	226121.132413379605	0
7	606	234613.128900358393	1
7	608	238839.595980511121	0
7	623	240308.598983348658	1
7	625	243991.53986289405	0
7	640	246807.38663737763	1
7	648	249510.815693832064	2
7	650	250669.763028438427	1
7	659	253349.495051900912	0
7	673	256518.017344945765	1
7	682	259393.856484676249	2
7	684	259676.218508874386	1
7	692	263201.606706687587	0
7	709	277470.896563877889	1
7	711	281526.170543152012	0
7	726	283295.259409630941	1
7	728	286833.734071701347	0
7	746	309141.019843610359	1
7	749	312905.938153349531	0
7	764	320265.0303288397	1
7	772	324027.629207713237	0
7	776	325126.88017794388	1
7	789	327248.994950263608	2
7	791	328079.361442796441	1
7	800	330514.825920417408	0
7	814	332687.741408659628	1
7	817	336362.730895559349	0
7	832	345490.166069959738	1
7	843	346937.828643764069	2
7	851	347820.636639790593	3
7	857	348939.942815634175	4
7	859	349280.558246562195	3
7	872	351349.223125064308	2
7	876	351442.002977836053	3
7	880	351614.527073917535	2
7	891	352614.789483198043	1
7	900	355007.119868663595	0
7	916	369040.029679737047	1
7	919	372594.676317094721	0
7	934	379101.847620306579	1
7	942	381862.651656181945	2
7	944	382332.075007576022	1
7	958	385379.925996629904	0
7	962	385809.201335748818	1
7	969	389725.828327603409	0
7	984	392484.908107086523	1
7	987	396033.12718346954	0
7	1001	401345.730919058852	1
7	1004	405711.780853134157	0
7	1021	422696.006230402043	1
7	1024	426481.828295209723	0
