version 2
run ResponseMeasurement-83-20170110-19:33:47-20745
attr configname ResponseMeasurement
attr datetime 20170110-19:33:47
attr experiment ResponseMeasurement
attr inifile responseStudy.ini
attr iterationvars ""
attr iterationvars2 $repetition=83
attr measurement ""
attr network controltower.SimNetwork
attr processid 20745
attr repetition 83
attr replication #83
attr resultdir results
attr runnumber 83
attr seedset 83
param SimNetwork.a.parkingLot.parkingDelay "truncnormal(30min, 3min)"
param SimNetwork.a.runway.landingTime "truncnormal(15min, 1.5min)"
param SimNetwork.a.runway.takeoffTime "truncnormal(5min, 0.5min)"
param SimNetwork.a.runway.throughputCheckInterval 28.571min
param SimNetwork.wg.interArrivalTime exponential(28.571min)

statistic SimNetwork.wg 	responseTime:stats
field count 530
field mean 8798.5225414935
field stddev 4347.3763119327
field sum 4663216.9469916
field sqrsum 51027350565.886
field min 3472.7348070797
field max 22325.894651359
attr source  responseTimeSignal
scalar SimNetwork.a.landingQueue 	queueLength:timeavg 	0.43194960711318
attr source  queueLengthSignal
statistic SimNetwork.a.landingQueue 	queueLength:stats
field count 1081
field mean 0.9463459759482
field stddev 0.93337701614293
field sum 1023
field sqrsum 1909
field min 0
field max 5
attr source  queueLengthSignal
statistic SimNetwork.a.landingQueue 	queueTime:stats
field count 540
field mean 687.70959579585
field stddev 814.73812828607
field sum 371363.18172976
field sqrsum 613177262.93202
field min 0
field max 4391.9572237306
attr source  queueTimeSignal
scalar SimNetwork.a.takeoffQueue 	queueLength:timeavg 	2.206716182847
attr source  queueLengthSignal
statistic SimNetwork.a.takeoffQueue 	queueLength:stats
field count 1067
field mean 3.4545454545455
field stddev 4.0047515697726
field sum 3686
field sqrsum 29830
field min 0
field max 20
attr source  queueLengthSignal
statistic SimNetwork.a.takeoffQueue 	queueTime:stats
field count 529
field mean 3510.3930422306
field stddev 4168.2465147867
field sum 1856997.91934
field sqrsum 15692411891.729
field min 0
field max 17520.199951229
attr source  queueTimeSignal
scalar SimNetwork.a.parkingLot 	parkingOccupancy:timeavg 	1.1279480505123
attr source  parkingOccupancy
statistic SimNetwork.a.parkingLot 	parkingOccupancy:stats
field count 1077
field mean 1.4661095636026
field stddev 0.85577689169339
field sum 1579
field sqrsum 3103
field min 0
field max 3
attr source  parkingOccupancy
