version 2
run WarmupMeasurement-8-20170109-15:29:30-1536
attr configname WarmupMeasurement
attr datetime 20170109-15:29:30
attr experiment WarmupMeasurement
attr inifile responseStudy.ini
attr iterationvars ""
attr iterationvars2 $repetition=8
attr measurement ""
attr network controltower.SimNetwork
attr processid 1536
attr repetition 8
attr replication #8
attr resultdir results
attr runnumber 8
attr seedset 8
param SimNetwork.a.parkingLot.parkingDelay "truncnormal(30min, 3min)"
param SimNetwork.a.runway.landingTime "truncnormal(15min, 1.5min)"
param SimNetwork.a.runway.takeoffTime "truncnormal(5min, 0.5min)"
param SimNetwork.a.runway.throughputCheckInterval 28.571min
param SimNetwork.wg.interArrivalTime exponential(28.571min)

statistic SimNetwork.wg 	responseTime:stats
field count 265
field mean 8500.6477392099
field stddev 4331.3274779452
field sum 2252671.6508906
field sqrsum 24101913174.723
field min 3684.8965243829
field max 25445.395247062
attr source  responseTimeSignal
scalar SimNetwork.a.landingQueue 	queueLength:timeavg 	0.35008123398914
attr source  queueLengthSignal
statistic SimNetwork.a.landingQueue 	queueLength:stats
field count 536
field mean 0.79850746268657
field stddev 0.77608989503655
field sum 428
field sqrsum 664
field min 0
field max 4
attr source  queueLengthSignal
statistic SimNetwork.a.landingQueue 	queueTime:stats
field count 268
field mean 559.68153290765
field stddev 636.03183267384
field sum 149994.65081925
field sqrsum 191960479.50904
field min 0
field max 3143.7717041531
attr source  queueTimeSignal
scalar SimNetwork.a.takeoffQueue 	queueLength:timeavg 	2.0755820534777
attr source  queueLengthSignal
statistic SimNetwork.a.takeoffQueue 	queueLength:stats
field count 531
field mean 3.3408662900188
field stddev 4.2690865978803
field sum 1774
field sqrsum 15586
field min 0
field max 22
attr source  queueLengthSignal
statistic SimNetwork.a.takeoffQueue 	queueTime:stats
field count 265
field mean 3335.7989693269
field stddev 4231.8624153281
field sum 883986.72687164
field sqrsum 7676688120.9954
field min 0
field max 19718.530866184
attr source  queueTimeSignal
scalar SimNetwork.a.parkingLot 	parkingOccupancy:timeavg 	1.1229990747175
attr source  parkingOccupancy
statistic SimNetwork.a.parkingLot 	parkingOccupancy:stats
field count 533
field mean 1.4915572232645
field stddev 0.83307114516322
field sum 795
field sqrsum 1555
field min 0
field max 3
attr source  parkingOccupancy
