version 2
run WarmupMeasurement-13-20170109-15:29:32-1541
attr configname WarmupMeasurement
attr datetime 20170109-15:29:32
attr experiment WarmupMeasurement
attr inifile responseStudy.ini
attr iterationvars ""
attr iterationvars2 $repetition=13
attr measurement ""
attr network controltower.SimNetwork
attr processid 1541
attr repetition 13
attr replication #13
attr resultdir results
attr runnumber 13
attr seedset 13
param SimNetwork.a.parkingLot.parkingDelay "truncnormal(30min, 3min)"
param SimNetwork.a.runway.landingTime "truncnormal(15min, 1.5min)"
param SimNetwork.a.runway.takeoffTime "truncnormal(5min, 0.5min)"
param SimNetwork.a.runway.throughputCheckInterval 28.571min
param SimNetwork.wg.interArrivalTime exponential(28.571min)

statistic SimNetwork.wg 	responseTime:stats
field count 274
field mean 9292.2565667015
field stddev 5524.1278188531
field sum 2546078.2992762
field sqrsum 31989677563.2
field min 3727.7973498956
field max 27177.288557936
attr source  responseTimeSignal
scalar SimNetwork.a.landingQueue 	queueLength:timeavg 	0.37187546512278
attr source  queueLengthSignal
statistic SimNetwork.a.landingQueue 	queueLength:stats
field count 552
field mean 0.82971014492754
field stddev 0.8730620266633
field sum 458
field sqrsum 800
field min 0
field max 5
attr source  queueLengthSignal
statistic SimNetwork.a.landingQueue 	queueTime:stats
field count 276
field mean 578.59268459084
field stddev 757.11690730981
field sum 159691.58094707
field sqrsum 250033533.64367
field min 0
field max 4521.1905966688
attr source  queueTimeSignal
scalar SimNetwork.a.takeoffQueue 	queueLength:timeavg 	2.6663619122875
attr source  queueLengthSignal
statistic SimNetwork.a.takeoffQueue 	queueLength:stats
field count 548
field mean 3.8576642335766
field stddev 5.0050975496193
field sum 2114
field sqrsum 21858
field min 0
field max 21
attr source  queueLengthSignal
statistic SimNetwork.a.takeoffQueue 	queueTime:stats
field count 274
field mean 4149.5746365896
field stddev 5421.4699334711
field sum 1136983.4504255
field sqrsum 12742105481.5
field min 0
field max 21026.418558157
attr source  queueTimeSignal
scalar SimNetwork.a.parkingLot 	parkingOccupancy:timeavg 	1.1578979769491
attr source  parkingOccupancy
statistic SimNetwork.a.parkingLot 	parkingOccupancy:stats
field count 549
field mean 1.4918032786885
field stddev 0.85565221927731
field sum 819
field sqrsum 1623
field min 0
field max 3
attr source  parkingOccupancy
