version 2
run QueueMeasurement-16-20170105-15:38:36-5110
attr configname QueueMeasurement
attr datetime 20170105-15:38:36
attr experiment QueueMeasurement
attr inifile queueStudy.ini
attr iterationvars ""
attr iterationvars2 $repetition=16
attr measurement ""
attr network SimNetwork
attr processid 5110
attr repetition 16
attr replication #16
attr resultdir results
attr runnumber 16
attr seedset 16
param SimNetwork.a.parkingLot.parkingDelay "truncnormal(45min, 5 min)"
param SimNetwork.a.runway.landingTime "truncnormal(5min, 0.5min)"
param SimNetwork.a.runway.takeoffTime "truncnormal(5min, 0.5min)"
param SimNetwork.a.runway.throughputCheckInterval 16.667min
param SimNetwork.wg.interArrivalTime exponential(16.667min)

statistic SimNetwork.wg 	responseTime:stats
field count 927
field mean 4853.4471393818
field stddev 1176.0904711841
field sum 4499145.4982069
field sqrsum 23117197673.41
field min 2686.22873619
field max 11667.823066721
attr source  responseTimeSignal
scalar SimNetwork.a.landingQueue 	queueLength:timeavg 	0.14804368617852
attr source  queueLengthSignal
statistic SimNetwork.a.landingQueue 	queueLength:stats
field count 1865
field mean 0.65790884718499
field stddev 0.68777875523327
field sum 1227
field sqrsum 1689
field min 0
field max 6
attr source  queueLengthSignal
statistic SimNetwork.a.landingQueue 	queueTime:stats
field count 932
field mean 142.18743597616
field stddev 181.13286744101
field sum 132518.69032978
field sqrsum 49387779.483261
field min 0
field max 1615.3446716045
attr source  queueTimeSignal
scalar SimNetwork.a.takeoffQueue 	queueLength:timeavg 	0.44846198064644
attr source  queueLengthSignal
statistic SimNetwork.a.takeoffQueue 	queueLength:stats
field count 1855
field mean 1.0749326145553
field stddev 1.5434351994762
field sum 1994
field sqrsum 6560
field min 0
field max 11
attr source  queueLengthSignal
statistic SimNetwork.a.takeoffQueue 	queueTime:stats
field count 927
field mean 434.74092303097
field stddev 737.5153947985
field sum 403004.83564971
field sqrsum 678880908.94129
field min 0
field max 5037.6878141928
attr source  queueTimeSignal
scalar SimNetwork.a.parkingLot 	parkingOccupancy:timeavg 	2.799654575533
attr source  parkingOccupancy
statistic SimNetwork.a.parkingLot 	parkingOccupancy:stats
field count 1859
field mean 3.3765465303927
field stddev 1.7829502027759
field sum 6277
field sqrsum 27101
field min 0
field max 10
attr source  parkingOccupancy
