version 2
run QueueMeasurement-9-20170109-13:56:20-4243
attr configname QueueMeasurement
attr datetime 20170109-13:56:20
attr experiment QueueMeasurement
attr inifile queueStudy.ini
attr iterationvars ""
attr iterationvars2 $repetition=9
attr measurement ""
attr network controltower.SimNetwork
attr processid 4243
attr repetition 9
attr replication #9
attr resultdir results
attr runnumber 9
attr seedset 9
param SimNetwork.a.parkingLot.parkingDelay "truncnormal(45min, 5 min)"
param SimNetwork.a.runway.landingTime "truncnormal(5min, 0.5min)"
param SimNetwork.a.runway.takeoffTime "truncnormal(5min, 0.5min)"
param SimNetwork.a.runway.throughputCheckInterval 16.667min
param SimNetwork.wg.interArrivalTime exponential(16.667min)

vector 7  SimNetwork.a.parkingLot  parkingOccupancy:vector  ETV
attr source  parkingOccupancy
vector 4  SimNetwork.a.takeoffQueue  queueLength:vector  ETV
attr source  queueLengthSignal
vector 3  SimNetwork.a.takeoffQueue  queueTime:vector  ETV
attr source  queueTimeSignal
vector 0  SimNetwork.wg  responseTime:vector  ETV
attr source  responseTimeSignal
vector 5  SimNetwork.a.runway  landedThroughput:vector  ETV
attr source  landedThroughputSignal
vector 6  SimNetwork.a.runway  tookoffThroughput:vector  ETV
attr source  tookoffThroughputSignal
vector 2  SimNetwork.a.landingQueue  queueLength:vector  ETV
attr source  queueLengthSignal
vector 1  SimNetwork.a.landingQueue  queueTime:vector  ETV
attr source  queueTimeSignal
0	849	50883.73110395171	5586.2972843291
0	858	51126.328625611422	3541.0825750467
0	878	52852.984826492586	4551.4655387315
0	901	54836.44006737419	5512.0224746778
0	916	55863.167358424811	3063.4502885695
0	935	56736.584674160671	4801.4127666265
0	954	59094.209419835012	5869.8238523972
0	965	59414.679596491766	3839.7802132859
0	1043	62883.581437248844	7289.6309596914
0	1049	63190.850060817775	3948.2297821165
0	1057	63486.185064248411	5402.923619468
0	1093	64732.734577052967	4072.8247290918
0	1105	65026.977638144644	5580.0138432744
0	1116	65388.638241932414	4268.2063789578
0	1143	66610.731554509313	5406.4406217255
0	1151	66909.832873465593	5589.7096087195
0	1163	67186.406296697464	5551.4262245127
0	1168	67497.906404931878	5660.6748963325
0	1173	67852.39358732412	4585.5894788038
0	1179	68129.672395393169	4572.7015270328
0	1187	68827.976795834083	5197.3305394399
0	1199	69147.938683899977	4014.319541655
0	1204	69462.783013336718	4081.6900837786
0	1282	72774.479261407401	6905.565844992
0	1310	73685.832577715319	4219.198868811
0	1316	74003.843694154946	4188.4473428381
0	1324	74376.622103261346	3713.2708151386
0	1332	74655.271273188552	3704.3899269024
0	1337	74913.977392970501	3831.9912081234
0	1352	75540.090645966712	4455.107946604
0	1366	76179.138229244359	4654.652044948
0	1377	76429.795423005184	4553.7867235548
0	1391	77030.481733084585	4403.6458068972
0	1424	78875.260486858931	6057.220372256
0	1444	79611.328380864675	3331.5966840685
0	1458	80237.050317258005	4878.8724961425
0	1463	80516.954610484232	3606.738872831
0	1471	80911.623335590763	3253.9862645151
0	1497	82576.972989050397	4887.5201765317
0	1505	82943.975735952791	4328.7644005593
0	1515	84444.509888706433	5033.4910071818
0	1523	84778.862595105823	3625.8566366881
0	1571	89185.99924851848	7689.9868334579
0	1576	89534.705717590297	3798.8521297379
0	1597	91562.198821718839	5061.8666278185
0	1605	91852.572954194144	3615.8609650466
0	1628	93936.911031305543	5643.8112815361
0	1637	94968.640698873105	4153.4385538241
0	1646	95578.506635434426	3910.5688130715
0	1701	99486.922190772897	7065.3446914243
0	1706	99804.255838531644	3798.2835488012
0	1731	100768.527406138778	4630.7729633542
0	1740	101796.859226052987	5589.0401710898
0	1749	102553.583854045707	3935.9052731278
0	1760	102962.209043536283	4195.6083025995
0	1766	103265.914492287787	3359.9074204815
0	1819	108079.454198126049	7891.7348604754
0	1835	108725.763858731381	4266.7096270984
0	1844	109218.695096374472	4018.9405035852
0	1875	110879.728884922426	4856.6445075104
0	1889	111494.891005112952	4266.6010154375
0	1894	111771.102161685072	4336.0940386258
0	1903	112669.005808248694	4529.5498300714
0	1912	113032.780833447024	3275.235064792
0	1921	114629.287280415004	4824.0995219193
0	1960	118342.683588826015	7596.5474951801
0	1965	118671.659322869883	3773.4978415435
0	1974	119775.291331299839	4324.844159642
0	1995	124142.996960798412	7396.3139092801
0	2040	129621.235368630956	8893.3096006883
0	2055	130346.451442314074	4552.7734448243
0	2074	131225.686100530572	4172.3401304976
0	2083	132013.594220533591	4037.8461533714
0	2095	133498.693263728538	4556.2535397848
0	2112	134201.557201524621	3915.4176417022
0	2130	136618.216031760818	6297.834618577
0	2152	137446.55110567315	3997.0366879041
0	2188	140004.001350919009	5997.0767190655
0	2223	141440.613372977428	4842.0701485519
0	2231	141731.659759172632	5079.7198942509
0	2248	142803.547174563405	4819.9284215924
0	2254	143071.465106017712	3696.0486337872
0	2274	143570.297927395943	3711.2046914036
0	2296	144457.365359192308	4581.4938405899
0	2315	145394.266758468689	5683.1643357377
0	2320	145677.472551908344	4911.0143172472
0	2357	147323.987027009954	3979.6309624485
0	2365	147643.207576734926	6017.6239919367
0	2376	147999.643890835375	3606.600406984
0	2387	148619.091417052567	5053.3242379993
0	2399	149383.60925724288	4943.8217037399
0	2404	149722.579333007017	3631.0517415788
0	2413	150054.89821588474	3669.0203654026
0	2422	151111.925731575959	4709.0606653213
0	2455	154699.494368036917	7005.0835688907
0	2474	155605.646917582024	4135.982379011
0	2496	158166.508802711909	6679.2286230609
0	2501	158463.834490893189	3918.8605437947
0	2519	160443.17365802001	5500.0324144236
0	2532	162305.444969048024	5518.9799701761
0	2583	165676.16980466127	6390.9653593283
0	2588	165988.635219388071	3684.2240840738
0	2598	167399.127548577477	4731.0975901931
0	2654	169612.61432912055	5424.1662658922
0	2665	170249.827313144177	5855.3806129411
0	2699	171276.329924881193	6136.5096186023
0	2707	171571.244231810052	4155.1945013537
0	2721	172151.290929061576	4084.6265550333
0	2732	172425.60690018888	4314.4148039639
0	2745	172951.709858605798	4357.8309837607
0	2759	173533.214004728178	4931.3900418103
0	2767	173832.396818082948	4573.1182544223
0	2784	174454.820050877102	4078.7854338023
0	2789	174716.571487317005	4033.1220133804
0	2842	176881.888171374632	4541.1507543516
0	2851	177182.257140778197	5748.8489510418
0	2856	177470.536813414993	4641.7775770834
0	2868	178103.004982366354	3261.7294031821
0	2873	178387.582538165542	4767.8635333743
0	2885	179098.050516309371	4235.7853726475
0	2893	179379.025473360934	3397.9022153491
0	2915	180271.722285351098	5380.867304658
0	2947	182845.259407505827	3596.1918911147
0	2967	183458.108616578182	7275.8307849422
0	2991	184724.233885771052	5084.0441917258
0	3000	185656.431207588525	5240.8025656181
0	3020	186466.24107515245	4397.6916939665
0	3025	186776.568685905515	4162.762165687
0	3034	187119.76754138838	3805.4594446881
0	3042	187548.210066678998	4240.0163920405
0	3055	189382.950957927201	5805.2285824051
0	3087	192737.997560600909	6948.4155136427
0	3107	193386.638716545437	4175.6434613204
0	3147	195797.922914710123	5937.285019354
0	3158	196373.844278751764	4254.6460083243
0	3163	196694.276170322962	3900.4017882221
0	3192	198368.616612482676	5261.9120265708
0	3200	198699.37633626889	3794.1514973528
0	3230	199845.04558871945	4901.6057753977
0	3247	200402.084342164305	4739.7062188197
0	3272	201704.054652866874	4655.0024192729
0	3290	202177.713011135827	4448.5625656619
0	3306	202770.956555258628	4178.7490098611
0	3312	203099.610482553553	4354.6884783574
0	3317	203388.298811950853	4463.7128605133
0	3322	203656.641172725566	3801.541087411
0	3331	204505.391710386288	4083.5404575783
0	3348	205281.838274415839	4150.0897100549
0	3398	207547.47640853117	5524.359992249
0	3439	209320.985250614893	4789.7731185139
0	3452	209904.150924198555	4367.9191085041
0	3466	210431.55323121176	4624.4244543284
0	3494	211273.750051476085	4797.3356342187
0	3513	212183.369419539828	6059.7449800863
0	3521	212446.987123318361	5831.5267344499
0	3529	212730.348556684218	4634.3524966067
0	3549	213279.954412549286	4553.9885939778
0	3562	213866.371175776275	4767.3239852421
0	3574	214151.008468499607	4293.3086462064
0	3587	214820.450896260967	4492.9709005218
0	3593	215133.586831588328	4015.144693854
0	3598	215427.23721466391	4884.0013465709
0	3609	215908.7603971477	4659.7567784868
0	3640	217113.933131907143	4474.6733180269
0	3651	217741.570983422589	4619.16173654
0	3674	219092.171040550026	3293.0194015226
0	3685	219705.67471611312	3628.7701173779
0	3690	219985.704690535319	5913.7841099391
0	3700	221006.779925021032	4738.6916178355
0	3708	221750.857394029703	4221.3476006433
0	3764	226245.582607209106	7713.1673220744
0	3769	226531.556335077216	4079.4959409295
0	3778	227674.11419277141	4908.0088041413
0	3790	228439.389853298442	3413.9805599305
0	3804	229339.376569705785	4229.5706361569
0	3858	232372.05004518769	6701.058229996
0	3863	232646.884420245929	4317.0210413975
0	3875	233700.832639517127	3521.9179404077
0	3880	234000.135543792485	4479.7295001454
0	3898	235055.377247113713	4841.9974516443
0	3906	235359.751865995317	3839.49660995
0	3941	238302.091138411349	6668.7127450188
0	3973	240535.700264023281	6121.7968296226
0	3990	241094.501128156885	3746.5781947031
0	4003	241646.485032318054	4963.1604290054
0	4008	241929.773093230477	4334.4925208608
0	4017	242335.395034766193	3588.925488455
0	4035	244136.668960559289	5240.6882666576
0	4046	244499.311969772362	4012.7232670849
0	4077	246178.421846352081	5159.4490638132
0	4104	248030.512429769217	3240.5133248829
0	4117	248609.600541854407	4189.8433770925
0	4131	249287.599563368104	6243.2877208458
0	4151	250653.669577982994	5600.826750223
0	4168	251231.029767265117	4228.9711195492
0	4187	252357.68147736064	4412.0865441205
0	4198	252731.219664671477	4239.7747118803
0	4228	253883.801926641489	4892.1875069656
0	4237	254403.00879332619	3443.7119559594
0	4254	255397.74718940313	4919.5099607877
0	4294	257017.304580717366	4521.1802233581
0	4302	257370.066079486885	6314.5269485775
0	4315	257966.278679152359	5215.2650065341
0	4337	258809.324075973234	5811.8026414247
0	4354	259376.79635864036	4627.4461964837
0	4365	259949.969491671699	4127.8212540555
0	4377	260239.563795238814	4357.0243646185
0	4387	260830.379233303095	4741.5725846233
0	4399	261265.534293780939	4200.2677038609
0	4407	261566.191367999725	3638.350847975
0	4412	261820.969213987226	3745.2128529652
0	4441	263527.803891170259	4704.2157462636
0	4488	265498.594914567054	5389.1368346129
0	4500	266068.086342637652	3568.7351659071
0	4505	266357.043222850083	3462.7124073294
0	4514	267063.32397381912	3678.1560556096
0	4522	267497.393511422989	3783.9631063035
0	4533	267964.798407551715	4181.874313186
0	4539	268266.876028939413	4583.4587463996
0	4591	272939.787680562431	8171.3362910239
0	4611	273903.26128573198	3857.0895436698
0	4617	274156.288535966125	5210.7291546025
0	4632	275288.917547807381	4395.6323898047
0	4657	276149.267710862778	4134.839373558
0	4679	277089.975525904097	4779.0598483921
0	4713	279190.707424082269	4148.3164579057
0	4724	279504.594354804394	6262.4529480168
0	4732	279810.620586605316	4491.1565132551
0	4743	280376.830975935	4493.6882086587
0	4754	280779.837236212853	3834.8003445543
0	4763	281113.80237319842	5017.2077281546
0	4785	282416.793062711899	4608.6162646841
0	4794	283295.555202924742	4707.5250104751
0	4803	284255.662160221796	4734.3828691765
0	4811	284749.426149436875	3667.2580072086
0	4853	288380.500214177079	6816.8954916847
0	4858	288694.644247079098	3520.7273046751
0	4864	289033.743393261904	3932.4698543304
0	4930	293740.631334862176	8055.302019464
0	4941	294332.109185949723	4526.2220229718
0	4950	295078.65170888757	3203.4502157563
0	4966	295861.477383552719	5508.4489916814
0	4989	296484.56702320698	4521.9284473515
0	4994	296802.057671757596	3724.9477823343
0	5003	297132.089662276819	4229.3522714457
0	5032	299025.254272658802	5515.2379553827
0	5059	300266.258922499085	4981.262710982
0	5067	300737.000686224194	4848.9988426825
0	5076	301379.591857049454	4347.1841824017
0	5093	302409.997228959409	4428.2147193688
0	5112	302975.545807934497	3971.4390407818
0	5118	303279.069943518371	4262.3848759139
0	5163	305323.644040705659	5920.2545600345
0	5168	305573.648191247336	3787.1128494596
0	5181	307156.19546668757	4737.837182273
0	5189	307489.54997711142	3386.9632347751
0	5206	308113.332366696487	3986.6757880822
0	5211	308430.022229380965	4632.0613728292
0	5245	310369.83504785173	5779.576887997
0	5274	312666.628371733135	5293.1990735273
0	5282	312978.856030401829	3787.8980193685
0	5288	313289.859078385378	4087.384432138
0	5297	314362.199466453316	5039.9154942507
0	5309	315403.946092443232	4204.1349470383
0	5365	318666.545477347067	6749.1479345902
0	5408	320036.563064661578	4118.3350252226
0	5416	320352.301590433931	5073.6436664092
0	5421	320675.323233618293	4560.6552105098
0	5426	320996.167521141435	4910.6306424545
0	5435	321312.782750569589	4746.8560952102
0	5452	322096.048671860804	4722.2242219407
0	5471	322693.320665403355	3806.0081402695
0	5493	323473.061008201462	4528.3246945001
0	5507	324210.340426504264	5078.6046203551
0	5524	325581.818900456218	4528.1292590533
0	5547	326330.768448965391	3877.4314802246
0	5552	326641.939706570158	3976.6576858353
0	5557	326884.022668611336	5100.4934215939
0	5569	327762.979030184198	4392.9236263472
0	5594	328658.781718335561	3885.6965374929
0	5632	331346.370762316162	3237.8631942051
0	5637	331680.822416706976	4211.6752061856
0	5643	332012.738593212405	6425.8889395565
0	5651	332589.828291115	3118.3680221376
0	5663	333059.426059664212	4595.3307612956
0	5702	335992.35691168554	6437.4504517257
0	5736	337463.808286369154	4571.2711142148
0	5756	338265.40147600886	4237.54155785
0	5772	338845.139700065281	3750.918142094
0	5820	340255.042823488614	4959.0634193589
0	5833	340877.121854403069	4790.6452166379
0	5850	341426.436421197858	4951.3292200769
0	5855	341699.650740142243	5073.5890993316
0	5863	341968.321084331496	4433.3522300562
0	5875	342256.502074080842	3577.7517461095
0	5883	342547.377742823772	4368.1707409828
0	5891	342851.685330293453	3867.2792264881
0	5902	343452.112163176659	4161.4408633702
0	5910	343861.984317640031	4453.0150904168
0	5919	344499.838775985533	4442.9816613776
0	5945	346291.240466439357	5524.0780960823
0	5970	348003.881543060092	5193.0858939999
0	5979	348948.638735204424	4388.4765284491
0	5997	350242.503656120452	4749.021346366
0	6008	350665.626831966325	4009.5219522879
0	6040	353194.913359963986	5798.1011509467
0	6057	354058.456662424522	4533.8688006567
0	6068	354838.917755811413	4181.0908594875
0	6082	355619.926106687344	3664.4210579969
0	6094	356490.470002683482	4395.5089913414
0	6133	358528.435112218108	5047.9448092072
0	6142	359056.170868355218	4328.2068945958
0	6173	360409.242199582758	3421.7066592171
0	6187	361062.95765494341	4510.0767518646
0	6195	361346.809948713292	5123.8654398075
0	6217	362537.473882547917	5131.6773508556
0	6226	363119.678472353222	3672.9871974576
0	6234	363862.638495539445	3998.6068823514
0	6246	364725.958980834614	4467.8262660211
0	6268	365619.128702545731	4537.2682868707
0	6298	368310.075690967762	6939.5547827707
0	6303	368626.928759814173	3974.6373137253
0	6312	369527.175274297544	4532.2032508409
0	6338	371337.726105070465	4310.1018806372
0	6394	373622.472988133598	3643.6292359053
0	6416	374544.802604738848	6863.6498027602
0	6421	374796.693963355884	4709.6821243151
0	6430	375087.528942496039	3655.414642478
0	6447	375562.821804244274	3588.6430051729
0	6477	376695.579389349143	4059.3939200554
0	6482	377002.500696153767	4657.6472356115
0	6488	377311.279201351902	4464.6581088077
0	6496	377664.002799804766	4284.147279968
0	6519	378614.891348464766	3356.4829612971
0	6530	379186.945346702386	5451.379103724
0	6538	379556.791069558518	4188.4230993393
0	6583	381670.360025986473	6094.2051764616
0	6597	382217.963795047917	4170.9792956139
0	6614	383219.400260794449	4771.0303991681
0	6633	383993.575672340234	4254.7071678137
0	6639	384277.85121432542	4033.3451255901
0	6650	384611.30820173223	3587.8370765465
0	6655	384916.659186279243	4100.5019628468
0	6692	386361.899884552627	4718.1494753685
0	6705	386953.46785322396	4374.5929681473
0	6729	388622.576100863783	3452.4229643275
0	6737	388937.390346040884	3781.979919607
0	6748	389559.266838143098	6198.7709210657
0	6757	390120.001908997721	4931.4088827716
0	6765	390866.538702439636	4507.7343106694
0	6783	392139.529289311182	4264.7433383674
0	6804	394756.979401232825	5821.4153187301
0	6829	395755.050568171188	4293.1635560461
0	6855	397780.958453127187	5026.5128864728
0	6872	398751.073299351347	4315.8537014103
0	6889	399394.92938549632	4506.5972640179
0	6894	399683.902917055672	3971.5160876443
0	6939	401333.656093272196	4932.2774486423
0	6955	401932.604398821345	4243.7004892133
0	6989	403139.821376386051	3190.187694854
0	6997	403395.626769078975	4830.2617255111
0	7002	403670.957555397339	3759.04262953
0	7014	404620.797891487273	4124.9342955138
0	7019	404836.846646395906	4433.8360824377
0	7031	405500.940741598127	4206.8427951748
0	7036	405827.130129335833	3899.8857087741
0	7045	406199.077679753242	3922.8065127792
0	7092	410231.176132694428	3137.6397663564
0	7097	410511.84522186043	7950.8502518586
0	7109	411182.58747779051	4065.2458441936
0	7117	411491.074289958553	4161.8975550264
0	7141	414597.667073802715	6797.8063810312
0	7166	415984.523862156941	4606.3674025834
0	7223	418502.761323286959	5587.1943303456
0	7242	419404.385082241009	4645.9980096173
0	7254	420195.928158683476	3463.3381174686
0	7276	420846.739350484461	6079.0795906655
0	7290	421398.864249353782	4345.8404792166
0	7298	421676.344227595586	4572.742504917
0	7307	422011.23538932735	4770.0349260788
0	7317	422645.18781403366	4933.3563309561
0	7329	423383.212393248152	5056.2744010326
0	7334	423672.705079943196	4951.5503561725
0	7343	424638.152680080744	4595.3312866267
0	7352	425403.491850585944	4567.5277679993
0	7392	430189.056827930589	8370.0918276198
0	7421	432374.686750091817	5835.9020521069
0	7443	433286.002709777139	4453.5060714246
0	7451	433612.975432356865	4521.7793262048
0	7456	433907.182464434857	3833.6333708361
0	7477	435457.934765518717	3217.5330531598
0	7482	435743.107638996576	5371.8233050101
0	7492	437182.124842306799	4641.0424414823
0	7535	440890.446473843432	6736.4013584468
0	7547	441738.642096768484	4277.1389443357
0	7572	442728.31044606193	4586.9462249939
0	7601	444050.49222578737	4075.4657746597
0	7619	444926.871527418472	4860.6299284132
0	7628	445723.303349257139	3843.4913833613
0	7637	446207.403385743192	4637.7783431931
0	7645	446704.860569870813	4240.3753742463
0	7654	447313.869356799516	3884.7661470025
0	7663	448116.791097954856	4203.9066484399
0	7698	451365.819192717863	7416.6068727146
0	7707	452262.475135992894	4045.9843859868
0	7715	452903.804020699493	4310.5411214267
0	7762	456407.767305974223	7391.6926159766
0	7779	457446.214200435929	3861.4975261476
0	7784	457734.258189569581	3636.3805484069
0	7810	459414.365855675863	5018.6482551741
0	7819	460013.907228792212	4267.8676158017
0	7836	461245.036415029394	5006.8893713508
0	7844	461745.628696292738	3299.2925448854
0	7862	463373.026983022865	4572.5832039453
0	7889	466167.547583294148	6020.3519108446
0	7900	466512.743193673665	2914.1233433614
0	7905	466768.925350733563	4001.8476717194
0	7949	470596.111137344156	6793.7065992115
0	7958	471661.42947448699	4168.7822849392
0	7986	472851.785831456577	4038.9682931962
0	8000	473540.061797655974	4535.4156710699
0	8021	475162.489614373044	5191.7176821152
0	8029	475496.517694886212	3762.6756014321
0	8043	476062.213196385312	4223.7271996979
0	8060	477134.798734820797	4445.7251414435
0	8069	478939.001723581847	5152.4780181041
0	8078	479719.482602492329	4260.279646657
0	8142	484592.857842187892	3433.2043808083
0	8156	484911.131239404883	8648.2782187765
0	8178	485788.676418064511	4620.3383823313
0	8187	486123.660519036118	4375.2799460869
0	8200	486771.013989542497	4978.189240188
0	8209	487133.349169695791	4283.0623820843
0	8226	488389.332935881305	4825.5964051588
0	8231	488668.935238087338	3998.1260827286
0	8240	489300.592375046918	4616.5579673508
0	8257	490897.061192851794	4951.2196515328
0	8292	493525.832000574468	6578.6131660089
0	8305	495362.98979044137	3338.0820662942
0	8313	495658.915785463384	5389.055127038
0	8318	495984.937814585968	3856.3438329424
0	8360	499522.717804059639	3319.7437970212
0	8374	500126.491485689958	7804.6695956927
0	8396	501925.076646715235	5152.2873415954
0	8422	503194.098624849903	4994.5276467299
0	8438	503742.667009931687	4238.0931250479
0	8447	504342.402098881326	4260.0868567193
0	8470	505321.671294433616	3002.7402676247
0	8492	506271.260117494908	5204.5802965749
0	8497	506520.000336539573	3958.3974559034
0	8509	507763.130478613922	4562.6156472579
0	8529	508875.050274341074	4498.2642463381
0	8546	509498.31478693652	4306.4381301636
0	8572	511211.811977835176	6014.772756328
0	8608	512560.287810077108	3726.9716347374
0	8619	513102.211856991802	5473.206384917
0	8624	513430.642082374683	4175.512862476
0	8652	514578.102593126879	5262.8184743742
0	8657	514910.540551121566	3841.8182943661
0	8669	515451.60669992643	4296.0978121365
0	8694	516306.447547576368	4339.8029038559
0	8710	516892.443780705034	4409.89451022
0	8724	517466.336105212585	3830.4156577183
0	8755	518950.283503049102	3376.3893586877
0	8761	519250.2191834574	5340.3369160356
0	8766	519518.785227236986	4166.0626487144
0	8775	520886.42719046261	4852.9088026173
0	8798	521617.353284448115	4964.7270629672
0	8812	522219.940244396298	4149.9624934713
0	8827	524176.906762550714	5881.02338912
0	8839	525304.384494968913	4261.56367743
0	8844	525591.466263770602	3997.5889604011
0	8885	531640.531624134737	9661.6311528131
0	8902	532273.336990656321	4281.9096844127
0	8915	532852.446586316129	3782.1905833947
0	8937	535453.378203931782	6302.0750118248
0	8945	535782.867118752758	4386.820136353
0	8984	537315.261659466738	5226.3193238801
0	9007	538772.916396124344	3254.503225815
0	9018	539476.911418739717	6238.5903594336
0	9044	540262.192719899842	4456.8864454924
0	9071	541514.354247111142	5591.8101765632
0	9079	541781.433431940457	5338.5083024777
0	9088	542100.413528318184	4525.2046965263
0	9121	543406.456764742064	4691.893024191
0	9126	543730.493598156319	4120.8097887893
0	9141	544122.415994842708	3899.22577135
0	9151	544682.414963821896	4433.9484358542
0	9171	545509.835750845559	5116.7633786313
0	9176	545809.752442176796	3744.3095635719
0	9185	546198.186361251316	3843.6094426496
0	9210	547627.45054557938	4756.0896536151
0	9219	548344.163296273099	4235.0867025803
0	9230	548965.852112891867	4065.5014283275
0	9245	550148.348052909355	3847.8124306394
0	9265	551698.415522167572	4587.7924360326
0	9289	554104.889563046357	5362.6771744155
0	9317	555810.048581662502	5084.9336310114
0	9339	556985.545804304767	5578.1201268545
0	9360	558444.404495909287	3595.4388632897
0	9380	559045.337552286211	4052.5028528279
0	9393	559653.825677279029	6125.9876440148
0	9398	559935.919670193355	4454.7981623212
0	9423	560751.867927797197	4678.9879254008
0	9456	561974.674552210393	4395.0660742148
0	9465	562335.181777323987	3945.4371270564
0	9473	562888.352397194689	4069.8160774788
0	9485	563375.689503557884	3417.1468556859
0	9498	563967.998339807268	3745.0466816876
0	9510	564367.49904983599	3574.9278349707
0	9515	564662.594540289534	3812.4774268274
0	9536	567010.54668699456	5946.61253319
0	9557	568922.010054084376	5730.9344960546
0	9593	570460.606960006988	5070.9628240302
0	9614	572043.974825492196	5157.9908271517
0	9625	572374.395499648533	3650.3834079469
0	9638	572967.605904906532	4205.5909961041
0	9644	573286.372157035597	4023.2642054916
0	9652	574002.32891797588	4696.5659700803
0	9673	575631.750603754337	4361.2119308489
0	9727	578341.544572756819	6115.6351236696
0	9749	579281.815186800983	4851.1135409215
0	9754	579599.027736286634	4154.5238384025
0	9782	580566.110917993737	4130.7449521239
0	9799	581194.650139173322	4220.6561723428
0	9810	581491.308826688845	4083.7693155251
0	9824	582108.187170908886	4629.2352237537
0	9829	582418.100362595462	4254.6313980306
0	9843	582881.079411915677	3158.1918200058
0	9857	583453.558949338689	5161.7382215727
0	9879	584433.779586257448	4603.5203096574
0	9888	585104.1276239626	4735.2748600597
0	9903	586684.047951735099	5277.6797331481
0	9908	586975.702447236982	3588.3642921273
0	9920	587281.218161810467	4567.3077954013
0	9976	590464.617705508715	6987.0314589596
0	9981	590765.659145977708	3748.1234802299
0	9996	591209.098886361565	4025.6356948146
0	10004	591450.800735446988	4131.8000639258
0	10009	591771.707201590811	4048.4613155837
0	10015	592093.156465505125	4023.311442131
0	10043	596340.035928965511	7935.1839167297
0	10051	596878.152951325413	4079.0908005005
0	10122	602378.864744338462	8497.6437737488
0	10158	603675.029730639105	4523.9567232459
0	10172	604292.308096554432	4460.2328659589
0	10194	605146.63268488266	5469.2323510195
0	10202	605488.353599211355	5640.6096909004
0	10207	605809.872434248915	5256.6729786961
0	10219	606096.923371733672	5338.9139526451
0	10227	606437.01101025213	4279.1292629705
0	10241	607021.81729961032	4743.9309057092
0	10246	607321.186362225661	4583.6385996442
0	10290	608914.787615941362	5317.187750483
0	10296	609244.213759083425	5087.237139267
0	10304	609718.116039607307	5351.719546203
0	10324	610455.790780442092	3100.2987815722
0	10332	610771.943726479657	4397.2126588698
0	10349	611409.67315752809	3902.8471429568
0	10354	611676.971732288688	4152.192663159
0	10370	613751.912542332254	3990.5707255265
0	10389	614659.252945285283	7078.7496792064
0	10422	617138.5153372942	6661.7914015444
0	10435	617734.031914048549	4284.6957042892
0	10458	619391.827848389876	3185.1143890657
0	10467	620107.771288017144	6092.5332443806
0	10475	620405.376946234095	3934.2374080932
0	10492	621560.848751008885	4595.6696028168
0	10504	622431.718736804005	4734.4801534114
0	10527	624205.993055119936	5440.2083267896
0	10536	625447.720247268214	4438.1421183459
0	10561	626745.840768125692	4348.8509368698
0	10580	629031.822590287138	5523.4351668076
0	10588	629455.522853045445	3680.030249586
0	10610	632152.461483033252	6325.4615285559
0	10635	633906.536316151721	5487.9185804226
0	10658	635403.841596552172	4600.4244146911
0	10670	636059.217424227523	4029.6479725479
0	10692	637210.102632400027	4531.2118819061
0	10704	638269.108271782205	4363.5211379529
0	10718	639685.992153344716	5042.1186502258
0	10738	640253.83615993389	4324.4103909329
0	10755	641514.465400272091	4930.103191024
0	10789	643235.415130247149	5149.406742281
0	10797	643562.726092300953	3869.1670397111
0	10826	645208.119387252583	3350.0457613364
0	10831	645488.76594200345	5294.3482200793
0	10836	645742.640116272761	4472.1067343045
0	10848	646458.305341762679	4211.653301172
0	10870	647404.521180448653	3852.7011699708
0	10902	649816.947993352446	3568.993825387
0	10919	650407.520913361813	6184.5323436468
0	10955	651732.089270396107	4965.1698510952
0	10974	652541.323555651034	4416.4868875346
0	10979	652808.637082732926	4396.8852571946
0	11007	653941.253874631559	3781.707248708
0	11016	654166.675467130301	3785.9067599987
0	11021	654476.67366911793	4749.7937019061
0	11032	654892.628565274748	3463.2579264989
0	11038	655190.536472004375	4384.7940464956
0	11047	656138.43467441685	4522.6366969726
0	11072	657182.897545260802	4314.864747627
0	11085	659896.746341143635	3520.8175428647
0	11091	660220.931499052462	7341.5356065894
0	11146	664055.710342955496	7666.9860240092
0	11151	664358.972633435931	3659.3726048896
0	11193	666075.773835312642	4972.2981762681
0	11215	666673.597587936792	4790.9243585062
0	11245	667867.394716009298	4675.7568889897
0	11251	668150.831390198122	4913.8059457406
0	11259	668495.356733245827	3850.4121128112
0	11270	668902.368765146325	4456.9767066367
0	11282	669178.134876332967	4437.6816032828
0	11295	669780.437602234066	3701.1555655007
0	11304	670101.286072312144	4870.7196486573
0	11312	670424.874546370404	4037.6521742114
0	11328	670992.534447078813	4270.5179732168
0	11359	672859.273111876008	5896.0831383418
0	11376	673767.265067004014	4748.1216251081
0	11385	674326.637173346045	3982.2665473036
0	11405	675099.272509090374	4273.0504635143
0	11446	676547.947260890753	4582.1782135147
0	11451	676796.89865372486	4585.0100544368
0	11471	677728.442234100142	4619.1930473283
0	11496	678619.211283856807	4188.2823754963
0	11504	678920.758396868147	3729.8240995835
0	11513	679232.878306479034	3554.4961310308
0	11518	679540.704518715981	4487.5368073344
0	11538	680353.816639344323	4618.7718109297
0	11555	681459.947238267228	4275.8945553202
0	11560	681754.047217448446	4197.5011604105
0	11576	683462.372035671257	5539.2219419246
0	11587	684031.473398915606	4279.8989658394
0	11628	687143.787769775451	6950.8409251506
0	11638	687701.949325700142	4317.8802463808
0	11653	688520.136855035269	4024.5993581796
0	11664	689029.888608681972	4113.6558989555
0	11720	691541.89367913081	6327.7066827978
0	11731	692155.044775958366	5276.0237656215
0	11746	693500.746107848945	3640.6670519501
0	11766	694062.318534143558	5699.6951746832
0	11771	694346.9324669525	4415.7090648211
0	11779	694678.387974129181	4676.0927964702
0	11784	694937.833850486711	4965.2865327232
0	11790	695239.524450633761	4479.8964749749
0	11819	697236.551558374566	5913.392353601
0	11836	698574.834178304383	5144.9678937827
0	11851	700366.168125809262	4850.4898412579
0	11859	700767.974725078884	4271.9678044786
0	11883	702266.407553162546	5112.7257925303
0	11927	704161.365076156048	5778.392139284
0	11939	705515.087918748993	4618.4784485374
0	11944	705844.564041155257	3849.2482039258
0	11959	706240.944684062586	4109.0267003353
0	11964	706500.381896136265	3418.0136994775
0	11969	706778.622619211048	4119.8811158304
0	12012	711655.484577902297	3351.3398594368
0	12026	712221.105749684555	8847.4215637425
0	12051	713114.502949701773	4556.0764407732
0	12073	714671.518015897169	4902.0743615088
0	12093	715453.320100830444	4070.5846040138
0	12107	716096.001881620593	3943.8851434011
0	12118	716644.890749252742	4194.606620356
0	12123	716975.972795597907	4049.6830033551
0	12152	718185.932366120588	4844.6076787967
0	12157	718502.012025591658	3642.1040000528
0	12194	720597.567842675219	5425.3445287833
0	12199	720882.030460269997	3792.5988082812
0	12225	722103.443682135267	4553.4692650622
0	12233	722657.545496685868	3765.3635881312
0	12242	723152.335952625597	3761.3307241654
0	12254	724768.071357846317	3579.9445300194
0	12263	725043.684031283116	5648.9678265397
0	12279	728070.73722971839	6787.7551143055
0	12308	733929.540133587445	9000.6514128979
0	12343	736311.450910199834	5313.3985655649
0	12360	737490.362916864622	4476.47718616
0	12372	738194.961839471783	4196.9903160718
0	12386	739401.946056610098	4600.8011782259
0	12402	739933.514447020088	4324.2524734711
0	12411	740883.660067655048	4338.4092350959
0	12446	743027.448128129504	4983.8052913449
0	12471	744518.188448247789	5111.0103217292
0	12482	745010.670459244205	3595.9623330671
0	12496	745570.254596551313	4420.7282484972
0	12517	747114.281656828896	3430.8169628421
0	12522	747439.894114920266	5641.980316678
0	12531	748157.041403472473	4341.8338157642
0	12546	749474.390402421591	4636.2563833253
0	12589	752890.362775489578	6955.2438964949
0	12595	753230.559572695676	4086.9065325388
0	12600	753497.201374569354	4237.1359779704
0	12620	754685.918638419656	4681.6659965231
0	12696	758537.625549190048	7216.148531953
0	12710	758895.998489941477	4806.5976703662
0	12744	760045.543991845903	5633.7886397425
0	12752	760374.874042747305	4174.1185844572
0	12763	760631.861226095204	4567.7644965735
0	12768	760949.64942234293	4653.4137527282
0	12774	761248.820371331412	4106.1431706317
0	12779	761566.772517564283	4331.7313375266
0	12784	761852.177385173215	5451.810950956
0	12824	763188.890619580097	4593.0931167439
0	12829	763493.935426556398	5780.8760941034
0	12834	763808.168200908371	4930.017267787
0	12855	765343.720502216483	3321.3222772537
0	12860	765654.752743415806	6727.5912946394
0	12872	766223.73861663116	4151.0537949573
0	12885	766791.18772529342	4478.3368558422
0	12912	769689.653546376987	5638.9077605993
0	12938	771571.350984602858	5659.5986573714
0	12947	772106.610073549131	3646.8188703635
0	12956	773241.336437524784	4491.6215500804
0	12965	774489.768924292359	4477.2364771592
0	13009	778982.125878247212	8055.3688952648
0	13021	779532.655952220924	4101.076341613
0	13029	779802.530488862992	3358.3692982877
0	13038	780087.623691165276	4090.4110719074
0	13078	783565.129584977735	6537.4076623558
0	13087	784795.548612591326	4843.1413587215
0	13096	785532.178641109345	4016.4050220313
0	13113	786287.027263042183	4641.1526451947
0	13123	788390.434499615547	5481.4128019451
0	13158	791765.006020081762	6142.200769595
0	13181	792820.268692398745	4303.970339757
0	13200	793711.82133386165	4276.6244982092
0	13232	795932.128594055333	6108.0200281513
0	13246	796617.091662262443	4404.4115412426
0	13254	796945.683516841357	4321.1581304204
0	13260	797182.190257389416	4443.6223168307
0	13305	799612.602693496203	5848.4524277681
0	13310	799935.554610177913	4581.2650388869
0	13339	801450.189587368727	3357.5582956012
0	13364	802011.065956599356	6137.6698075639
0	13389	803100.116448547152	4872.7964827132
0	13400	803439.41647324769	5143.5621434018
0	13414	804031.131262683864	5705.3507704935
0	13425	804321.386551648046	4123.7144764395
0	13435	804935.344273441219	4324.9589903301
0	13444	805568.245825336522	3680.6770214501
0	13459	806042.465620888834	4272.4572335845
0	13464	806280.511347145083	4966.9161410234
0	13469	806521.853895537911	4169.9453286273
0	13494	807930.713314740273	4524.7497420313
0	13524	810375.614334369365	6111.8117671141
0	13535	810625.279391749398	3845.8624803565
0	13563	812393.520342486701	5563.1155446973
0	13580	813282.961489473882	4788.1285231716
0	13588	813730.601709681473	3194.5018062015
0	13600	814291.401713068933	4543.2637827199
0	13605	814575.405821931383	4038.9287381964
0	13639	816646.796551333	4936.9869149511
0	13685	819031.070572659106	3573.53548779
0	13696	819376.650896742016	3553.8430342639
0	13701	819681.243879595027	7012.0993926864
0	13706	820001.187220349713	4422.3504374092
0	13721	820906.493912601115	3416.4595109105
0	13732	821455.385559536758	4732.5655177104
0	13752	822127.135087421754	4377.4221552761
0	13799	824404.103163294113	5982.8543716356
0	13807	825008.239355643896	4216.4230459816
0	13819	825476.851759410855	3487.6071626116
0	13824	825783.87080314353	4246.8029668212
0	13839	826824.747919437519	4609.86777989
0	13848	827115.397862132239	3585.4097377716
0	13858	827807.258222267226	4508.0191663664
0	13901	830657.858711829429	7008.1937966019
0	13910	831859.808507338188	4781.8302728371
0	13919	832226.995533499052	3912.8273915878
0	13938	832961.591839874148	4215.5433410934
0	13944	833266.789532762012	3791.7334866024
0	13963	836034.413988570207	6224.7209261786
0	14007	837938.961990441603	5559.5406758282
0	14028	839567.364455770121	3394.6089166529
0	14045	840150.334441333676	6164.6829156095
0	14058	840664.374946296857	3720.4899142779
0	14069	840980.128413737692	4332.4556929952
0	14083	841590.689834002224	4584.4760826061
0	14097	843010.247060192211	5240.669600119
0	14106	843445.309650804277	3899.6073581179
0	14126	844651.658033821287	4641.0251308382
0	14146	845328.125080813309	4572.1737783578
0	14182	847073.353063892492	5654.0491908436
0	14194	848028.561395689913	3960.7121669837
0	14210	848828.766855725523	4459.2778249346
0	14271	850917.944931381149	5602.150824866
0	14277	851187.105373952225	5393.8460105548
0	14288	851426.79050024148	6319.4230327636
0	14296	851768.255507935935	5240.222889043
0	14305	852061.704496183143	4131.5251728973
0	14310	852348.397723912615	3789.4211341841
0	14315	852679.561728609421	3638.6843245082
0	14327	853078.987830086614	3919.2472444081
0	14335	853409.03582714615	4030.8286137
0	14343	853702.858100436726	3717.5974302344
0	14360	857328.783710093427	7053.7593472675
0	14396	861568.100066683483	7878.6766503189
0	14416	862871.430336709883	3573.5046069817
0	14422	863199.958460771846	4993.4092039676
0	14443	865331.234178145954	5831.2115930531
0	14460	866565.084596020984	4241.1426130903
0	14486	868746.469266421707	5540.1838435895
0	14501	870363.494001374674	5087.536703877
0	14509	870909.113363929495	4365.5309368694
0	14518	871666.824816578693	4043.7814200429
0	14581	875116.219555483692	6498.0251624552
0	14589	875352.079795897347	3596.2426625256
0	14594	875642.964866548349	3807.7088226937
0	14612	877188.964624906769	5026.8023870406
0	14626	877559.173547220789	3469.4654233377
0	14637	878155.421395258988	4271.0074039459
0	14646	879747.175890530132	5462.7442597079
0	14655	880516.171100502045	4371.6195132097
0	14682	883611.159941231028	6267.8209979595
0	14710	887049.312563015601	6480.1626543448
0	14725	888428.771616809712	5580.9600539691
0	14744	889280.122951717502	4390.0300844473
0	14773	891517.921478567002	5128.9731469413
0	14784	891783.902123877986	3540.595586689
0	14812	893765.014889245858	5410.8146422412
0	14821	894096.140507109891	3733.382520246
0	14832	894818.654838785181	4088.6820003898
0	14846	895327.990136221688	3746.9925400546
0	14871	896655.396969267938	4999.8437785977
0	14905	898270.177910350914	5156.5869841614
0	14941	899476.182880164796	4662.9958671196
0	14949	899802.034854883996	4164.6746913519
0	14955	900094.47529813748	4353.9034248084
0	14966	900656.225523986773	3766.1571923991
0	14971	900928.939297581044	4001.4523180485
0	14983	901622.359735216642	4684.391158601
0	14997	901894.295002526713	3593.3554634092
0	15022	903096.432237030878	4788.5095598311
0	15031	904802.083767117161	6477.7823573289
0	15051	905787.392755711871	4053.3504590466
0	15065	906359.705918922528	4466.3315511668
0	15083	908506.144330874622	6520.4350078779
0	15092	909409.740893350287	4498.3246935335
0	15109	910537.807348066571	4915.1188225266
0	15144	912565.266204496569	5717.3487448557
0	15183	914077.277821062385	4170.5057376228
0	15193	914638.431632363056	3848.6642583068
0	15213	915934.876136837598	4261.433184433
0	15225	916245.052103681535	3830.4410679911
0	15230	916513.269145354898	4118.3127585359
0	15238	916847.864356492329	4403.5003388042
0	15252	917518.721742465612	4930.2570115021
0	15261	918057.354201273554	4292.0595275657
0	15294	919943.242163340775	4968.5627541083
0	15311	920937.371165011404	4336.235253489
0	15323	921818.49096951194	3684.6755498505
0	15329	922162.382713320572	3531.8521624474
0	15354	923851.634882236833	4853.232210114
0	15376	926249.695522051781	6188.862690907
0	15381	926559.730995627677	3845.0475399623
0	15424	929374.813504459384	6150.6689741304
0	15457	930595.334093873642	5039.5608143878
0	15469	931159.417191017689	4407.7564767879
0	15474	931481.778489584899	3956.874883942
0	15494	932410.740101736588	3914.6985391377
0	15499	932660.546638326735	4053.6877249726
0	15511	933054.343122920167	3643.0241500155
0	15524	933590.135546412555	3857.4677314847
0	15542	935422.252199643881	5423.3517787544
0	15567	936647.179352706407	4924.5715068992
0	15593	938070.233003748447	5251.2508354011
0	15601	938430.101918085651	3882.0288354638
0	15610	939036.916022843518	3496.8709043138
0	15630	940356.030835441107	4456.541098413
0	15635	940660.797880972857	3640.7389583632
0	15649	943235.286612147821	5811.0712360935
0	15665	946810.03914474386	7082.3501514377
1	863	51935.17190753417	0
1	880	52852.984826492586	53.26775663723
1	889	53224.385567437813	0
1	918	55863.167358424811	288.26797521894
1	927	56153.839405829801	559.88892827239
1	942	58083.261444780442	0
1	967	59414.679596491766	172.05931779053
1	975	59717.384686930197	270.42089205999
1	984	60659.909847961197	0
1	993	61120.431862974608	0
1	1007	61391.247671575865	186.95673879202
1	1015	61724.249762265674	404.12649751963
1	1024	62005.772036441585	370.79196425687
1	1032	62309.66172928731	472.43022068792
1	1059	63486.185064248411	219.38095572808
1	1076	63795.100932494372	238.13006413396
1	1082	64081.018700157474	450.37244376324
1	1118	65388.638241932414	255.01909968742
1	1126	65696.020486312651	314.92755675456
1	1135	66016.303871872081	147.3904554567
1	1209	69466.633708904309	0
1	1217	69815.396351316825	0
1	1226	70663.351288122752	0
1	1234	70962.232703838526	11.351357552334
1	1246	71260.312568200974	178.32638335384
1	1254	71582.514168345411	497.53146898267
1	1262	71884.841533026859	360.35534873049
1	1268	72177.661721950095	301.6530224997
1	1284	72774.479261407401	147.64333522006
1	1296	73021.649293848366	203.60917924548
1	1354	75540.090645966712	181.91282485122
1	1379	76429.795423005184	150.06372620899
1	1393	77030.481733084585	120.26599543137
1	1401	77657.63707107571	0
1	1409	77997.896005182391	308.44319266367
1	1426	78875.260486858931	260.04915146541
1	1446	79611.328380864675	200.30949934007
1	1477	81153.00595841774	0
1	1485	81496.012415060596	0
1	1529	85735.853587852374	0
1	1538	86500.332193900345	0
1	1548	88236.711989147503	0
1	1556	88563.89848094139	270.79873117198
1	1582	90815.202145049023	0
1	1607	91852.572954194144	184.6351318312
1	1616	92421.577499348597	0
1	1652	96005.972289730456	0
1	1663	96295.898256107736	158.14381332317
1	1668	96609.438454050215	401.619399087
1	1678	98617.678580917956	0
1	1686	98890.425471772763	123.82473083602
1	1711	99906.007071806329	0
1	1723	100190.00328123533	2.283943584635
1	1772	104459.054231632994	0
1	1781	105199.754592789277	0
1	1790	106023.084377412	0
1	1799	107228.289989675428	0
1	1810	107509.347455007741	74.339331948427
1	1824	108139.455978177324	0
1	1849	109757.545768655001	0
1	1858	110025.000996932233	219.81323843653
1	1877	110879.728884922426	133.59279127653
1	1926	114898.161481326363	0
1	1935	115450.447171657826	0
1	1944	116746.683051518308	0
1	1980	120727.925767942639	0
1	2001	125793.677997489757	0
1	2011	127053.345970032996	0
1	2019	127975.748067162196	0
1	2028	128942.439723943702	0
1	2057	130346.451442314074	60.311882491637
1	2062	130629.478920715274	309.09750753141
1	2097	133498.693263728538	49.178845959537
1	2114	134201.557201524621	194.63256967109
1	2132	136618.216031760818	19.672807335287
1	2143	136861.284777376232	209.34491245448
1	2157	137983.618752971006	0
1	2167	139375.416472230527	0
1	2190	140004.001350919009	292.89892818807
1	2195	140315.768204635298	456.67496864297
1	2206	140623.234900325438	747.36338172303
1	2214	140901.365560485328	134.90732582423
1	2233	141731.659759172632	106.0761743744
1	2276	143570.297927395943	225.94186283452
1	2281	143876.698121781609	310.93094272836
1	2298	144457.365359192308	64.321875340965
1	2303	144744.419397539974	304.63184403697
1	2326	146091.527591428205	0
1	2334	146387.624563046485	1.746712564381
1	2348	146694.194941630004	291.32987537537
1	2378	147999.643890835375	305.23309168919
1	2427	151469.664538571004	0
1	2435	151779.737185635664	292.45700598461
1	2457	154699.494368036917	154.5204209384
1	2466	155012.68076227652	69.53951868014
1	2480	156786.464998871908	0
1	2507	159285.204445332965	0
1	2534	162305.444969048024	1.03383373372
1	2542	162668.029958384384	0
1	2552	164188.448063228393	0
1	2560	164501.67490635007	107.22820614704
1	2569	165139.820306278901	0
1	2603	167416.049730456371	0
1	2612	168066.664374028252	0
1	2626	168370.081766806583	258.88967058159
1	2637	168657.984313173729	64.105438328608
1	2642	168967.288900204796	365.46493728692
1	2656	169612.61432912055	353.33576545988
1	2670	170376.034617074786	0
1	2684	170688.984728465782	5.535254529153
1	2709	171571.244231810052	137.8360420737
1	2734	172425.60690018888	84.869483165884
1	2747	172951.709858605798	122.95062227416
1	2769	173832.396818082948	212.67781329168
1	2794	174841.275579184296	0
1	2806	175194.98139160973	332.71624794787
1	2811	175509.50358742712	618.64860673406
1	2819	175981.123258011792	0
1	2834	176270.552491563594	88.274659927641
1	2895	179379.025473360934	129.95795696982
1	2906	179643.74875744769	3.559063402447
1	2920	180415.628641970403	0
1	2930	182068.549381185954	0
1	2949	182845.259407505827	231.45288728726
1	2969	183458.108616578182	149.91494193969
1	2977	183807.69022132659	493.38212462632
1	2983	184077.846575458459	500.12419993631
1	3005	185789.582046958243	0
1	3057	189382.950957927201	171.95570270214
1	3065	189860.637895356108	0
1	3076	192119.198270427511	0
1	3092	192793.874382100863	0
1	3109	193386.638716545437	279.93413063355
1	3118	194905.224838916138	0
1	3130	195191.658641976479	248.21882865472
1	3149	195797.922914710123	135.54479136554
1	3169	197049.052233593982	0
1	3177	197729.150445473946	0
1	3202	198699.37633626889	107.16879087136
1	3216	198974.928805836773	230.0068016406
1	3222	199283.053411826432	358.46746038884
1	3235	199855.100085314537	0
1	3252	200421.851252808024	0
1	3261	201131.748564360919	0
1	3292	202177.713011135827	154.59659485366
1	3336	204531.212132101037	0
1	3353	205536.231815694487	0
1	3361	205807.128776883408	0
1	3370	206123.62443945349	0
1	3378	206476.414417257388	0
1	3386	206768.743961286072	153.2835724176
1	3404	208095.996060077501	0
1	3412	208725.965818571502	0
1	3441	209320.985250614893	221.93806008074
1	3454	209904.150924198555	46.451101905299
1	3468	210431.55323121176	104.07323547263
1	3476	210719.561373733814	176.32550564078
1	3496	211273.750051476085	155.30791374172
1	3501	211569.439324946854	320.43570628598
1	3531	212730.348556684218	91.088742804017
1	3551	213279.954412549286	157.54516566671
1	3576	214151.008468499607	79.087887903434
1	3611	215908.7603971477	109.60875812028
1	3620	216239.39219358143	162.48759484625
1	3631	216590.405098313392	322.3167911279
1	3653	217741.570983422589	212.06119003616
1	3662	218532.415285134703	0
1	3714	222452.06039414771	0
1	3722	222766.105388630155	0
1	3733	225025.409293367904	0
1	3741	225286.768092872363	176.96215932343
1	3749	225670.99181519169	0
1	3792	228439.389853298442	109.52647445004
1	3809	229520.406043647065	0
1	3818	230178.914699109453	0
1	3826	230454.987861311245	241.60806584182
1	3835	231520.255256045305	0
1	3846	231826.702913582881	193.32452019035
1	3886	234413.903434400722	0
1	3912	236683.324603312607	0
1	3921	237347.922933453771	0
1	3929	237701.968273152802	106.68770078317
1	3946	238746.469546311187	0
1	3955	239063.800232788764	167.81953888707
1	3975	240535.700264023281	49.111561335772
1	3992	241094.501128156885	75.528345618024
1	4023	243044.311842522264	0
1	4048	244499.311969772362	79.554805010446
1	4056	244835.584412304201	45.585307417894
1	4065	245148.423447607223	95.580619847179
1	4082	247002.058647715909	0
1	4106	248030.512429769217	84.917496529099
1	4119	248609.600541854407	118.15558906323
1	4133	249287.599563368104	295.98514369219
1	4153	250653.669577982994	175.43234936753
1	4170	251231.029767265117	271.73292989834
1	4175	251524.40263798688	468.8635070775
1	4200	252731.219664671477	235.09530731224
1	4212	253036.337581335965	285.32390871772
1	4220	253325.036921046397	327.51548649789
1	4242	254749.350162156698	0
1	4259	255822.148237616215	0
1	4277	256153.891646108781	271.35221548842
1	4285	256464.465357356025	375.65870867619
1	4304	257370.066079486885	304.79948956685
1	4317	257966.278679152359	38.438159127604
1	4329	258276.859959524858	201.10359850288
1	4342	258823.588144906702	0
1	4379	260239.563795238814	130.10571528468
1	4418	262499.351176730587	0
1	4426	262894.330815520718	0
1	4443	263527.803891170259	142.63597296078
1	4457	263827.724816687013	144.30753414719
1	4463	264124.999475631175	411.56907051165
1	4468	264436.33508333051	653.41098896484
1	4476	264768.451389538573	0
1	4544	268945.559381363605	0
1	4554	270046.171742062219	0
1	4562	270893.285158002668	0
1	4572	272014.428337304781	0
1	4583	272319.65866604701	8.742988534964
1	4597	273242.141406787562	0
1	4634	275288.917547807381	246.52658163085
1	4642	275631.746753985085	312.28268063484
1	4659	276149.267710862778	266.12494358651
1	4664	276469.954942012231	373.36029696844
1	4681	277089.975525904097	144.93863424559
1	4689	277808.176798027773	0
1	4698	278588.030192449627	0
1	4734	279810.620586605316	289.34129556
1	4765	281113.80237319842	31.63423097015
1	4773	281563.604722492373	0
1	4817	285101.273538931473	0
1	4825	285450.813448094426	276.89650569047
1	4833	285772.572376234175	87.243060836028
1	4869	289805.887162977881	0
1	4878	290353.02839187131	0
1	4887	291875.201493131297	0
1	4896	292167.171740441022	204.53316458555
1	4904	292902.737390831104	0
1	4919	293130.666405334502	53.556515911219
1	4932	293740.631334862176	230.61501758603
1	4955	295284.996211517113	0
1	4971	295888.001843541663	0
1	5005	297132.089662276819	99.681987629081
1	5013	297981.78250959062	0
1	5034	299025.254272658802	21.147505506084
1	5042	299394.075944078857	377.39087647435
1	5050	299685.32174167752	281.93226100637
1	5081	301786.535341787762	0
1	5098	302418.358284414524	0
1	5123	303797.960856551765	0
1	5132	304102.586742336351	0
1	5140	304379.624560731516	252.96798211719
1	5148	304669.516514540425	79.258354685742
1	5191	307489.54997711142	116.1206789056
1	5217	309190.958011033336	0
1	5228	309456.512248313553	254.03760206615
1	5233	309703.278702590577	380.994730388
1	5251	311199.811145404923	0
1	5259	311917.397542756903	0
1	5311	315403.946092443232	125.28816841846
1	5319	315918.228039439018	0
1	5331	316245.039316677773	159.50243799086
1	5339	316580.09625217955	465.4282290711
1	5344	316902.064849682705	336.13819432329
1	5353	317373.824449920104	0
1	5370	318887.312525133901	0
1	5388	319189.83207119245	245.09575749109
1	5393	319536.833926733599	405.09812058442
1	5437	321312.782750569589	259.09310916664
1	5454	322096.048671860804	312.51942484342
1	5473	322693.320665403355	239.98369666261
1	5478	322949.557108729446	284.2750879946
1	5495	323473.061008201462	103.00560436443
1	5512	324773.085180842613	0
1	5529	325586.849653655877	0
1	5571	327762.979030184198	293.83181966286
1	5580	328108.507568111105	0
1	5596	328658.781718335561	194.68641996696
1	5605	329471.46026897743	0
1	5613	329752.157241903592	197.2507819437
1	5665	333059.426059664212	166.88888750988
1	5674	334027.859918158895	0
1	5683	335094.221557971254	0
1	5691	335394.041851792263	98.062447662508
1	5708	336086.476637765202	0
1	5716	336475.107201120961	0
1	5724	336756.70968469753	130.64804388692
1	5741	337534.968854275338	0
1	5758	338265.40147600886	86.194474167897
1	5774	338845.139700065281	166.38937209397
1	5786	339132.303633107274	147.8975293019
1	5794	339385.327097126022	94.655797319596
1	5805	339693.022469982916	284.05324275971
1	5822	340255.042823488614	198.1857088807
1	5835	340877.121854403069	109.95948404605
1	5893	342851.685330293453	40.889681233286
1	5924	344560.162206755347	0
1	5933	345493.482309754455	0
1	5950	346656.104879678466	0
1	5959	347396.812209017332	0
1	5985	349524.587861767803	0
1	6010	350665.626831966325	7.799935642452
1	6019	351955.505048690406	0
1	6028	352207.321075413251	112.36006407112
1	6045	353480.490303010924	0
1	6070	354838.917755811413	110.95378205197
1	6096	356490.470002683482	267.52549377774
1	6104	356783.907015269814	231.02611219105
1	6113	357100.867806285245	113.33226591961
1	6121	357419.913285335379	14.116753643102
1	6147	359446.69127489566	0
1	6155	359864.031613188005	0
1	6175	360409.242199582758	151.10948476929
1	6197	361346.809948713292	264.94953303822
1	6205	361667.341662793534	296.82075459652
1	6248	364725.958980834614	73.667534745769
1	6259	365002.155846113492	7.183822656869
1	6275	367027.624224433242	0
1	6283	367681.152801978609	0
1	6317	369978.843752228328	0
1	6326	370216.746929877985	129.73509083724
1	6343	371432.114300018048	0
1	6351	371974.178799071332	0
1	6360	372344.853460542277	0
1	6368	372667.828234095397	31.642764801683
1	6377	373009.447192435441	162.82609989122
1	6396	373622.472988133598	242.61746829683
1	6404	373915.529662439766	179.96341946139
1	6449	375562.821804244274	304.41341707665
1	6457	375849.17218322839	480.80421300916
1	6466	376157.211336438319	581.05648691342
1	6502	378046.984499433993	0
1	6521	378614.891348464766	166.52148683842
1	6543	379738.868504526507	0
1	6552	380244.506088735356	0
1	6560	380816.157223432481	0
1	6569	381084.761004782073	61.289879596334
1	6585	381670.360025986473	26.60961680236
1	6602	382578.874885076668	0
1	6619	383360.495917077387	0
1	6661	385155.410426433916	0
1	6672	385415.963227556806	245.81009102052
1	6680	385747.171258923571	558.57823269743
1	6694	386361.899884552627	3.095492782349
1	6711	387874.785950943785	0
1	6739	388937.390346040884	1.826263538178
1	6771	391461.88701212513	0
1	6788	392754.445566654378	0
1	6806	394756.979401232825	321.75980329176
1	6815	395050.034301818283	161.70218033983
1	6831	395755.050568171188	42.663738759852
1	6840	396401.378644629909	0
1	6857	397780.958453127187	92.054543519182
1	6874	398751.073299351347	185.7082557835
1	6899	399911.914925867319	0
1	6908	400189.624798078891	239.99111654687
1	6919	400412.837454070217	9.826890112023
1	6927	400697.493698523901	201.63010255041
1	6941	401333.656093272196	39.558146848821
1	6957	401932.604398821345	5.359978259647
1	6966	402276.271166974084	0
1	6974	402585.237913779708	24.242943777923
1	7051	407093.536366337983	0
1	7062	407350.420766258131	233.07913266117
1	7067	407629.354170960386	300.17743602819
1	7075	407928.410863305848	128.55017053436
1	7119	411491.074289958553	112.91783038497
1	7128	412915.56699294138	0
1	7146	414758.387072623709	0
1	7155	415092.593786258246	324.93402643924
1	7172	416732.590041214917	0
1	7181	417064.735470959997	11.711700822814
1	7192	417403.720472130747	300.11874945221
1	7197	417693.71689235978	452.5164291112
1	7209	418015.148004195624	303.31652111805
1	7225	418502.761323286959	175.82333107136
1	7233	418774.803041427031	53.648317656288
1	7256	420195.928158683476	153.10676522939
1	7278	420846.739350484461	10.77526789777
1	7309	422011.23538932735	192.2703890166
1	7358	426538.784697984956	0
1	7368	428832.496638352576	0
1	7377	429132.157853906258	40.961747754149
1	7394	430189.056827930589	115.50773433179
1	7402	430546.361219942658	175.0768859562
1	7423	432374.686750091817	134.28503773293
1	7431	432694.939542584378	153.85714175992
1	7462	434154.045115396649	0
1	7497	437461.503152432812	0
1	7506	438141.364221068055	0
1	7515	439975.026451127715	0
1	7524	440293.74407603697	227.50247703172
1	7549	441738.642096768484	169.01705421841
1	7558	442040.858940755854	161.04697486006
1	7574	442728.31044606193	263.82525043739
1	7583	443429.103209796979	0
1	7603	444050.49222578737	137.60777627237
1	7608	444346.64864040808	397.43632040487
1	7668	448216.490750006077	0
1	7676	448593.262899272833	0
1	7685	449016.074689997622	0
1	7721	453584.716674288336	0
1	7730	454097.87764116268	0
1	7738	454395.717600501795	0
1	7747	455746.039612990494	0
1	7764	456407.767305974223	169.62026229566
1	7790	458446.336151407327	0
1	7798	458800.44377907759	0
1	7824	460147.195672449556	0
1	7850	462767.077679014173	0
1	7867	463598.619850312229	0
1	7875	463906.820631347172	104.41609321453
1	7911	467492.647189547796	0
1	7920	468812.817538260404	0
1	7929	469110.606726038615	105.96059945253
1	7937	469970.771932257812	0
1	7963	471733.842093454076	0
1	7972	472067.931860947286	229.44586425984
1	7988	472851.785831456577	162.71223807927
1	8005	473786.523705477701	0
1	8031	475496.517694886212	37.314739050871
1	8048	476262.85302062838	0
1	8085	481159.65346137955	0
1	8093	481435.864725436688	267.52668970352
1	8101	481748.380572949173	0
1	8110	482081.196490155313	288.37174080082
1	8118	482850.286787611462	0
1	8127	483563.736530722476	0
1	8158	484911.131239404883	240.32208404611
1	8167	485217.248223019598	533.21381532348
1	8189	486123.660519036118	177.81897771712
1	8211	487133.349169695791	186.13033513018
1	8246	490269.860658425417	0
1	8264	492024.907724147207	0
1	8272	492307.017155677311	178.42317403372
1	8280	492619.300508839957	297.47861884266
1	8324	496202.974007038435	0
1	8332	496772.789305119828	0
1	8342	498199.570978120037	0
1	8362	499522.717804059639	18.143919175836
1	8376	500126.491485689958	44.176243527949
1	8385	501066.679820920042	0
1	8402	502318.931026808943	0
1	8410	502637.234280119268	75.631399483064
1	8427	503200.514831355975	0
1	8452	504376.786028002924	0
1	8472	505321.671294433616	129.79463766072
1	8477	505612.611297516599	415.57207600944
1	8511	507763.130478613922	134.12500653913
1	8531	508875.050274341074	41.734099001406
1	8548	509498.31478693652	243.18556703787
1	8553	509812.003923352101	496.71980459944
1	8574	511211.811977835176	143.08972107968
1	8579	511452.510012706977	297.00112491708
1	8587	511966.644643720451	0
1	8610	512560.287810077108	77.738539592057
1	8629	513635.920447494268	0
1	8637	513936.477744139392	26.595476717636
1	8671	515451.60669992643	98.884121403865
1	8682	515742.879358413227	168.98521405184
1	8696	516306.447547576368	272.92915973111
1	8712	516892.443780705034	239.81755922415
1	8730	518069.977750925005	0
1	8738	518380.734862292959	84.851488862232
1	8781	521042.820817538948	0
1	8800	521617.353284448115	23.47598107863
1	8814	522219.940244396298	241.03977307466
1	8851	527991.427306243596	0
1	8861	529070.256002921438	0
1	8869	529389.342680098611	238.03948799162
1	8887	531640.531624134737	244.48464173496
1	8904	532273.336990656321	184.39465506968
1	8921	533238.321059306095	0
1	8947	535782.867118752758	264.45394844339
1	8962	536099.767890741439	294.46161633402
1	8967	536421.457145909731	498.91307536179
1	8975	536682.001933604253	239.07680414145
1	8989	537575.208831791847	0
1	9009	538772.916396124344	58.352655573232
1	9023	539609.683809366998	0
1	9046	540262.192719899842	39.002496407142
1	9057	540565.584714719606	317.1181867519
1	9062	540854.835821493134	461.76344927888
1	9090	542100.413528318184	34.970649713303
1	9098	542357.80941047433	3.232491872655
1	9106	542871.36089196433	0
1	9143	544122.415994842708	13.339401149903
1	9156	544900.350684564377	0
1	9190	546300.535622270004	0
1	9199	547110.623086134951	0
1	9232	548965.852112891867	223.639724261
1	9250	550725.114950651085	0
1	9267	551698.415522167572	290.98984471732
1	9277	553527.838033264233	0
1	9294	554848.965632619616	0
1	9306	555196.404925863822	203.57022640549
1	9319	555810.048581662502	328.92707379032
1	9328	556141.107261525933	68.227259129553
1	9345	557579.60847799557	0
1	9362	558444.404495909287	54.659845641713
1	9382	559045.337552286211	226.80123257034
1	9403	559958.542647871936	0
1	9412	560241.456623196666	18.504965077005
1	9428	560792.571214865243	0
1	9437	561028.740410994327	178.62329753222
1	9448	561346.17877067009	282.24461686554
1	9487	563375.689503557884	184.61394552808
1	9521	565389.644135976789	0
1	9538	567010.54668699456	124.56268865407
1	9559	568922.010054084376	197.9979623827
1	9565	569212.704480935967	450.68957213354
1	9576	569529.483304290851	266.37535274687
1	9584	569889.138584159708	583.37563626411
1	9599	571270.538672905452	0
1	9627	572374.395499648533	148.48605056136
1	9658	574430.701645879494	0
1	9675	575631.750603754337	187.24670587023
1	9684	576435.365965869822	0
1	9692	576973.993966830535	0
1	9701	577407.539511163736	0
1	9712	577747.146044809209	268.19409765407
1	9729	578341.544572756819	178.07560819198
1	9734	578722.819382906376	430.99865514043
1	9759	579722.887591909904	0
1	9771	580024.754524237405	194.49524763734
1	9784	580566.110917993737	197.25815409084
1	9812	581491.308826688845	84.940608101877
1	9845	582881.079411915677	167.16904550653
1	9859	583453.558949338689	66.22079422904
1	9867	583742.807753267047	265.22150671793
1	9922	587281.218161810467	263.68249606263
1	9930	587574.642481058073	391.17928951106
1	9938	587891.8249262131	572.82425469194
1	9947	588184.276803621738	461.03091761467
1	9955	588464.383058256566	394.53803488243
1	9960	588766.185090643269	361.33307840742
1	10020	592799.062150824867	0
1	10029	593881.220970589635	0
1	10059	599151.073007393157	0
1	10067	599677.400333863161	0
1	10078	599951.31000920858	119.23477861303
1	10084	600250.305176220162	402.56126790919
1	10092	600553.199455552829	0
1	10100	600782.385339106349	24.375920017795
1	10124	602378.864744338462	220.98299705687
1	10129	602720.48693377856	442.60053987741
1	10138	603026.706875013455	289.15911243203
1	10160	603675.029730639105	77.429865180763
1	10174	604292.308096554432	135.33147673803
1	10185	604589.170200689348	222.77370728501
1	10229	606437.01101025213	62.279942642283
1	10251	607355.491998869887	0
1	10268	607648.214184960096	141.38817038883
1	10276	607979.351750855993	454.57268172634
1	10282	608297.849787639397	717.34652156054
1	10309	609761.341816805793	0
1	10334	610771.943726479657	295.21979072985
1	10372	613751.912542332254	302.57633257291
1	10381	614047.130673643846	31.892630007345
1	10396	616206.713459324203	0
1	10404	616522.924114642931	51.784576502005
1	10424	617138.5153372942	173.33618910213
1	10437	617734.031914048549	36.793330655923
1	10446	618765.784728330327	0
1	10480	621009.578128922302	0
1	10506	622431.718736804005	34.728905548111
1	10515	623508.387423479574	0
1	10541	625775.492603459476	0
1	10553	626109.312275573441	282.31232109606
1	10568	628418.617735729155	0
1	10594	630803.417181861081	0
1	10612	632152.461483033252	122.89203135359
1	10620	632678.890750493883	0
1	10637	633906.536316151721	0.949182322463
1	10646	634643.873503118935	0
1	10672	636059.217424227523	129.79165522649
1	10680	636584.362209248114	0
1	10706	638269.108271782205	183.09988381602
1	10723	639693.559052589873	0
1	10740	640253.83615993389	59.418438009698
1	10757	641514.465400272091	243.93201830383
1	10765	641858.073625916223	0
1	10774	642246.652040590707	0
1	10799	643562.726092300953	10.906081823114
1	10808	644222.988569715025	0
1	10850	646458.305341762679	210.35117379724
1	10858	646786.600248486749	19.680829185796
1	10876	648124.836668116462	0
1	10884	648440.517630364841	28.765804826506
1	10904	649816.947993352446	90.068026140662
1	10921	650407.520913361813	247.97428743824
1	10926	650761.836953479749	381.06824634811
1	10938	651073.723872672443	267.98144716369
1	10957	651732.089270396107	302.71863162025
1	10963	652015.939011083586	400.14103363931
1	10984	652868.032797633817	0
1	10993	653178.202197529674	298.80630506659
1	11052	656375.928798278912	0
1	11060	656659.423049269651	270.6987303234
1	11096	660699.600028546375	0
1	11105	661103.475659044516	0
1	11113	661882.673229430628	0
1	11123	663191.637827019601	0
1	11131	663484.521507382229	247.49606292467
1	11156	664445.392058509642	0
1	11170	664746.633942863626	101.68932242904
1	11176	665042.425134459184	301.97186140904
1	11184	665338.743766636847	108.17734298199
1	11198	666079.282036733326	0
1	11217	666673.597587936792	286.37521577782
1	11228	666969.813196773957	247.79672291197
1	11234	667289.323690988877	326.1337174547
1	11284	669178.134876332967	158.99143443709
1	11314	670424.874546370404	80.503920327978
1	11330	670992.534447078813	166.31240150275
1	11339	671965.769047376092	0
1	11351	672236.386131778342	24.497532490246
1	11365	673109.249186771835	0
1	11390	674430.928908360458	0
1	11407	675099.272509090374	46.104797708762
1	11415	675396.097850400078	205.1635531154
1	11423	675696.4439271418	18.06175169361
1	11434	675987.881279609525	252.83645119486
1	11457	677184.052682947006	0
1	11473	677728.442234100142	171.89617706216
1	11484	678002.029023246366	78.878929499689
1	11523	679751.574433076158	0
1	11540	680353.816639344323	160.86979471944
1	11578	683462.372035671257	78.302956351898
1	11592	684495.537496855672	0
1	11600	684916.232709726445	0
1	11609	685237.835623417928	23.648627084894
1	11630	687143.787769775451	264.7667594386
1	11655	688520.136855035269	157.51349557491
1	11669	689860.079055898862	0
1	11687	690179.382156829854	248.15875469842
1	11692	690427.678238747399	455.13092098388
1	11697	690698.12351302807	695.82833536911
1	11705	691002.821230975109	243.19325531629
1	11722	691541.89367913081	218.73447435725
1	11748	693500.746107848945	70.87982332729
1	11795	695515.678284551408	0
1	11804	696496.006920600263	0
1	11821	697236.551558374566	82.869797742312
1	11838	698574.834178304383	191.8612414323
1	11864	700896.60947021159	0
1	11885	702266.407553162546	271.0917159331
1	11890	702570.72008536314	438.80210163583
1	11898	702886.361489768033	227.61998638736
1	11907	703204.831901241073	122.46370458234
1	11915	703511.034034429294	137.34984848725
1	11976	708304.144718465544	0
1	11984	708625.004683377911	66.578174449346
1	11993	709769.443654388323	0
1	12014	711655.484577902297	272.74908108561
1	12028	712221.105749684555	68.989011465064
1	12036	712533.641669963108	83.357541066371
1	12053	713114.502949701773	188.21315745894
1	12061	713397.152512671007	55.827825347099
1	12078	714859.908025538879	0
1	12095	715453.320100830444	281.09678693852
1	12129	717089.43165198878	0
1	12137	717549.974417073032	0
1	12162	718892.181908554707	0
1	12171	719391.005228460168	0
1	12179	719675.414812676711	280.69860793326
1	12205	721188.12682782696	0
1	12213	721505.228058177809	222.24594276493
1	12265	725043.684031283116	114.79531059352
1	12286	730998.052344634976	0
1	12296	733013.885730704589	0
1	12313	733997.971523400009	0
1	12322	734801.144878384247	0
1	12331	735609.261973549025	0
1	12348	736545.250832559158	0
1	12374	738194.961839471783	151.31900268719
1	12391	739407.178126518617	0
1	12417	741149.526348054147	0
1	12425	741430.014095855471	15.305969678334
1	12433	741797.913798242268	0
1	12451	743683.464693986772	0
1	12459	743978.482005182051	163.27441747378
1	12484	745010.670459244205	172.53644014786
1	12501	745935.11887899464	0
1	12548	749474.390402421591	330.73736226473
1	12553	749799.78961161067	539.72421501176
1	12562	750063.010464078692	58.757822182117
1	12571	751321.477017237085	0
1	12606	754089.400819575267	0
1	12622	754685.918638419656	274.16328631626
1	12632	756064.096729521752	0
1	12643	756369.814651281437	169.0591929913
1	12651	756670.958448729276	374.72277911454
1	12659	756977.896244762049	577.52981054486
1	12671	757266.644827901877	123.96762720219
1	12676	757594.015257518073	358.97407748041
1	12687	757911.486648587981	198.42731613501
1	12712	758895.998489941477	300.20098710524
1	12721	759204.337975223259	326.18704210189
1	12729	759482.495660265733	555.33421148929
1	12790	762022.398224962748	0
1	12807	762314.028992887112	241.34417121328
1	12815	762594.305130234858	281.45426078361
1	12840	764050.745785777639	0
1	12874	766223.73861663116	311.98628939966
1	12892	768459.791203185629	0
1	12900	768781.140630742051	31.425743297646
1	12917	770012.53244713317	0
1	12926	770926.756982982383	0
1	12971	775431.579610607903	0
1	12979	775997.212619257873	0
1	12988	776444.1611905753	0
1	12997	777027.721922621934	0
1	13040	780087.623691165276	135.2164372955
1	13049	781515.773619078024	0
1	13057	781803.392314407074	157.51769655956
1	13066	782909.021697670455	0
1	13101	785622.80525048677	0
1	13128	788516.298352641735	0
1	13137	789435.196835652405	0
1	13145	789824.108565904065	0
1	13164	792212.680121019862	0
1	13183	792820.268692398745	195.74330597777
1	13192	793136.274532854974	397.7065922963
1	13205	793764.150265728112	0
1	13215	795354.289571290968	0
1	13234	795932.128594055333	58.732445019839
1	13266	798092.631291767502	0
1	13283	798420.077677039214	192.75771120526
1	13288	798702.612743826914	406.75841398098
1	13296	798988.621696873789	662.84120468341
1	13316	800197.672075208505	0
1	13324	800610.385283111166	0
1	13341	801450.189587368727	136.59438124701
1	13366	802011.065956599356	241.05756929506
1	13372	802318.172058367358	430.60325448091
1	13380	802624.16229329903	272.25372638844
1	13402	803439.41647324769	33.452900538671
1	13427	804321.386551648046	57.583984392793
1	13474	806779.4169113929	0
1	13483	807126.023908207545	295.61911041813
1	13500	808494.832966302236	0
1	13509	809748.137930349017	0
1	13537	810625.279391749398	89.179488269455
1	13542	810937.169082961416	400.69199922648
1	13551	811709.809636381931	0
1	13568	812669.144486908604	0
1	13611	815457.535084869074	0
1	13622	815753.590916870913	174.7541339304
1	13631	816044.129486248651	221.3216237705
1	13644	816722.820041826313	0
1	13653	817490.034401690566	0
1	13661	817778.408727884771	28.695795739078
1	13670	818421.248791658547	0
1	13723	820906.493912601115	114.67760293887
1	13737	821537.067836322304	0
1	13754	822127.135087421754	137.89049062253
1	13762	822416.136178319181	201.25603877164
1	13771	823299.239055900859	0
1	13782	823622.537439976507	92.549315615877
1	13790	823897.170109819488	247.505194592
1	13850	827115.397862132239	37.41962763118
1	13864	828314.168141911251	0
1	13872	828746.048498780793	0
1	13881	829475.056046159598	0
1	13889	829809.693062391642	0
1	13924	832379.42131461341	0
1	13949	833985.651525724172	0
1	13968	836172.755539117217	0
1	13976	836647.672720742511	0
1	13984	836943.885032018936	0
1	13993	837308.523134651069	302.30938325491
1	14009	837938.961990441603	169.38453036837
1	14030	839567.364455770121	21.662163083763
1	14047	840150.334441333676	139.70153835055
1	14071	840980.128413737692	224.17711128216
1	14085	841590.689834002224	171.38596095335
1	14112	844067.849228706209	0
1	14128	844651.658033821287	282.16900303033
1	14148	845328.125080813309	220.75761333544
1	14153	845635.932963583506	320.13885706839
1	14161	845975.675537848149	182.41617445073
1	14170	846528.032618892947	0
1	14196	848028.561395689913	98.382072404057
1	14212	848828.766855725523	269.79026599702
1	14224	849140.769674635563	99.892270534311
1	14241	849440.203533105058	280.46294742655
1	14246	849709.870491317913	331.66327787173
1	14255	850024.864270775298	39.603600572978
1	14263	850317.57825099196	42.553888165989
1	14345	853702.858100436726	13.43468407214
1	14366	858206.54925680428	0
1	14375	859297.925729728174	0
1	14383	859605.151877827286	105.12929273444
1	14402	862323.941982930712	0
1	14427	863206.285422832216	0
1	14445	865331.234178145954	55.276880648284
1	14462	866565.084596020984	21.502168960903
1	14471	867623.043396535842	0
1	14488	868746.469266421707	128.27487339324
1	14523	871755.837133371712	0
1	14532	872029.428098179721	194.17205432504
1	14540	872373.856745590367	211.69450772415
1	14549	873884.413991313038	0
1	14558	874213.784574495722	124.07645061262
1	14566	874487.2803839608	202.84875313852
1	14600	876144.551587292386	0
1	14628	877559.173547220789	215.83460394924
1	14660	880569.149908670836	0
1	14670	882847.811562840651	0
1	14688	884890.092867270247	0
1	14698	886388.948331625654	0
1	14727	888428.771616809712	185.46507962071
1	14732	888743.867901798625	389.66765479396
1	14750	890362.75798686389	0
1	14758	890729.972838395356	0
1	14786	891783.902123877986	202.90452771091
1	14792	892081.105341492455	425.55215082225
1	14801	893113.59092618954	0
1	14834	894818.654838785181	5.467825740016
1	14851	895637.360163532057	0
1	14859	895960.099636596911	219.52776326786
1	14876	896890.068331587663	0
1	14888	897143.50598963547	216.01901010288
1	14893	897450.573504909163	512.60492829351
1	14910	898300.939539117547	0
1	14924	898576.075871087906	268.15319388814
1	14929	898899.1246775487	574.82326776044
1	14999	901894.295002526713	160.25270586144
1	15008	902181.707898282975	288.33353052726
1	15013	902485.668379658057	499.95905666138
1	15036	904911.41619981679	0
1	15053	905787.392755711871	164.70423017189
1	15070	906847.917459640838	0
1	15097	909906.772083439621	0
1	15114	910789.767374056261	0
1	15123	911673.442952404572	0
1	15146	912565.266204496569	170.30981767752
1	15154	912863.100783402133	448.48974771171
1	15160	913145.571232344859	701.20721465669
1	15168	913457.223564909799	868.75883394634
1	15185	914077.277821062385	311.98314735458
1	15198	914974.679409232505	0
1	15240	916847.864356492329	246.72844496996
1	15266	918133.81541966141	0
1	15274	918630.530550873149	0
1	15282	918998.402672122829	0
1	15300	920060.832831144807	0
1	15334	922714.683455665381	0
1	15343	923224.144530328995	0
1	15361	925555.773279485854	0
1	15386	926751.660714229787	0
1	15395	927524.903605642869	0
1	15404	928496.041562598926	0
1	15415	928795.95565014824	189.09673679411
1	15429	929411.318972904644	0
1	15437	929732.667814927833	0
1	15449	930077.186732456939	78.286311567462
1	15479	931722.607845807212	0
1	15513	933054.343122920167	235.36095457284
1	15530	934548.073082621834	0
1	15547	935540.04511852972	0
1	15555	935899.489737028157	0
1	15573	937020.058922609692	0
1	15581	937424.215376054296	0
1	15615	939727.688993306138	0
1	15651	943235.286612147821	208.82320124548
1	15671	947455.407268763528	0
1	15681	949027.329689830129	0
1	15689	949505.11794706544	0
2	861	51935.17190753417	1
2	863	51935.17190753417	0
2	875	52799.717069855356	1
2	880	52852.984826492586	0
2	887	53224.385567437813	1
2	889	53224.385567437813	0
2	910	55574.899383205871	1
2	913	55593.950477557408	2
2	918	55863.167358424811	1
2	927	56153.839405829801	0
2	940	58083.261444780442	1
2	942	58083.261444780442	0
2	962	59242.620278701234	1
2	967	59414.679596491766	0
2	970	59446.963794870205	1
2	975	59717.384686930197	0
2	982	60659.909847961197	1
2	984	60659.909847961197	0
2	991	61120.431862974608	1
2	993	61120.431862974608	0
2	996	61204.290932783841	1
2	1002	61320.123264746048	2
2	1007	61391.247671575865	1
2	1010	61634.980072184715	2
2	1015	61724.249762265674	1
2	1018	61837.231508599387	2
2	1024	62005.772036441585	1
2	1032	62309.66172928731	0
2	1054	63266.804108520335	1
2	1059	63486.185064248411	0
2	1065	63556.970868360408	1
2	1068	63630.646256394231	2
2	1076	63795.100932494372	1
2	1082	64081.018700157474	0
2	1110	65133.61914224499	1
2	1113	65381.092929558091	2
2	1118	65388.638241932414	1
2	1126	65696.020486312651	0
2	1129	65868.913416415384	1
2	1135	66016.303871872081	0
2	1207	69466.633708904309	1
2	1209	69466.633708904309	0
2	1215	69815.396351316825	1
2	1217	69815.396351316825	0
2	1224	70663.351288122752	1
2	1226	70663.351288122752	0
2	1229	70950.881346286192	1
2	1234	70962.232703838526	0
2	1238	71081.986184847135	1
2	1241	71084.982699362741	2
2	1246	71260.312568200974	1
2	1249	71524.486184296367	2
2	1254	71582.514168345411	1
2	1257	71876.008699450396	2
2	1262	71884.841533026859	1
2	1268	72177.661721950095	0
2	1279	72626.835926187343	1
2	1284	72774.479261407401	0
2	1287	72818.040114602881	1
2	1296	73021.649293848366	0
2	1346	75358.177821115491	1
2	1354	75540.090645966712	0
2	1374	76279.731696796191	1
2	1379	76429.795423005184	0
2	1387	76910.215737653215	1
2	1393	77030.481733084585	0
2	1399	77657.63707107571	1
2	1401	77657.63707107571	0
2	1404	77689.452812518725	1
2	1409	77997.896005182391	0
2	1421	78615.211335393524	1
2	1426	78875.260486858931	0
2	1438	79411.018881524604	1
2	1446	79611.328380864675	0
2	1475	81153.00595841774	1
2	1477	81153.00595841774	0
2	1483	81496.012415060596	1
2	1485	81496.012415060596	0
2	1527	85735.853587852374	1
2	1529	85735.853587852374	0
2	1536	86500.332193900345	1
2	1538	86500.332193900345	0
2	1546	88236.711989147503	1
2	1548	88236.711989147503	0
2	1551	88293.099749769408	1
2	1556	88563.89848094139	0
2	1580	90815.202145049023	1
2	1582	90815.202145049023	0
2	1602	91667.93782236294	1
2	1607	91852.572954194144	0
2	1614	92421.577499348597	1
2	1616	92421.577499348597	0
2	1650	96005.972289730456	1
2	1652	96005.972289730456	0
2	1655	96137.754442784567	1
2	1658	96207.819054963214	2
2	1663	96295.898256107736	1
2	1668	96609.438454050215	0
2	1676	98617.678580917956	1
2	1678	98617.678580917956	0
2	1681	98766.600740936741	1
2	1686	98890.425471772763	0
2	1709	99906.007071806329	1
2	1711	99906.007071806329	0
2	1718	100187.719337650695	1
2	1723	100190.00328123533	0
2	1770	104459.054231632994	1
2	1772	104459.054231632994	0
2	1779	105199.754592789277	1
2	1781	105199.754592789277	0
2	1788	106023.084377412	1
2	1790	106023.084377412	0
2	1797	107228.289989675428	1
2	1799	107228.289989675428	0
2	1805	107435.008123059314	1
2	1810	107509.347455007741	0
2	1822	108139.455978177324	1
2	1824	108139.455978177324	0
2	1847	109757.545768655001	1
2	1849	109757.545768655001	0
2	1852	109805.187758495705	1
2	1858	110025.000996932233	0
2	1872	110746.136093645891	1
2	1877	110879.728884922426	0
2	1924	114898.161481326363	1
2	1926	114898.161481326363	0
2	1933	115450.447171657826	1
2	1935	115450.447171657826	0
2	1942	116746.683051518308	1
2	1944	116746.683051518308	0
2	1978	120727.925767942639	1
2	1980	120727.925767942639	0
2	1999	125793.677997489757	1
2	2001	125793.677997489757	0
2	2009	127053.345970032996	1
2	2011	127053.345970032996	0
2	2017	127975.748067162196	1
2	2019	127975.748067162196	0
2	2026	128942.439723943702	1
2	2028	128942.439723943702	0
2	2049	130286.139559822437	1
2	2052	130320.381413183864	2
2	2057	130346.451442314074	1
2	2062	130629.478920715274	0
2	2092	133449.514417769001	1
2	2097	133498.693263728538	0
2	2109	134006.924631853532	1
2	2114	134201.557201524621	0
2	2127	136598.543224425531	1
2	2132	136618.216031760818	0
2	2135	136651.939864921756	1
2	2143	136861.284777376232	0
2	2155	137983.618752971006	1
2	2157	137983.618752971006	0
2	2165	139375.416472230527	1
2	2167	139375.416472230527	0
2	2178	139711.102422730941	1
2	2181	139859.093235992323	2
2	2184	139875.871518602407	3
2	2190	140004.001350919009	2
2	2195	140315.768204635298	1
2	2206	140623.234900325438	0
2	2209	140766.458234661097	1
2	2214	140901.365560485328	0
2	2228	141625.583584798233	1
2	2233	141731.659759172632	0
2	2262	143344.356064561423	1
2	2271	143565.767179053249	2
2	2276	143570.297927395943	1
2	2281	143876.698121781609	0
2	2290	144393.043483851343	1
2	2293	144439.787553503003	2
2	2298	144457.365359192308	1
2	2303	144744.419397539974	0
2	2324	146091.527591428205	1
2	2326	146091.527591428205	0
2	2329	146385.877850482104	1
2	2334	146387.624563046485	0
2	2337	146402.865066254637	1
2	2348	146694.194941630004	0
2	2373	147694.410799146182	1
2	2378	147999.643890835375	0
2	2425	151469.664538571004	1
2	2427	151469.664538571004	0
2	2430	151487.28017965105	1
2	2435	151779.737185635664	0
2	2452	154544.973947098513	1
2	2457	154699.494368036917	0
2	2460	154943.14124359638	1
2	2466	155012.68076227652	0
2	2478	156786.464998871908	1
2	2480	156786.464998871908	0
2	2505	159285.204445332965	1
2	2507	159285.204445332965	0
2	2529	162304.411135314304	1
2	2534	162305.444969048024	0
2	2540	162668.029958384384	1
2	2542	162668.029958384384	0
2	2550	164188.448063228393	1
2	2552	164188.448063228393	0
2	2555	164394.446700203031	1
2	2560	164501.67490635007	0
2	2567	165139.820306278901	1
2	2569	165139.820306278901	0
2	2601	167416.049730456371	1
2	2603	167416.049730456371	0
2	2610	168066.664374028252	1
2	2612	168066.664374028252	0
2	2615	168111.192096224994	1
2	2626	168370.081766806583	0
2	2629	168593.878874845121	1
2	2632	168601.823962917876	2
2	2637	168657.984313173729	1
2	2642	168967.288900204796	0
2	2651	169259.27856366067	1
2	2656	169612.61432912055	0
2	2668	170376.034617074786	1
2	2670	170376.034617074786	0
2	2679	170683.449473936629	1
2	2684	170688.984728465782	0
2	2704	171433.408189736355	1
2	2709	171571.244231810052	0
2	2726	172340.737417022996	1
2	2734	172425.60690018888	0
2	2742	172828.75923633164	1
2	2747	172951.709858605798	0
2	2764	173619.719004791271	1
2	2769	173832.396818082948	0
2	2792	174841.275579184296	1
2	2794	174841.275579184296	0
2	2797	174862.265143661861	1
2	2800	174890.854980693063	2
2	2806	175194.98139160973	1
2	2811	175509.50358742712	0
2	2817	175981.123258011792	1
2	2819	175981.123258011792	0
2	2826	176182.277831635953	1
2	2834	176270.552491563594	0
2	2890	179249.067516391118	1
2	2895	179379.025473360934	0
2	2901	179640.189694045243	1
2	2906	179643.74875744769	0
2	2918	180415.628641970403	1
2	2920	180415.628641970403	0
2	2928	182068.549381185954	1
2	2930	182068.549381185954	0
2	2944	182613.806520218563	1
2	2949	182845.259407505827	0
2	2961	183308.193674638497	1
2	2964	183314.308096700274	2
2	2969	183458.108616578182	1
2	2972	183577.722375522145	2
2	2977	183807.69022132659	1
2	2983	184077.846575458459	0
2	3003	185789.582046958243	1
2	3005	185789.582046958243	0
2	3052	189210.995255225064	1
2	3057	189382.950957927201	0
2	3063	189860.637895356108	1
2	3065	189860.637895356108	0
2	3074	192119.198270427511	1
2	3076	192119.198270427511	0
2	3090	192793.874382100863	1
2	3092	192793.874382100863	0
2	3104	193106.704585911892	1
2	3109	193386.638716545437	0
2	3116	194905.224838916138	1
2	3118	194905.224838916138	0
2	3121	194943.439813321763	1
2	3130	195191.658641976479	0
2	3141	195662.378123344583	1
2	3149	195797.922914710123	0
2	3167	197049.052233593982	1
2	3169	197049.052233593982	0
2	3175	197729.150445473946	1
2	3177	197729.150445473946	0
2	3197	198592.207545397527	1
2	3202	198699.37633626889	0
2	3205	198744.922004196175	1
2	3211	198924.585951437588	2
2	3216	198974.928805836773	1
2	3222	199283.053411826432	0
2	3233	199855.100085314537	1
2	3235	199855.100085314537	0
2	3250	200421.851252808024	1
2	3252	200421.851252808024	0
2	3259	201131.748564360919	1
2	3261	201131.748564360919	0
2	3284	202023.116416282166	1
2	3292	202177.713011135827	0
2	3334	204531.212132101037	1
2	3336	204531.212132101037	0
2	3351	205536.231815694487	1
2	3353	205536.231815694487	0
2	3359	205807.128776883408	1
2	3361	205807.128776883408	0
2	3368	206123.62443945349	1
2	3370	206123.62443945349	0
2	3376	206476.414417257388	1
[...]
7	9989	591074.189170897776	2
7	9992	591207.647739349498	1
7	10000	591432.908424266891	0
7	10024	593091.907524457664	1
7	10033	594171.667950393063	2
7	10036	596007.420015253208	1
7	10045	596620.151868681211	0
7	10062	599440.909214600605	1
7	10076	599951.31000920858	2
7	10082	600250.305176220162	3
7	10087	600507.597867009496	4
7	10098	600782.385339106349	5
7	10104	601079.931425462699	6
7	10107	602136.701228852269	5
7	10115	602243.745800584048	4
7	10127	602720.48693377856	5
7	10136	603026.706875013455	6
7	10140	603176.246424710834	5
7	10143	603266.251457021244	4
7	10146	603311.500257196307	3
7	10150	603334.476242946278	4
7	10163	603980.35222698311	5
7	10176	604340.528855138793	4
7	10183	604589.170200689348	5
7	10188	604872.749883259314	6
7	10198	605326.238443290302	5
7	10211	605860.228896316595	4
7	10214	605983.660297130646	3
7	10231	606559.170922692942	2
7	10235	606734.094437169136	3
7	10253	607440.980733199389	2
7	10266	607648.214184960096	3
7	10270	607912.648291869315	2
7	10274	607979.351750855993	3
7	10280	608297.849787639397	4
7	10285	608637.94454906004	5
7	10298	609397.37971120258	4
7	10313	610027.846456382347	5
7	10315	610125.839724126797	4
7	10320	610251.191921869848	3
7	10338	611107.962317116667	4
7	10340	611118.038617729608	3
7	10345	611294.879728542011	2
7	10358	613417.43280736388	1
7	10363	613439.657796398348	0
7	10379	614047.130673643846	1
7	10384	614363.276984915299	2
7	10402	616522.924114642931	3
7	10406	616645.346061894793	2
7	10410	616812.773609310937	3
7	10417	616987.007026559122	2
7	10427	617416.340647906886	3
7	10441	618023.454517481379	4
7	10450	619027.239216909261	5
7	10452	619109.157530643901	4
7	10460	619836.344350976151	3
7	10469	620113.765939243758	2
7	10483	621195.26029878425	1
7	10487	621276.184470155823	2
7	10495	622156.441544905461	1
7	10509	622748.663987275474	2
7	10518	623746.715218054054	3
7	10520	623921.398079082896	2
7	10530	625104.325691651877	1
7	10546	625993.106413941706	0
7	10551	626109.312275573441	1
7	10556	626457.756203609476	2
7	10570	628618.182911054654	1
7	10574	628722.324270136305	2
7	10582	629138.676076055478	1
7	10598	631114.678294403798	2
7	10600	631827.829400109627	1
7	10615	632501.390362522715	2
7	10624	633018.603498882413	3
7	10626	633599.398039528704	2
7	10641	634201.166221716697	3
7	10649	634969.515139594714	4
7	10652	635067.546095578176	3
7	10660	635779.221232092221	2
7	10675	636363.059881349826	3
7	10682	636654.980699998775	2
7	10686	636898.366919605505	3
7	10694	637944.346507062162	2
7	10709	638549.927778459044	3
7	10712	639353.155557558852	2
7	10725	639759.33616154338	1
7	10729	639981.268116855775	2
7	10743	640518.599412803271	3
7	10746	641251.767509800146	2
7	10760	641790.119675764132	3
7	10769	642200.522174903625	4
7	10777	642552.690355285477	5
7	10779	642993.988814967662	4
7	10785	643036.183840613188	3
7	10802	643831.840840826005	4
7	10811	644503.629487785697	5
7	10813	644888.217700941667	4
7	10818	644989.487351369511	3
7	10822	645200.432910776752	2
7	10839	646153.262038624085	1
7	10856	646786.600248486749	2
7	10861	647065.587669296484	1
7	10865	647068.012748462796	2
7	10882	648440.517630364841	3
7	10887	648719.271619011742	4
7	10890	649530.603482025351	3
7	10895	649576.017383759417	2
7	10908	650121.554959932962	3
7	10924	650761.836953479749	4
7	10932	651022.547516335594	3
7	10936	651073.723872672443	4
7	10941	651391.535983625248	5
7	10948	651481.063910749866	4
7	10961	652015.939011083586	5
7	10966	652287.917260173822	6
7	10970	652398.708363541865	5
7	10991	653178.202197529674	6
7	10996	653490.207138774305	7
7	10998	653651.675785927397	6
7	11003	653905.825661779273	5
7	11011	654004.300694463726	4
7	11023	654553.369131126159	3
7	11028	654554.692768685939	2
7	11040	655817.626821087654	1
7	11058	656659.423049269651	2
7	11062	656741.036659468703	1
7	11066	656920.137994694509	2
7	11076	659594.404118402447	1
7	11081	659671.632746752444	0
7	11099	660994.362825971356	1
7	11108	661373.90730973269	2
7	11117	662226.081292408697	3
7	11129	663484.521507382229	4
7	11133	663643.151184225348	3
7	11137	663778.184839233936	4
7	11141	663999.304549606424	3
7	11161	664696.100936969412	2
7	11168	664746.633942863626	3
7	11174	665042.425134459184	4
7	11182	665338.743766636847	5
7	11187	665690.145510008316	6
7	11200	666142.705685785627	5
7	11204	666369.221112094636	6
7	11211	666431.796620015474	5
7	11226	666969.813196773957	6
7	11232	667289.323690988877	7
7	11236	667509.105882976187	6
7	11240	667570.311733495559	7
7	11253	668182.062499871639	6
7	11261	668564.379031692256	5
7	11266	668585.729796222996	4
7	11278	669089.416982111065	3
7	11286	669182.687895485177	2
7	11290	669466.016194356552	3
7	11299	669807.470148714241	2
7	11316	670570.470210670044	1
7	11320	670694.449460172918	2
7	11334	671323.800029156145	3
7	11342	672210.380770447056	2
7	11349	672236.386131778342	3
7	11354	672558.278637952434	4
7	11367	673268.833453065416	3
7	11371	673453.098769472091	4
7	11379	674060.391897434053	3
7	11393	674702.285889263943	4
7	11395	674778.325876033648	3
7	11413	675396.097850400078	4
7	11421	675696.4439271418	5
7	11428	675824.277462198551	4
7	11432	675987.881279609525	5
7	11437	676178.553175845656	4
7	11441	676271.101659959396	5
7	11459	677435.689372967402	4
7	11463	677439.603861926016	5
7	11475	677746.032789291616	4
7	11482	678002.029023246366	5
7	11487	678315.87800336838	4
7	11491	678335.446017362768	5
7	11500	678914.91560298502	4
7	11508	678921.439235759195	3
7	11526	680020.718725932388	2
7	11530	680047.959618058841	3
7	11543	680597.86130575939	4
7	11546	681125.631902419544	3
7	11551	681419.943567581144	2
7	11564	683186.177928407594	1
7	11569	683256.624612596171	0
7	11581	683738.722186678915	1
7	11595	684793.327275683367	2
7	11607	685237.835623417928	3
7	11612	685545.912721220629	4
7	11615	686839.414706352543	3
7	11624	687036.151976462043	2
7	11633	687427.166715534754	3
7	11641	688179.002451312934	2
7	11649	688447.579247031839	1
7	11658	688753.565028462706	2
7	11681	690040.581148223159	1
7	11685	690179.382156829854	2
7	11690	690427.678238747399	3
7	11695	690698.12351302807	4
7	11703	691002.821230975109	5
7	11709	691247.791390455295	6
7	11713	691313.008941016988	5
7	11725	691882.380046424033	6
7	11734	693203.303117178663	5
7	11739	693244.427860354249	4
7	11750	693584.907411864574	3
7	11753	693702.596408837225	2
7	11757	693787.641085199953	3
7	11761	693827.396482089073	2
7	11775	694394.060770339863	1
7	11798	695825.050551360237	2
7	11807	696825.28941206157	3
7	11809	697006.02248049327	2
7	11824	697521.241408261906	3
7	11827	698298.730381694827	2
7	11841	698884.941076126597	3
7	11845	700058.643092489748	2
7	11853	700437.821196042065	1
7	11868	701135.069015756702	2
7	11870	701959.097215398406	1
7	11888	702570.72008536314	2
7	11896	702886.361489768033	3
7	11905	703204.831901241073	4
7	11913	703511.034034429294	5
7	11918	703791.417431323996	6
7	11920	703872.62960629371	5
7	11930	705231.42204617217	4
7	11935	705287.496306233271	3
7	11946	705940.733147835868	2
7	11951	706003.479584012576	1
7	11955	706200.389007890425	0
7	11982	708625.004683377911	1
7	11987	708884.510452864696	2
7	11997	710035.282502896644	3
7	12000	711358.871874309167	2
7	12008	711475.375996446992	1
7	12017	711909.974696585191	2
7	12034	712533.641669963108	3
7	12038	712637.942376783623	2
7	12042	712792.277009089445	3
7	12059	713397.152512671007	4
7	12064	713640.045484834733	5
7	12067	714380.583631417062	4
7	12081	715077.747279318755	3
7	12085	715146.576812984051	4
7	12097	715533.263411556616	3
7	12101	715766.907867581732	4
7	12109	716310.525662422052	3
7	12114	716435.190158715007	2
7	12132	717424.082708777223	3
7	12139	717813.223532027022	2
7	12143	717830.333032228413	3
7	12148	718179.545551495504	2
7	12166	719185.874343073424	3
7	12177	719675.414812676711	4
7	12182	719976.526852571007	5
7	12185	720295.889325820873	4
7	12190	720438.545475640108	3
7	12211	721505.228058177809	4
7	12215	721689.190345214956	3
7	12219	721822.062848256525	4
7	12227	722352.0446244898	3
7	12235	722845.1140672887	2
7	12245	724463.906571507207	1
7	12250	724678.419000755964	0
7	12268	725296.464925590409	1
7	12272	727741.924320336328	0
7	12290	731360.818007338433	1
7	12300	733291.501219960256	2
7	12302	733685.699917922529	1
7	12317	734317.008019051226	2
7	12326	735037.696428628074	3
7	12334	735866.168408098293	4
7	12337	736067.211926946541	3
7	12351	736862.518865341068	4
7	12354	737187.235705716068	3
7	12362	737898.723467767836	2
7	12377	738511.582387132818	3
7	12380	739120.146337623353	2
7	12394	739663.599501027999	3
7	12396	739691.606430437501	2
7	12405	740589.743291232211	1
7	12423	741430.014095855471	2
7	12428	741730.118150182961	3
7	12437	742089.650905901329	4
7	12439	742767.809070041504	3
7	12457	743978.482005182051	4
7	12462	744092.668934193377	3
7	12466	744243.505466494257	4
7	12473	744716.180730692167	3
7	12487	745018.095658795228	2
7	12491	745239.78961495548	3
7	12505	746273.106983817294	4
7	12507	746779.947889449153	3
7	12512	746894.812149516921	2
7	12524	747905.628766760366	1
7	12534	749126.279217918027	0
7	12551	749799.78961161067	1
7	12560	750063.010464078692	2
7	12565	750343.816896771717	3
7	12574	751619.544305078728	4
7	12577	752586.78639551637	3
7	12582	752668.187552675234	2
7	12585	752776.52340736562	1
7	12608	754287.355155462844	0
7	12612	754370.038096081211	1
7	12625	754998.155307718532	2
7	12641	756369.814651281437	3
7	12649	756670.958448729276	4
7	12653	756831.247598464719	3
7	12657	756977.896244762049	4
7	12669	757266.644827901877	5
7	12674	757594.015257518073	6
7	12681	757824.196594029722	5
7	12685	757911.486648587981	6
7	12691	758204.83665264185	7
7	12703	758721.476341995448	6
7	12719	759204.337975223259	7
7	12723	759216.683166331821	6
7	12727	759482.495660265733	7
7	12731	759516.658963318999	6
7	12734	759667.778003870001	5
7	12738	759760.17978076916	6
7	12748	760059.132166363066	5
7	12756	760570.759576700484	4
7	12759	760623.670848013605	3
7	12795	762116.808220151692	2
7	12798	762225.305986752549	1
7	12805	762314.028992887112	2
7	12809	762402.007205483544	1
7	12813	762594.305130234858	2
7	12818	762900.700009570487	3
7	12843	764366.133361803991	4
7	12846	765087.294827466091	3
7	12851	765169.327462335672	2
7	12862	765898.19995164717	1
7	12877	766517.903946918349	2
7	12879	766521.411554782625	1
7	12898	768781.140630742051	2
7	12904	769068.250023985649	3
7	12906	769400.07355027884	2
7	12921	770319.306106160046	3
7	12929	771093.982145521364	2
7	12933	771262.471294759154	3
7	12940	771830.031500501575	2
7	12949	772987.276492277236	1
7	12959	774175.34890771705	0
7	12974	775791.06450405182	1
7	12983	776309.240747975581	2
7	12991	776714.147988146252	3
7	13000	777227.409104732246	4
7	13003	778731.494735458089	3
7	13012	779246.268650958896	2
7	13017	779410.901808513877	1
7	13025	779782.052589672032	0
7	13043	780351.15655914324	1
7	13055	781803.392314407074	2
7	13061	782052.757361054447	3
7	13070	783178.924598959869	4
7	13072	783297.925700739442	3
7	13081	784518.231502751959	2
7	13090	785223.173962232258	1
7	13104	785902.593381361829	2
7	13106	785962.185411695156	1
7	13117	788105.254160999906	0
7	13131	788780.012760116807	1
7	13140	789710.969325645011	2
7	13149	790166.815314495305	3
7	13152	791416.496514293316	2
7	13166	792372.144418692927	1
7	13170	792479.028505722843	2
7	13185	792976.238285580862	1
7	13190	793136.274532854974	2
7	13195	793438.981321158227	3
7	13209	794074.186201043761	4
7	13217	795470.926682017979	3
7	13221	795628.965665391231	4
7	13225	795674.075371359447	3
7	13238	796277.269870836225	4
7	13242	796493.851615390363	3
7	13250	796745.527482482255	2
7	13277	798378.914002132004	1
7	13281	798420.077677039214	2
7	13286	798702.612743826914	3
7	13290	798823.18463877979	2
7	13294	798988.621696873789	3
7	13300	799296.012503970643	4
7	13319	800486.904796314969	5
7	13327	800959.422488792785	6
7	13330	801098.006751328149	5
7	13343	801546.141572576252	4
7	13346	801557.04734477428	3
7	13349	801590.556515210693	2
7	13353	801739.461136190053	3
7	13370	802318.172058367358	4
7	13378	802624.16229329903	5
7	13383	802846.060507912384	6
7	13393	803258.517022669161	5
7	13404	803726.783438143339	4
7	13408	803733.837497604244	5
7	13421	804275.594257129547	4
7	13430	804641.77687206331	5
7	13438	805209.174876740621	4
7	13446	805743.300495754987	3
7	13451	805763.389273689295	2
7	13454	806002.210331834522	1
7	13481	807126.023908207545	2
7	13486	807433.121193076338	3
7	13488	807657.827850396565	2
7	13503	808825.60558183531	3
7	13511	809870.812136082135	2
7	13516	810050.97028597756	3
7	13520	810085.15137171894	2
7	13540	810937.169082961416	3
7	13546	811223.705661694393	4
7	13555	812049.220510502475	5
7	13557	812136.571818770049	4
7	13570	812757.881652930856	3
7	13574	812976.580815573863	4
7	13582	813467.367673824758	3
7	13590	813989.569771230935	2
7	13596	814135.704753013849	1
7	13616	815703.199678420545	0
7	13620	815753.590916870913	1
7	13629	816044.129486248651	2
7	13634	816356.317247837492	3
7	13647	817010.149876240054	4
7	13659	817778.408727884771	5
7	13665	818022.095390939278	6
7	13672	818666.932385422016	5
7	13676	818736.878618059144	6
7	13680	818795.412173660993	5
7	13689	819032.838632353282	4
7	13692	819169.786416987549	3
7	13709	820602.67190374515	2
7	13714	820677.280826082199	1
7	13727	821166.225590876471	2
7	13739	821642.293013359263	1
7	13743	821834.555699901999	2
7	13760	822416.136178319181	3
7	13765	822805.145931304373	4
7	13776	823618.047282057017	3
7	13780	823622.537439976507	4
7	13788	823897.170109819488	5
7	13794	824126.836107952438	6
7	13801	824713.04825416129	5
7	13810	825165.513266676467	4
7	13815	825294.872605162355	3
7	13827	826502.772854295416	2
7	13832	826672.587045019571	1
7	13835	826798.166381557771	0
7	13853	827467.220656550012	1
7	13867	828613.094959869297	2
7	13876	829078.312943220067	3
7	13884	829798.749159049278	4
7	13893	830067.416336118732	5
7	13895	830365.101395319383	4
7	13904	831564.154921399722	3
7	13912	831951.810000938248	2
7	13926	832570.342205914041	1
7	13930	832672.60233844157	2
7	13934	832693.649949601488	1
7	13953	834281.571864223234	2
7	13956	835780.854350571156	1
7	13971	836519.682196665575	2
7	13979	836908.875138598547	3
7	13991	837308.523134651069	4
7	13995	837390.4322831583	3
7	13999	837633.493878817528	4
7	14013	838194.51705219017	5
7	14016	839256.668121710533	4
7	14021	839336.21457394799	3
7	14032	839753.128929944975	2
7	14036	839859.614697935504	3
7	14049	840231.309342383162	2
7	14053	840431.9245410722	3
7	14065	840967.225148518484	2
7	14075	841299.609729306323	3
7	14088	841912.492762292476	4
7	14091	842733.231351342936	3
7	14100	843149.095606027871	2
7	14115	844294.289059341453	3
7	14117	844319.998919976308	2
7	14130	844771.12955220448	1
7	14134	844951.840794206275	2
7	14151	845635.932963583506	3
7	14159	845975.675537848149	4
7	14165	846260.054980405096	5
7	14172	846589.288877758479	4
7	14176	846775.526066406514	5
7	14184	847676.966383594582	4
7	14199	848345.924070707285	5
7	14201	848510.062678928146	4
7	14214	848930.896186356279	3
7	14222	849140.769674635563	4
7	14229	849229.441001426133	3
7	14232	849246.097014178569	2
7	14239	849440.203533105058	3
7	14244	849709.870491317913	4
7	14253	850024.864270775298	5
7	14261	850317.57825099196	6
7	14266	850611.118264178375	7
7	14281	851269.054154475438	6
7	14284	851418.428626833773	5
7	14292	851715.974363965177	4
7	14300	851906.507178646765	3
7	14317	852774.999504322372	2
7	14322	852998.540670299681	1
7	14331	853199.733902345878	0
7	14349	854035.128996791132	1
7	14354	857068.124160978359	0
7	14369	858490.951459489379	1
7	14381	859605.151877827286	2
7	14386	859923.812444978623	3
7	14390	861279.840116325692	2
7	14404	862453.697743544893	1
7	14407	862460.962279191072	0
7	14411	862587.819850360262	1
7	14430	863530.085586322955	2
7	14434	865039.987252936823	1
7	14448	865566.767998061417	2
7	14451	866284.520937793322	1
7	14465	866856.289457617398	2
7	14474	867931.488109210101	3
7	14477	868528.211962856039	2
7	14492	869021.375401776261	3
7	14495	870066.454143779881	2
7	14503	870583.539144510175	1
7	14512	871386.460404900643	0
7	14530	872029.428098179721	1
7	14538	872373.856745590367	2
7	14543	872667.063902448663	3
7	14556	874213.784574495722	4
7	14564	874487.2803839608	5
7	14568	874518.608398965903	4
7	14572	874786.483307999588	5
7	14577	875067.194341774065	4
7	14585	875345.840783357627	3
7	14603	876415.983191575569	4
7	14605	876884.712637228821	3
7	14614	877242.802811552455	2
7	14622	877471.627106613671	1
7	14631	877888.414810448983	2
7	14640	879447.780869758997	1
7	14649	880245.033334472288	0
7	14663	880879.96076096977	1
7	14674	883185.657764062354	2
7	14676	883313.515994860131	1
7	14692	885263.006861403379	2
7	14700	886632.865314789375	1
7	14704	886724.807277907532	2
7	14713	888133.574852475769	1
7	14730	888743.867901798625	2
7	14734	888790.760989160265	1
7	14738	888990.85550840714	2
7	14753	890692.3486087971	3
7	14762	891075.650392655571	4
7	14764	891200.357619784121	3
7	14769	891442.891973952448	2
7	14790	892081.105341492455	3
7	14795	892391.885941576109	4
7	14804	893426.694648577507	5
7	14806	893465.860195462572	4
7	14814	893801.726615906102	3
7	14823	894532.338117730543	2
7	14837	895040.652983912667	1
7	14841	895060.355502760862	2
7	14857	895960.099636596911	3
7	14863	896263.746793630965	4
7	14865	896353.660299465799	3
7	14886	897143.50598963547	4
7	14891	897450.573504909163	5
7	14896	897744.44196408771	6
7	14898	897965.666977496597	5
7	14918	898442.573236967197	4
7	14922	898576.075871087906	5
7	14927	898899.1246775487	6
7	14932	899037.665715344499	5
7	14936	899180.361942376766	6
7	14945	899694.676063939835	5
7	14957	900358.935643990686	4
7	14962	900430.554864463626	3
7	14974	901320.459845593538	2
7	14979	901576.658403580116	1
7	14990	901798.958957483328	0
7	15006	902181.707898282975	1
7	15011	902485.668379658057	2
7	15016	902769.400293493626	3
7	15025	904448.050879685862	2
7	15040	905196.903648041347	3
7	15042	905455.032794979383	2
7	15055	905905.775725502517	1
7	15060	906068.490255682231	2
7	15074	907136.585922490189	3
7	15077	908237.237940322201	2
7	15086	909060.737806908334	1
7	15100	910071.801224730235	0
7	15104	910233.823681790983	1
7	15118	911082.53917032588	2
7	15126	911988.615362469444	3
7	15129	912274.190288616064	2
7	15152	912863.100783402133	3
7	15158	913145.571232344859	4
7	15162	913407.712468948701	3
7	15166	913457.223564909799	4
7	15171	913761.164717706704	5
7	15178	913984.970413202836	4
7	15188	914396.363906711199	5
7	15202	915279.869835980486	6
7	15204	915661.993198274147	5
7	15209	915870.057141163089	4
7	15218	916031.545684970855	3
7	15221	916051.244330757396	2
7	15243	917023.991159524265	1
7	15247	917175.137617180712	2
7	15254	917724.798008000839	1
7	15269	918381.211181430642	2
7	15277	918909.231981063231	3
7	15286	919300.374255901655	4
7	15288	919641.041198396374	3
7	15303	920303.650776263492	4
7	15305	920659.661764002809	3
7	15314	921548.800384708375	2
7	15319	921801.826406718227	1
7	15337	923009.233012133784	2
7	15346	923551.975935034639	3
7	15348	923604.377245721291	2
7	15363	925816.580716057045	1
7	15367	925894.445032920476	2
7	15372	926059.636397380237	1
7	15390	927053.791350831974	2
7	15398	927793.861903000956	3
7	15406	928528.114923104417	2
7	15413	928795.95565014824	3
7	15419	929104.113061850748	4
7	15432	929712.985147518271	5
7	15439	929878.789187511022	4
7	15447	930077.186732456939	5
7	15452	930383.945549300957	6
7	15459	930785.465480531005	5
7	15464	930900.859611825757	4
7	15483	932034.514047586338	5
7	15485	932107.086427248582	4
7	15490	932128.735182523712	3
7	15501	932771.871884392177	2
7	15515	933167.462452463346	1
7	15519	933303.347950132137	2
7	15533	934898.39369722635	3
7	15536	935096.703696453142	2
7	15550	935894.21326196288	3
7	15559	936185.35515616391	4
7	15561	936350.614327953812	3
7	15576	937375.738235399815	4
7	15583	937459.308253954278	3
7	15587	937730.602628858479	4
7	15595	938183.426088464378	3
7	15603	938697.666593762275	2
7	15617	939865.332935614279	1
7	15622	940047.284421323561	2
7	15626	940127.048982926501	1
7	15639	942948.135211521176	0
7	15654	943612.634104371996	1
7	15659	946510.598983297207	0
7	15674	947695.533529475488	1
7	15684	949309.714154995676	2
7	15692	949811.038615118425	3
7	15695	950289.26688429489	2
