version 2
run QueueMeasurement-125-20170109-13:57:15-4478
attr configname QueueMeasurement
attr datetime 20170109-13:57:15
attr experiment QueueMeasurement
attr inifile queueStudy.ini
attr iterationvars ""
attr iterationvars2 $repetition=125
attr measurement ""
attr network controltower.SimNetwork
attr processid 4478
attr repetition 125
attr replication #125
attr resultdir results
attr runnumber 125
attr seedset 125
param SimNetwork.a.parkingLot.parkingDelay "truncnormal(45min, 5 min)"
param SimNetwork.a.runway.landingTime "truncnormal(5min, 0.5min)"
param SimNetwork.a.runway.takeoffTime "truncnormal(5min, 0.5min)"
param SimNetwork.a.runway.throughputCheckInterval 16.667min
param SimNetwork.wg.interArrivalTime exponential(16.667min)

statistic SimNetwork.wg 	responseTime:stats
field count 873
field mean 4796.0803098306
field stddev 1048.5577639197
field sum 4186978.1104821
field sqrsum 21039824064.464
field min 2987.338733357
field max 10297.734324067
attr source  responseTimeSignal
scalar SimNetwork.a.landingQueue 	queueLength:timeavg 	0.12399778432432
attr source  queueLengthSignal
statistic SimNetwork.a.landingQueue 	queueLength:stats
field count 1742
field mean 0.61481056257176
field stddev 0.61033502136374
field sum 1071
field sqrsum 1307
field min 0
field max 3
attr source  queueLengthSignal
statistic SimNetwork.a.landingQueue 	queueTime:stats
field count 872
field mean 128.3352364166
field stddev 153.11374875209
field sum 111908.32615527
field sqrsum 34781348.763699
field min 0
field max 841.17136234027
attr source  queueTimeSignal
scalar SimNetwork.a.takeoffQueue 	queueLength:timeavg 	0.32863162130179
attr source  queueLengthSignal
statistic SimNetwork.a.takeoffQueue 	queueLength:stats
field count 1744
field mean 0.86467889908257
field stddev 0.93140041021265
field sum 1508
field sqrsum 2816
field min 0
field max 6
attr source  queueLengthSignal
statistic SimNetwork.a.takeoffQueue 	queueTime:stats
field count 873
field mean 340.67522732929
field stddev 506.30817540022
field sum 297409.47345847
field sqrsum 324855468.49238
field min 0
field max 3173.8975988612
attr source  queueTimeSignal
scalar SimNetwork.a.parkingLot 	parkingOccupancy:timeavg 	2.610475965762
attr source  parkingOccupancy
statistic SimNetwork.a.parkingLot 	parkingOccupancy:stats
field count 1743
field mean 3.0694205393001
field stddev 1.6289925102929
field sum 5350
field sqrsum 21044
field min 0
field max 9
attr source  parkingOccupancy
