version 2
run QueueMeasurement-67-20170109-13:56:50-4360
attr configname QueueMeasurement
attr datetime 20170109-13:56:50
attr experiment QueueMeasurement
attr inifile queueStudy.ini
attr iterationvars ""
attr iterationvars2 $repetition=67
attr measurement ""
attr network controltower.SimNetwork
attr processid 4360
attr repetition 67
attr replication #67
attr resultdir results
attr runnumber 67
attr seedset 67
param SimNetwork.a.parkingLot.parkingDelay "truncnormal(45min, 5 min)"
param SimNetwork.a.runway.landingTime "truncnormal(5min, 0.5min)"
param SimNetwork.a.runway.takeoffTime "truncnormal(5min, 0.5min)"
param SimNetwork.a.runway.throughputCheckInterval 16.667min
param SimNetwork.wg.interArrivalTime exponential(16.667min)

statistic SimNetwork.wg 	responseTime:stats
field count 884
field mean 4709.9630250031
field stddev 978.54236528649
field sum 4163607.3141027
field sqrsum 20455948876.92
field min 2970.5307347288
field max 9387.8782876358
attr source  responseTimeSignal
scalar SimNetwork.a.landingQueue 	queueLength:timeavg 	0.12098127907072
attr source  queueLengthSignal
statistic SimNetwork.a.landingQueue 	queueLength:stats
field count 1776
field mean 0.61261261261261
field stddev 0.6141420111395
field sum 1088
field sqrsum 1336
field min 0
field max 4
attr source  queueLengthSignal
statistic SimNetwork.a.landingQueue 	queueTime:stats
field count 888
field mean 122.54668259628
field stddev 157.18058714122
field sum 108821.4541455
field sqrsum 35249696.896824
field min 0
field max 1239.7521160344
attr source  queueTimeSignal
scalar SimNetwork.a.takeoffQueue 	queueLength:timeavg 	0.25966607107772
attr source  queueLengthSignal
statistic SimNetwork.a.takeoffQueue 	queueLength:stats
field count 1770
field mean 0.74406779661017
field stddev 0.76270572176474
field sum 1317
field sqrsum 2009
field min 0
field max 4
attr source  queueLengthSignal
statistic SimNetwork.a.takeoffQueue 	queueTime:stats
field count 884
field mean 262.45287629538
field stddev 388.53028468109
field sum 232008.34264512
field sqrsum 194185212.45873
field min 0
field max 2676.6474209438
attr source  queueTimeSignal
scalar SimNetwork.a.parkingLot 	parkingOccupancy:timeavg 	2.6674583528007
attr source  parkingOccupancy
statistic SimNetwork.a.parkingLot 	parkingOccupancy:stats
field count 1773
field mean 3.1652566271856
field stddev 1.622809307896
field sum 5612
field sqrsum 22430
field min 0
field max 8
attr source  parkingOccupancy
