version 2
run QueueMeasurement-6-20170109-13:56:19-4237
attr configname QueueMeasurement
attr datetime 20170109-13:56:19
attr experiment QueueMeasurement
attr inifile queueStudy.ini
attr iterationvars ""
attr iterationvars2 $repetition=6
attr measurement ""
attr network controltower.SimNetwork
attr processid 4237
attr repetition 6
attr replication #6
attr resultdir results
attr runnumber 6
attr seedset 6
param SimNetwork.a.parkingLot.parkingDelay "truncnormal(45min, 5 min)"
param SimNetwork.a.runway.landingTime "truncnormal(5min, 0.5min)"
param SimNetwork.a.runway.takeoffTime "truncnormal(5min, 0.5min)"
param SimNetwork.a.runway.throughputCheckInterval 16.667min
param SimNetwork.wg.interArrivalTime exponential(16.667min)

vector 0  SimNetwork.wg  responseTime:vector  ETV
attr source  responseTimeSignal
vector 2  SimNetwork.a.landingQueue  queueLength:vector  ETV
attr source  queueLengthSignal
vector 1  SimNetwork.a.landingQueue  queueTime:vector  ETV
attr source  queueTimeSignal
vector 7  SimNetwork.a.parkingLot  parkingOccupancy:vector  ETV
attr source  parkingOccupancy
vector 4  SimNetwork.a.takeoffQueue  queueLength:vector  ETV
attr source  queueLengthSignal
vector 5  SimNetwork.a.runway  landedThroughput:vector  ETV
attr source  landedThroughputSignal
vector 6  SimNetwork.a.runway  tookoffThroughput:vector  ETV
attr source  tookoffThroughputSignal
vector 3  SimNetwork.a.takeoffQueue  queueTime:vector  ETV
attr source  queueTimeSignal
0	841	50486.154041236935	3675.0794049549
0	869	51688.333105794098	4436.9039918298
0	934	54417.73566534653	3593.4442106682
0	953	55264.575079143898	7776.6878062912
0	961	55541.211457693511	4457.1737862333
0	978	56194.435046256274	3636.6148002702
0	986	56543.667118331941	3966.9012696717
0	994	56878.2932698426	5503.5265113415
0	1009	57165.737988169918	4458.4185615371
0	1022	57786.021781858603	4763.2132157054
0	1031	58097.085992840202	4477.3821104081
0	1036	58399.314326968473	4171.3656226788
0	1041	58710.115368154597	4340.8668785238
0	1076	61119.890257930666	5723.7568846652
0	1101	62787.734047171482	5815.3287689002
0	1116	63541.715549945825	3577.1463028564
0	1127	64200.422573380501	4809.3869858757
0	1138	64810.219620443644	3495.9026699805
0	1144	65089.246768062281	4581.3217309252
0	1180	66724.75610754744	4786.3068931211
0	1198	68484.1382040901	4964.380198328
0	1226	69317.852619578811	3587.9916645027
0	1256	70473.403244252593	5046.470277833
0	1261	70785.95657034695	4691.3995698252
0	1281	71548.611873132532	4907.5688912946
0	1286	71838.049772045341	3366.0552165622
0	1295	72223.322767347069	3580.4071452429
0	1303	72568.293949546827	3393.5465076038
0	1315	73140.057380056007	3700.0890804909
0	1337	74662.254963629276	4797.1574125774
0	1358	76285.795852319025	5407.9932072263
0	1363	76607.844439960949	3706.6188880399
0	1398	79248.172924113724	5918.1929148781
0	1412	79939.60641662452	4971.4356034108
0	1451	81429.439374844978	4567.4229302842
0	1456	81746.277987568977	4482.3020678697
0	1472	83076.072167045558	5150.8071999483
0	1485	83667.003760219216	3769.399403234
0	1490	83941.344294520968	4241.0276236516
0	1499	84263.214027153562	4200.09309423
0	1534	87145.903245235182	6801.1382744387
0	1553	87947.524392453581	5106.7227339076
0	1579	89557.259109754091	5241.7492414897
0	1584	89826.218519162523	3549.731084893
0	1613	91133.144062247003	3793.5064439409
0	1621	91395.605606118422	4929.3621666141
0	1635	92025.963942768512	4313.0951666524
0	1663	93213.177937391065	3317.5159634886
0	1668	93522.215230517434	4624.8827314438
0	1696	94689.839680160952	4754.7523047051
0	1710	95291.02830218593	3965.9705547883
0	1718	95992.68898834898	3691.8626514882
0	1728	97107.516496324301	4799.429954289
0	1739	97449.119246213038	3698.0992615513
0	1744	97719.030457885913	3694.6966641474
0	1791	101954.799665979556	7370.5004926268
0	1806	103227.774897978093	4731.7311081081
0	1814	103577.514389693986	3925.1897032538
0	1823	104295.734596130168	3436.147434499
0	1832	105246.453393294043	4274.3674951395
0	1875	108440.698319987969	6587.2686318145
0	1887	109227.287852312945	3955.7826218678
0	1892	109499.419745706591	3693.5999187939
0	1909	110349.287850383995	4288.2667537946
0	1936	113308.133800838838	6737.2315216018
0	1948	114543.752456753536	3427.2610695721
0	1959	114842.545326360931	5106.8773094197
0	1981	118331.07534556977	6881.3796794108
0	1989	118780.170847917448	4121.8255076245
0	2025	122432.52075067871	7656.2292842515
0	2037	123733.253336341115	4844.6766887654
0	2046	124036.544172901148	3329.8655854293
0	2113	127470.651477428045	6401.6459079622
0	2133	128068.723964080763	3912.341529758
0	2155	128714.486106603886	4009.7107542363
0	2164	129021.471399270143	5032.2401117578
0	2191	130259.463838534638	5546.5660876607
0	2202	130574.201597454358	5568.4351101709
0	2224	131342.315627358083	5725.0818998281
0	2229	131640.171078215729	5417.2040190848
0	2237	131987.020669212321	4639.1622973293
0	2257	132613.790051169618	4737.5610513815
0	2265	132912.634124596157	3908.797527313
0	2279	133510.152805764066	4352.9160187764
0	2287	133770.326794418805	4373.4781312826
0	2304	134404.450890447396	3980.534250586
0	2329	135734.046697185641	5179.6785594849
0	2338	136078.876220772933	4249.7540667499
0	2366	137521.92830032295	4775.3621798934
0	2391	138424.944279323418	4674.9212459078
0	2421	139599.077706063643	5229.8876233799
0	2429	139866.203118277507	4893.9046632412
0	2435	140165.79415607435	4112.3938920439
0	2444	141015.946118127267	4167.9050351154
0	2472	141617.538095924873	4249.6345585646
0	2502	142779.335966878974	4546.9593440486
0	2550	144335.521973606291	6924.3191395833
0	2572	145083.128982228225	6451.5751639155
0	2577	145357.639775695428	6559.3548066462
0	2588	145682.623821212315	4647.2580808114
0	2605	146408.994371871931	5097.8828753982
0	2613	146742.598199297991	5143.8463494802
0	2622	147050.158953442026	4026.9466476624
0	2646	147944.133988916236	6279.7576197145
0	2652	148255.440321179751	5742.1746524853
0	2663	148549.706890815552	5381.7864214657
0	2693	149815.684224904579	6565.3148145155
0	2699	150128.289757619364	5898.5308651322
0	2707	150421.726200426911	6119.9910246543
0	2712	150761.62375191544	3778.013361096
0	2718	151027.092223106771	5459.8892698882
0	2732	151987.160583010905	4659.3727491651
0	2746	152547.891563074533	4087.9367622119
0	2751	152832.250938768136	4293.2305554519
0	2773	155651.046673256918	7040.7834920484
0	2788	157108.843510472111	5393.5970182067
0	2806	159431.128015138754	5609.9318343742
0	2818	160497.797858453426	4930.0355815446
0	2858	163763.471827756705	6485.6925968293
0	2867	164544.114417236583	4199.9444037146
0	2879	165570.83549122913	3536.916547909
0	2884	165876.334847457155	5346.4113381471
0	2904	169898.012575669704	7535.9259720365
0	2941	174054.910300923048	7550.3536196004
0	2972	175748.637125050857	4826.3233380049
0	2999	176851.152675988947	4523.6330041161
0	3008	177156.098829622174	4086.50930303
0	3051	179320.201401342508	5135.9321175539
0	3056	179637.238430369401	4472.9629061199
0	3064	179963.852588742166	4376.6260431615
0	3075	180584.054351264839	4859.4466047513
0	3087	181551.773219368307	5638.4526745426
0	3095	181842.148932354402	3903.19048736
0	3101	182088.26822347732	3639.9918885848
0	3118	183028.154655242282	4458.9129012957
0	3148	186226.342819077428	6326.0450584768
0	3153	186598.863407724313	4116.9677883663
0	3163	188165.518785513117	4946.1018788737
0	3233	191597.777075087853	6575.213142655
0	3238	191914.175845706788	3653.0122171756
0	3250	192285.706343808902	3317.019931182
0	3258	192588.267157277421	4039.3702403721
0	3263	192887.899352214444	3722.9140181245
0	3282	194372.142050362876	3604.4846611466
0	3298	195300.932893161213	5697.3860428155
0	3324	197474.620079375988	6583.2145872661
0	3333	198106.734761597503	4005.5946571918
0	3350	199514.985829767916	5200.6007993824
0	3358	199870.767939968492	4252.4625022321
0	3376	201990.715547376468	5162.370005275
0	3398	204359.476052569683	5961.5166745528
0	3421	206620.736158015781	5682.1666424818
0	3430	207490.903123643908	3741.0088845287
0	3447	208541.9505374606	4183.543271763
0	3476	210876.471240846764	5338.1265574881
0	3507	212907.544868466506	5177.5941287784
0	3519	213461.433047224237	4228.9809099604
0	3541	214380.066757529933	4215.3527394458
0	3556	215342.989073345379	4635.2453838337
0	3575	216167.746312247949	4205.6307710951
0	3595	217008.953022264643	4711.7056593835
0	3600	217265.58188859285	3868.0455572992
0	3612	218798.48536656017	3463.5581993332
0	3618	219116.451162090397	5372.842212847
0	3626	219689.492654160685	4307.6808436411
0	3662	223556.22090337319	7210.1163222675
0	3699	225924.509691742018	5777.8515132775
0	3705	226219.123444201042	4155.4412057105
0	3729	228041.190321520747	5731.8824347795
0	3737	228362.356017481725	3457.0727880046
0	3747	228936.984380354871	4235.7789452479
0	3757	230151.063386637917	4851.734281552
0	3769	231724.861906940893	5011.0619285762
0	3907	237884.565587000859	9636.028264578
0	3916	238170.110929421035	4930.2579795662
0	3924	238490.686480375258	6922.9633328947
0	3932	238761.681071845517	5400.044568909
0	3938	239048.855287858561	4995.7626882196
0	3946	239314.558588334372	5042.3751145774
0	3951	239656.066091235677	4321.1518696071
0	3965	239978.824439464872	5181.8109892126
0	3979	240550.883940936103	5593.6180736063
0	3990	240797.696598536931	5398.4682914144
0	4001	241430.362983066111	5810.0618799515
0	4006	241723.469813335662	5744.0571899885
0	4011	241983.875374021624	5304.573785544
0	4017	242291.801387752109	5655.0465310986
0	4026	243019.862921144641	6062.8956061466
0	4035	244263.243348696952	4533.6102933153
0	4071	248349.37450323815	7790.560736427
0	4091	249755.548423943635	4698.7211706217
0	4097	250040.88613295154	3622.7291450075
0	4123	252098.570310480951	5251.6355129775
0	4132	253838.177258510757	4928.805461021
0	4142	255077.6910084426	4723.9697857947
0	4172	258549.210400739866	7062.5868179561
0	4239	261605.392895635248	5954.8212353827
0	4244	261910.248566246687	4609.1689414605
0	4273	263079.518300709294	4560.6598234153
0	4281	263385.356598799632	3870.7845467774
0	4289	263687.794067981901	4057.9827576501
0	4298	264011.267978705875	4231.7336053884
0	4306	264293.893758890422	3870.2561795675
0	4311	264597.947717447097	4662.7804280733
0	4319	264914.974912995417	4329.3324376552
0	4339	265611.197740774021	3696.0948815905
0	4411	268552.163762131942	6415.2038359305
0	4422	268928.178683910641	2951.1015364804
0	4428	269223.079159001919	4232.7195214618
0	4442	269763.666107886	3760.2077933426
0	4459	270465.099099947811	5011.3850531602
0	4467	270765.028607799928	3754.0804120849
0	4476	271098.671949339442	4372.6115659192
0	4481	271336.140340038502	4176.1246373773
0	4486	271558.38482506958	4458.6432164653
0	4496	273220.090368099291	5354.828436172
0	4526	276941.96561799018	7434.3704666053
0	4532	277240.838974344511	3991.0556969516
0	4571	281778.826956294371	8273.3802363257
0	4593	282912.375667570846	4662.6328887056
0	4627	284117.957178480139	5233.3364890054
0	4650	285016.571274090719	3257.0937659649
0	4660	285648.893202058604	4694.4361893463
0	4674	285960.505451772199	3029.7856609634
0	4724	287695.574802373685	5367.9602981197
0	4732	287936.208849815622	4793.5555029029
0	4738	288263.375806924228	4689.9484303729
0	4743	288570.385335560765	4383.0870469572
0	4766	289687.687698970735	3961.6061836504
0	4774	290004.008046711564	5288.6806473032
0	4786	290314.358984882596	4412.0556390562
0	4796	290945.51157177819	4445.7682840544
0	4802	291250.315342543708	5158.5935927107
0	4810	291875.504048995184	5290.8601589488
0	4836	293833.019147959689	5067.7010529255
0	4846	295423.470697184497	5160.0674333493
0	4855	296579.788468431462	4280.3541819178
0	4902	300712.430396977299	7464.5787911696
0	4916	301601.473555359463	4448.8973256309
0	4933	302376.173953062004	3903.6465226011
0	4941	302692.068136664485	3732.8419187747
0	4970	304087.964160135795	3439.0399581529
0	4975	304307.946659042667	5082.398664556
0	4987	305871.117278473629	4206.1044416089
0	5012	306844.093213811128	4101.2027479947
0	5051	308928.916386348963	5470.8043248719
0	5060	309413.145658712972	3751.7591607905
0	5069	310291.416507251583	3686.9916642302
0	5083	310803.944164606746	4909.7062891098
0	5105	311795.809572336356	4591.5445310242
0	5114	312042.747313994417	4225.1637743782
0	5139	313765.588816806012	5581.0311189653
0	5156	314510.215025677538	3765.780668043
0	5173	315531.106281556674	4756.7275298177
0	5195	316478.080820858951	4522.9169361819
0	5206	316828.972307114958	4205.6799651291
0	5256	318627.469729672812	4995.2673603047
0	5267	318901.145085936767	4471.0829975042
0	5281	319485.734554821529	4064.7348694219
0	5289	319763.464364911214	3888.6393872605
0	5295	320065.1762443258	3389.9258777537
0	5309	320350.67101031527	3514.6144601673
0	5328	321237.952594429902	4274.5213539551
0	5339	321719.744768033797	4687.5236469045
0	5381	323290.187389751302	5476.6706733675
0	5409	324257.49896255852	5417.98294329
0	5425	324948.309975910511	4800.9963393068
0	5436	325562.250445054655	5314.0691286463
0	5447	325952.130449484122	4154.5936236935
0	5459	326303.092392118466	4640.8685694335
0	5464	326611.051231936865	3321.0358135667
0	5472	326897.077156052731	4936.2443432863
0	5492	327435.230287116776	5236.0648839122
0	5506	328056.388837874186	4467.8480806021
0	5511	328363.319349954571	4453.8130775976
0	5521	330116.671478093718	5385.1922599439
0	5554	331778.809270975107	4891.8548721361
0	5578	333870.501078380608	3302.7497574564
0	5600	334794.378599171596	7513.5620818303
0	5609	335052.405810716971	4467.4089779236
0	5614	335387.226365267482	4598.0448140523
0	5640	337151.624657248415	5303.9345077234
0	5649	338019.793103314915	4414.9210772007
0	5661	339405.306990163634	5476.1021998358
0	5666	339687.498534150905	3504.4516123578
0	5704	345037.71510864705	8473.9028391481
0	5712	345541.484466330387	3886.8406974816
0	5723	345976.619559078451	3788.5111110078
0	5764	349147.598163647136	6033.8154043221
0	5772	349920.224793448352	4214.1770516212
0	5782	351220.640654061141	4126.7523961976
0	5799	352227.176255985714	4208.9562171659
0	5809	354713.360326039406	6271.2074180961
0	5847	360132.434479894021	8744.8454993758
0	5855	360666.681672645238	3777.1823420348
0	5864	361834.791453700324	3876.0886684674
0	5916	365318.05672471466	6365.696999095
0	5933	365932.22561974394	3811.4227657575
0	5972	367442.64552169556	4695.3042970816
0	5988	367989.851026845116	4992.0746314287
0	5999	368545.064923118009	4193.895113769
0	6007	368973.652691637695	4307.234588215
0	6016	369267.551117463518	3592.4407871797
0	6024	369960.468014848538	4200.9826440389
0	6036	370351.840365600786	4432.5323120508
0	6041	370630.244100866981	4398.3684930307
0	6053	371413.825360110771	4044.0948095545
0	6081	375345.81596519803	7570.7053216602
0	6135	378101.22155090931	6840.6492104264
0	6153	378977.134627068271	4256.3349553454
0	6174	379566.583794067161	4240.4448228467
0	6244	382184.975394343009	6568.3755816723
0	6260	382856.566009848619	7085.345680255
0	6269	383089.469412876927	7093.1466917098
0	6274	383401.887046648008	6236.5715927006
0	6291	383738.450145930944	5765.745680686
0	6321	384978.554995879455	6968.8901514525
0	6330	385317.343165192444	6061.5793440367
0	6335	385709.607129871635	6272.0724050566
0	6340	385975.880065771466	6499.9607462032
0	6346	386252.592519559211	6459.0764065153
0	6354	386563.62328425965	6691.7917483329
0	6359	386830.746488270867	5886.5684363141
0	6368	387165.265909386064	5835.8311244389
0	6376	387462.87939382847	5321.7790645774
0	6390	388063.493456262549	4472.3691237889
0	6395	388392.128194889176	4749.5502583186
0	6454	391046.993644744756	6889.9443093573
0	6462	391722.655734998221	4516.7337317288
0	6477	392510.521918775371	4069.195884422
0	6491	393077.834200462764	4464.9384306293
0	6499	393366.637870765161	4851.9408544367
0	6507	393647.545910760789	4050.5256132473
0	6512	393879.98397170075	3861.4030904124
0	6530	395999.611565500965	5638.9340992988
0	6576	398513.191943262711	6186.6582424532
0	6596	399112.946689692898	3830.3229008112
0	6620	399993.608942434397	3769.3480313843
0	6626	400273.002675877826	3857.9420150007
0	6634	400577.057823223764	3638.196411499
0	6668	402032.557038971546	4776.3986623606
0	6673	402346.969980452425	3915.3758788833
0	6682	403011.405547418195	4062.5965638147
0	6690	403624.834152470963	4675.8154835871
0	6710	404239.501814706083	3959.7871759359
0	6715	404511.789130096354	3906.6321278757
0	6742	407240.331078751546	6375.6196840314
0	6771	409467.794611568668	5827.8391949913
0	6776	409704.610395421673	3389.726951606
0	6789	411083.117106050773	4763.6562816813
0	6811	412029.88458577986	4125.205704701
0	6828	413742.398805523049	5555.2897969244
0	6857	415346.678743296157	4291.7525570861
0	6871	416179.957814715791	4816.7271741498
0	6880	417131.92227056481	4182.2600381038
0	6888	417612.561368616652	3798.7889456036
0	6900	418569.212748852808	4150.6791120111
0	6930	421511.427442736377	3018.2629319685
0	6952	422512.629859103188	7259.8235586591
0	6999	424736.682548651335	5772.4505650247
0	7011	425444.903031089378	3953.624518019
0	7016	425760.278072737385	4252.9433935546
0	7025	426161.606520832622	3918.9729995424
0	7033	426647.52368501107	4057.2555535084
0	7044	426989.658264574394	4433.1877360342
0	7050	427273.818606549339	4425.8988600192
0	7091	433112.015298217187	9902.4795305308
0	7096	433427.738402737351	3562.3533472207
0	7129	434908.547153058521	5030.6645514268
0	7148	437043.492100302494	6508.7748597421
0	7159	437624.566381097481	3968.8060146482
0	7164	437870.106686460994	4220.951562096
0	7182	439525.910650433629	5843.8591765252
0	7217	442036.067035048374	6018.4193881643
0	7273	444094.372866515656	5191.8630262818
0	7278	444440.859954013448	4660.0917554826
0	7283	444680.889717560752	4907.7659973139
0	7310	446061.837973723801	5737.884212366
0	7329	446703.668636647697	4469.3600284633
0	7340	447252.023289983411	4917.2800389734
0	7345	447590.796555245382	5182.1670925627
0	7353	447877.834011185723	5288.0147439594
0	7367	448622.060828750595	5584.207599141
0	7404	450061.140287759849	4641.4085855275
0	7409	450336.157681129038	4435.7866557908
0	7421	451253.039350750739	4704.3539421026
0	7443	452184.157294596768	4449.3379602103
0	7454	452783.252773768485	3945.3849919327
0	7463	453148.876449411992	4068.8291342452
0	7480	454163.381990492147	3214.9278292859
0	7496	454767.0677143147	5350.5639130309
0	7522	456709.78413090241	5102.0233223286
0	7528	457019.086590195535	4118.8580905925
0	7553	458522.774729484922	4577.7063390462
0	7561	458977.151245154814	4342.9250110874
0	7591	461058.385364241343	5748.0017260291
0	7604	461669.317018994094	4074.4940608609
0	7619	462076.123530711904	4202.1167150658
0	7637	462961.021084888077	3814.2104002487
0	7647	464871.403137013668	5124.5310125908
0	7656	465420.995814317783	4462.0340206018
0	7670	465834.688140825001	3824.57163567
0	7691	468939.423553842321	3186.671617155
0	7700	469700.661755507316	7678.2091414903
0	7735	472986.848082637642	7203.3972803653
0	7769	474845.060437241048	4945.9577733951
0	7778	475353.483496029736	3732.6452255887
0	7790	476346.797211723749	4606.3450878414
0	7818	477332.087742953248	4172.5412289305
0	7834	477928.11348549072	4391.9824065645
0	7873	479724.799395672158	5477.4767792192
0	7879	480064.601924549598	3743.5054070746
0	7910	481032.390147492351	4681.7226951387
0	7935	482013.237132920165	4332.8373134782
0	7943	482270.615949275709	5197.0113455963
0	7948	482560.186677304553	4677.8540733872
0	7956	482951.173876838544	4810.0088004842
0	7965	483254.867757789006	5074.4553488922
0	7981	483831.881402367786	3721.0876566654
0	8001	484428.712358975613	4052.6482997315
0	8020	485243.935864236558	4256.1425460664
0	8037	486394.893233185579	5199.1032851575
0	8046	487326.122466309932	4258.8937969277
0	8058	488063.732326280319	4319.2981575222
0	8063	488337.107074459055	4068.9182478132
0	8091	489294.18561555083	5025.4206944049
0	8117	491586.134294512184	3247.5437048518
0	8122	491886.706028643842	5986.0403466557
0	8139	492964.160488649626	4383.9420055117
0	8168	494384.97391587752	5326.5071579951
0	8190	495727.988038264169	5198.3523621944
0	8214	497135.518721799468	3722.3029600824
0	8219	497452.356332904546	5086.251544207
0	8224	497722.822081238759	4164.6321544914
0	8248	499036.989343168599	4898.8104400202
0	8275	500386.947870197501	5297.325956632
0	8311	501799.733707489391	5215.552584241
0	8320	502114.536486665253	3306.386577332
0	8328	502380.475807876878	3935.4140118721
0	8336	502686.011600403191	3779.2232276491
0	8354	504061.434114281403	4451.8780430895
0	8365	504345.654852306397	3705.6178019481
0	8375	504890.224974871623	4138.1854579032
0	8392	505866.008298727491	5025.3818111165
0	8413	507957.744559032586	5432.502429009
0	8422	508267.26296600407	4065.84168732
0	8445	510394.005646949444	5278.0784117616
0	8454	511383.891928730222	4174.0670106855
0	8462	511866.712330529203	3791.44393523
0	8492	517295.62991992702	8567.5449417375
0	8510	519235.372398411032	5310.7526250806
0	8527	520960.247951941782	4874.9376153324
0	8546	523525.625277446297	5630.2184588618
0	8555	524502.116453015151	4223.6729394835
0	8597	528803.879492465461	7476.9939114014
0	8608	529434.374058317677	4100.4167178701
0	8634	531232.143304142028	5468.8220467112
0	8643	532295.217224108811	4960.9824279623
0	8660	533591.994978257291	4977.4832347587
0	8685	534565.597194603821	4947.860149915
0	8702	535810.200093609317	5189.1564284346
0	8719	536493.042877052125	3587.8243385436
0	8727	536900.703772039039	3244.5132366204
0	8761	538662.303545856521	4990.739173111
0	8770	539431.042919278705	4237.6591851159
0	8790	540639.452769370181	4757.6571884956
0	8801	540978.509932786284	3881.705118654
0	8812	541655.777201827143	4045.2936143345
0	8846	543883.120048247354	5792.8483077126
0	8866	544661.4537501504	4643.8960216224
0	8899	545845.645572772217	3213.5461543615
0	8913	546403.928046892782	5671.8188308826
0	8924	546781.522012906479	3860.5293588787
0	8941	547362.57948925667	3450.7275244416
0	8946	547680.238225805572	4452.545441608
0	8961	548451.154602896686	3861.0798386883
0	8969	548800.823142395392	3584.7110593487
0	8980	549348.06536317403	4611.7288483688
0	8988	549865.176638630735	4245.6897202034
0	9017	551868.073864165279	5214.68329963
0	9032	553202.917116258161	4441.3180281071
0	9055	554671.195941344747	4791.1598748254
0	9069	555220.650755662592	3981.8118278104
0	9099	556682.498242112874	4951.0586018529
0	9108	557907.447302290236	4489.1128471741
0	9120	558385.72743133073	3202.9414683596
0	9128	558683.61272259213	4120.7711148656
0	9133	558941.11618880874	3547.6085287465
0	9169	562856.201678869225	7395.1937150744
0	9196	565401.432594369781	5446.7926549887
0	9204	565743.854212485996	4352.3609550074
0	9221	566931.023602841981	5093.6923597549
0	9239	568092.385646357403	4718.2608648295
0	9247	568667.675917527755	3921.209914874
0	9273	570476.022674705882	4688.4149224512
0	9285	571640.725541983056	4295.1452083069
0	9299	572283.352259564799	3339.2950606841
0	9309	574347.145221914915	5338.537629544
0	9352	577573.932035843408	6041.7487436271
0	9361	578277.805462289418	3877.4461575583
0	9372	578707.110150094229	3343.4888485421
0	9378	579025.926714741114	4530.9881746499
0	9409	583167.446213438167	7491.4067861375
0	9424	585646.887061065684	5564.8875053327
0	9452	586854.774525259631	4969.4094931649
0	9498	589784.718657131299	6829.9224653629
0	9504	590069.503744126233	4059.4402878733
0	9512	590370.220280277213	4341.2754981199
0	9517	590728.526921904035	3899.4773738981
0	9542	591954.02864018338	4878.7101675319
0	9551	592317.431689930257	3465.8372603943
0	9580	594363.623654965725	3620.2647062413
0	9588	594597.471558843682	5719.8689027347
0	9610	595471.705630667173	4412.4514445053
0	9622	596376.906781538438	3996.1573621508
0	9639	597643.032893478651	3081.7821272624
0	9644	598009.184347694506	4674.7685528157
0	9686	599708.281711680423	4891.3909401881
0	9710	601599.1316208088	5231.1761164142
0	9727	602237.017109232254	3968.1492158242
0	9732	602505.132144483463	4176.540265882
0	9740	602810.160453212727	4222.4979693709
0	9757	603351.793221638153	4678.7804878682
0	9772	605034.758725007615	4757.7905958018
0	9800	606382.061575338609	5016.8856716138
0	9808	606689.263945025247	4084.2339958448
0	9822	607985.64407754866	4709.9611354268
0	9831	608504.303630737939	3281.6746905627
0	9843	609759.348995384364	4409.3770844034
0	9875	612797.483573357737	6252.165937045
0	9901	614271.319866825166	4808.4449779484
0	9909	614920.560074926233	4471.382067292
0	9922	617005.626810227927	3962.6730074358
0	9928	617248.891044701335	5938.4430417098
0	9990	620726.623220460048	7027.8046703626
0	9998	621005.291726673985	3652.7771440227
0	10004	621322.447933182504	3806.1355415106
0	10020	621905.837997969469	4329.8564411832
0	10029	622278.324620798376	3830.1438304012
0	10038	623137.932977913322	4620.8664424448
0	10083	625114.482881892037	5206.5196964602
0	10119	626534.516596678968	5191.2368545609
0	10139	627179.354205531358	3894.0389748408
0	10152	627841.200679288878	4385.513657295
0	10177	628770.410293023442	4906.790493524
0	10197	629325.690130722278	5268.4631405644
0	10241	630863.816556705492	5225.2096853354
0	10250	631126.237169645292	6118.3800960159
0	10258	631435.111730912286	5654.9477325408
0	10274	632007.729224056028	5596.8090956006
0	10288	632619.853384171505	5455.3372050702
0	10296	632928.277170507636	5111.5437867042
0	10305	633238.422112835808	5324.5462377608
0	10310	633460.945860715913	4804.7353606047
0	10321	633784.171946529056	4566.7674893101
0	10335	634356.488327048657	4472.5878921777
0	10348	635003.49361759343	5627.1204118805
0	10363	635344.032835442662	5081.9228300682
0	10387	636493.943064274204	5324.1365880384
0	10396	637127.844317643249	5241.8514074601
0	10404	637678.603314666265	3991.8977514442
0	10419	638676.691933528392	4400.4731215715
0	10424	638991.420103753656	3980.5003293418
0	10436	639279.772897377188	4098.036141215
0	10465	642670.397864931626	6859.9389137307
0	10482	643455.323643740094	4406.382483719
0	10491	644033.66553206041	4793.1041038825
0	10509	646090.063333209281	5596.4076829927
0	10527	648668.055259943427	5839.0225597961
0	10546	651191.57135073005	5959.7621182596
0	10569	652773.367475119002	4646.4731708792
0	10610	656157.998768365321	4099.3999508395
0	10621	656458.814691628131	7170.9813652446
0	10629	656732.412761726159	4048.8653552038
0	10640	657292.560665005549	4545.0182286261
0	10649	658179.805007872156	4579.7526993181
0	10669	659931.280568141639	4699.4824758077
0	10709	662592.546655150882	3490.206506268
0	10717	662985.261303698038	6499.9549538288
0	10729	663838.498802741568	4047.3416938936
0	10738	664075.089641769107	4113.3838628353
0	10760	665284.933699377991	4126.9426177017
0	10789	667498.954105822969	5773.8512382904
0	10794	667829.697784834317	3836.3173053989
0	10803	668432.728776667571	3800.983734536
0	10812	669479.590110994826	3820.2300729449
0	10855	672803.536452354013	3095.6366176833
0	10867	673237.434352644576	7463.9463293431
0	10881	674457.211252234866	4288.0849823487
0	10890	675476.941784684878	4744.8946885942
0	10899	676793.607808020621	4538.4337489128
0	10935	680381.589963012948	7191.4257115308
0	10953	682747.011153490958	5607.0488240801
0	10962	683145.859700143507	4363.0853472379
0	10975	685156.540652840601	5764.5034952931
0	10994	688280.720922498656	6141.586214273
0	11026	691014.431102766879	5938.1900430142
0	11062	692502.600807624014	4415.4686895784
0	11087	693939.389446489307	4424.9234919679
0	11104	694493.709040197737	3426.2826239054
0	11112	694831.01615882499	4458.2083942007
0	11121	695102.465703818496	3667.651970649
0	11144	696032.046256487878	4286.1420659
0	11199	698190.521075415198	5783.2183151246
0	11215	698813.881268202204	5488.2786610209
0	11280	700558.50341583346	6671.1513350085
0	11294	701164.054486513904	6078.6878907201
0	11310	701753.387488482459	5845.3127362315
0	11316	702036.303594479583	6289.7416024795
0	11327	702344.1234495119	6359.7419457748
0	11338	702623.435283903924	5720.8808959576
0	11352	703193.281217906686	6495.8629562142
0	11357	703512.234339915117	6208.230275666
0	11368	703838.406133354576	5904.3064181374
0	11390	704732.950890569169	6078.040002536
0	11396	705017.699034028237	6117.0448377103
0	11404	705356.675684465	6345.4910524867
0	11409	705630.58107033771	6160.7677301582
0	11414	705923.428790388779	6389.320211374
0	11420	706213.523356361705	5953.1019647038
0	11425	706478.152343874466	5596.2110682403
0	11437	707297.834640778722	4679.7677262148
0	11442	707574.9439842704	3981.7542809005
0	11492	714511.121026735785	10555.771005178
0	11500	714787.749703019088	3932.776423421
0	11506	715102.490781516467	3378.9277517982
0	11514	715465.294562548199	3715.4695249374
0	11543	720583.069948891813	8336.4113628027
0	11561	722734.112492528302	5475.1036770599
0	11571	724529.273004018758	4746.3556279527
0	11625	730701.975164606078	8867.7122207175
0	11643	731261.335632039611	3637.2952405229
0	11653	731922.78983436121	4295.4171770835
0	11662	732261.55637088151	4491.8598137878
0	11678	732987.734023271685	4562.4905603958
0	11704	734424.835099395762	4324.8706164046
0	11719	736078.833103874313	4901.875368319
0	11733	736684.56535882543	3873.998018492
0	11755	737452.901262083907	5273.1182875557
0	11763	737724.890251445754	4211.6529736613
0	11793	740174.540780755423	3671.7880351697
0	11803	740737.792974495153	6572.7331663436
0	11812	741158.088018662071	4420.3284666038
0	11820	741657.799464512616	4006.8991130193
0	11830	743862.869083466001	5534.1011636654
0	11861	747100.780161631391	7148.198340203
0	11892	749571.85093032454	5585.0078864831
0	11917	750695.339552768076	4413.9075846838
0	11929	751686.888632169842	4781.5376952627
0	11934	751962.237908245657	3665.9230196502
0	11955	753343.488701885242	4952.1850333261
0	11963	753652.819905430712	3874.8537081337
0	11994	755025.502206425422	5084.4734542679
0	12003	756827.758156927654	4609.9342982725
0	12012	757184.808250947253	3590.6093990984
0	12026	757594.142701809369	3923.6047979613
0	12066	760759.893298818254	3456.7179634371
0	12091	761628.457790214681	7957.4352095679
0	12111	762234.625020261487	4727.3004068028
0	12147	763521.071294232675	5229.5310239879
0	12194	765365.974069792927	5725.4402023073
0	12205	765682.998760647012	5141.2513690599
0	12225	766278.918482385529	5472.1736433009
0	12275	767770.07292938267	6287.5897573559
0	12287	768089.795410785211	6019.210496883
0	12306	769035.643005878834	7046.7604562247
0	12314	769321.556918893495	5910.3415439065
0	12322	769643.404130478602	7392.790495094
0	12327	769874.208645597308	6568.1350154857
0	12333	770208.688459449904	6715.5855753717
0	12344	770541.426605836893	6633.4982491671
0	12349	770775.711237057779	6605.9347665525
0	12361	771083.947640267774	5496.1366044226
0	12366	771411.664230021799	5180.5041427434
0	12371	771713.804217626224	5179.9180848854
0	12379	772015.013745250009	5269.0136373696
0	12390	772630.682473885316	5527.0488908063
0	12398	772944.5275800912	5054.3076366386
0	12422	775052.837084039552	7144.2860336968
0	12447	776330.364075893552	4604.4974927992
0	12455	776913.390959875136	4212.4305319673
0	12473	778625.422435034421	4926.7119482471
0	12485	779027.554082448847	3678.9942578365
0	12524	781068.255831587046	5310.8130301503
0	12532	781980.741712663017	3094.8915250263
0	12544	782534.060322103905	4742.5176263853
0	12552	782864.617705669536	3769.9453856691
0	12558	783130.412507838837	3913.7288963256
0	12602	787071.4720727505	7404.9363037579
0	12623	789160.3859479407	5654.1662947005
0	12631	789464.590927920079	3786.1038384083
0	12639	789748.302529372243	4149.1999883222
0	12673	791724.019588597579	5740.4536372791
0	12710	793153.315404638473	3531.7366462548
0	12735	794043.396247801832	5455.7248425822
0	12757	794643.576811652444	4734.1730594605
0	12784	795766.707579809741	5159.2220683236
0	12790	796034.489376138863	4553.1298111633
0	12798	796314.557616764543	4498.242259886
0	12809	796638.996130556766	4033.2001775916
0	12820	797163.69302535344	4182.9728667513
0	12828	797574.575353748569	4224.4392680937
0	12836	797889.959680689595	4062.1397580408
0	12851	798510.06977447292	4012.6517325179
0	12865	799113.76580940644	4664.91778203
0	12878	799729.117305667755	5100.3474107917
0	12904	801841.181267041836	5409.0476397765
0	12913	802892.054327198133	4568.8560661108
0	12922	803396.467412182912	4498.5904220179
0	12934	804164.402096995638	4220.5408081921
0	12991	807459.172026051052	7181.7712105903
0	13007	808367.006850160912	4311.8597944363
0	13015	808736.787305719402	4095.6662630947
0	13043	809930.946212654096	4050.9645114414
0	13060	810560.988289191111	4281.3243814865
0	13068	810880.57351104471	3607.1842580718
0	13074	811192.834260232727	4576.3928507761
0	13086	812266.041501543867	4857.4582118117
0	13091	812594.493714769006	3787.1228816237
0	13100	813124.852928090073	4085.1698917515
0	13128	817319.673541543278	7630.4392211729
0	13170	819822.069696653659	6084.9171451613
0	13202	821501.859404318315	5292.710744291
0	13227	822378.416654798179	4526.5000081002
0	13243	822897.67483985377	4739.8847345831
0	13249	823208.836711369469	4264.6974279185
0	13254	823523.29023689208	4453.7317468541
0	13269	824029.775760807525	3889.7334944164
0	13293	824903.50726166032	3642.0174049454
0	13318	825810.631818209852	5268.723845281
0	13337	826815.755445790595	5136.2144079108
0	13346	827220.804394669861	4877.5260849881
0	13354	827548.502630407894	3622.0255350656
0	13378	828539.518877053614	3837.5111611346
0	13402	829705.046200606619	5687.3175317202
0	13407	829938.361437297231	4803.2425238058
0	13413	830220.892562634671	4512.5421934059
0	13437	832078.631629465082	6355.3495855573
0	13442	832417.443258841318	4178.5893417079
0	13447	832703.98224075059	4278.1340616512
0	13473	834946.788612976693	6398.1886624397
0	13491	836627.907413585722	2783.9970777159
0	13500	837037.288769889845	6015.2062605449
0	13541	838997.592918119967	4821.9459651281
0	13577	841069.755703856987	3660.9367961924
0	13585	841373.297839696124	3776.684828892
0	13595	841944.204203242074	3847.329473154
0	13601	842255.488837148915	7063.3529063634
0	13610	843221.152463513728	4915.3702091956
0	13618	843662.177465468877	4329.7311483478
0	13635	844986.975327685984	4728.5253177419
0	13662	847568.592550628926	6421.8148108521
0	13679	848668.961513678404	4507.5266357865
0	13697	850217.362003949616	4367.4509658193
0	13733	851766.026634975589	5367.8542629766
0	13767	853030.726739383184	4993.7358729637
0	13786	853950.941489485884	4320.1861633775
0	13792	854247.393071794862	3800.1006069279
0	13797	854578.381986857015	3953.0134815339
0	13809	855092.384136203247	3610.3356031707
0	13814	855385.656912540667	4430.0109059589
0	13826	856225.540995899689	4384.5662543655
0	13839	856877.905887284141	4905.9414724269
0	13858	859148.617592124422	6291.4560099119
0	13912	862054.270448918764	6020.0725262033
0	13925	862613.08620375504	4302.1416930022
0	13940	863819.322191423122	4401.747411731
0	13954	864419.616797487464	3937.4912420349
0	13962	864720.652561467447	4202.1247283019
0	13982	865341.379888909337	4217.713169707
0	13995	865891.633050497339	4571.7901437124
0	14010	867438.695297381285	5502.63744135
0	14028	868466.865132734182	3232.3284883601
0	14047	869400.644210170983	4767.6055516048
0	14052	869734.541310411851	5974.7855174597
0	14062	871391.432039104824	3254.6113941482
0	14070	871820.65081391147	6017.6689400962
0	14107	876480.977958721122	8043.478587191
0	14128	878073.395923580665	4972.7693024454
0	14142	879023.098839329323	4940.3646333194
0	14190	881135.766191442727	5884.1495051153
0	14203	881756.042781010225	4334.9339249363
0	14231	882687.847527412373	4784.6903613779
0	14262	883717.071587124284	3650.2224302114
0	14292	884901.11153662105	5557.7869964286
0	14298	885166.71591075833	5030.5560429982
0	14306	885453.485788819297	5109.1174069704
0	14311	885739.190311353928	4701.0812482625
0	14322	886011.469082112142	4527.7712133245
0	14336	886643.40240573607	4688.1871065994
0	14347	886898.272704534477	4357.9957999801
0	14353	887150.43166715224	3683.2696550228
0	14358	887442.039787623425	4785.8109027016
0	14369	887847.039685752229	4196.893403407
0	14400	889712.948623927565	5920.8375595012
0	14418	891059.837868332635	5315.5968329068
0	14429	891664.457387812584	4070.4904106332
0	14434	892017.412467827756	3799.3358079427
0	14452	893461.556502725297	4398.1545821604
0	14470	895581.145336841735	5608.3730021097
0	14505	898747.17583190684	6457.876449268
0	14514	899962.757030194979	4976.9883206787
0	14524	901396.141313285037	4512.8128005584
0	14532	901941.784985885633	4105.0665175578
0	14590	908610.666605609763	10738.969166692
0	14612	909499.195651331936	4458.0028869184
0	14624	910020.448715599111	4145.4890228547
0	14665	911662.155020215051	4614.7708624395
0	14670	911962.671383368193	4236.3874996568
0	14682	912259.664811048971	3731.0001901462
0	14687	912564.079072355775	4684.0106023834
0	14696	913242.709627186248	4570.5484281087
0	14707	913842.168294490253	3890.561873712
0	14749	915442.146236903127	5225.019688198
0	14754	915763.126285215596	5705.0563295399
0	14767	917266.191416981861	6807.8842493599
0	14775	917528.361594267871	3511.9428543999
0	14783	917918.767221466648	4365.8875777021
0	14789	918261.578139684946	4069.6325362941
0	14860	922204.31213632836	7404.3453151107
0	14865	922488.568004808926	4183.7943797292
0	14882	923311.999616067557	4718.2136343282
0	14902	924102.906451274828	4277.2051459941
0	14913	924431.802533222084	4460.6161093657
0	14929	925003.760836058606	4077.5169475197
0	14949	925656.346008007723	4565.1891367314
0	14965	926515.271914746853	4982.6355864149
0	14973	926887.67044427045	4127.7743825617
0	14982	927828.940590535602	4320.8098460127
0	14991	928198.188167931336	3991.6080449448
0	15002	928995.091820830021	3579.7437499024
0	15016	929592.826479289428	4790.0307420863
0	15062	932100.136897034219	6518.2335502375
0	15087	933344.68801795943	4462.0935374067
0	15100	934000.028572554806	3984.4161150921
0	15112	934474.90125633457	3391.0190099234
0	15123	934767.222952673617	4610.9140026541
0	15145	935647.421602855942	4104.5220306199
0	15150	935992.324144504645	3941.9908970073
0	15160	937112.484274612274	4433.2929711267
0	15180	938229.39973524675	5118.1618991448
0	15199	938841.702672741564	4308.3537349004
0	15238	940735.648440565275	6172.1503077603
0	15252	941309.261691481609	3754.2154156043
0	15311	943587.439233236213	5644.1457863405
0	15319	943834.006375135627	5245.8936831836
0	15328	944133.783225515828	4425.1339446822
0	15352	944949.02111526472	6309.6199194642
0	15358	945244.690240940656	5405.5505050954
0	15363	945533.396815094563	3721.5845487773
0	15374	945836.103540754359	5204.6602338766
0	15383	946123.50808530638	4165.912430367
0	15388	946412.868119291249	4153.6762557089
0	15396	946713.875638343442	4426.9298539739
0	15413	947606.457426856369	5217.8733264279
0	15421	947895.993365485643	3896.4984859219
1	846	50824.291454678376	0
1	858	51112.031809106614	27.994137646377
1	871	51688.333105794098	313.56634729299
1	880	52557.82024598609	0
1	891	52837.316571841142	260.55072318091
1	900	53163.037263741453	455.71783710864
1	905	53472.377983556625	449.56941740347
1	916	53802.007535404088	182.30365297199
1	936	54417.73566534653	189.78696105687
1	944	54671.89285662927	302.64436699848
1	963	55541.211457693511	145.078084428
1	1011	57165.737988169918	193.3327098986
1	1047	59391.035587504847	0
1	1055	59964.569247089384	0
1	1064	60507.925037137043	0
1	1081	61314.316950463115	0
1	1089	61938.449214426338	0
1	1118	63541.715549945825	21.957544183708
1	1149	65426.9329664196	0
1	1157	65769.112162737377	39.251207661279
1	1166	66094.557000521773	0
1	1182	66724.75610754744	83.713125709486
1	1200	68484.1382040901	12.143648606947
1	1214	68778.951863008265	136.03624090409
1	1228	69317.852619578811	143.1051776358
1	1239	69614.693907062088	174.72560749701
1	1247	69896.362190122944	31.264639071116
1	1266	70877.802645092744	0
1	1317	73140.057380056007	238.83182813493
1	1325	73470.491401147354	140.51139191172
1	1342	74968.170813213697	0
1	1368	76862.016444560743	0
1	1377	77263.975919699309	0
1	1385	77925.264967097303	0
1	1414	79939.60641662452	239.28974575512
1	1426	80298.40644305384	400.8020860686
1	1434	80601.893371062889	538.77243813928
1	1439	80832.419065384364	487.65409458783
1	1474	83076.072167045558	235.2705084996
1	1504	84315.509868264389	0
1	1514	86276.487434269569	0
1	1522	86574.741299540692	108.49786003636
1	1539	87339.637618306111	0
1	1555	87947.524392453581	234.65561633744
1	1564	88897.332499073628	0
1	1589	89895.661973902467	0
1	1598	90216.428868277056	281.34149282118
1	1623	91395.605606118422	70.547858720819
1	1640	92300.826336860804	0
1	1651	92597.918310350437	289.83176831517
1	1673	93751.019984661738	0
1	1685	94053.120615301932	28.786821563408
1	1698	94689.839680160952	105.54050680818
1	1750	98496.043789869983	0
1	1759	99652.324686440139	0
1	1768	100859.587161631138	0
1	1777	101203.180674666321	231.09477651176
1	1793	101954.799665979556	101.36997780607
1	1837	105271.505230445136	0
1	1845	105805.819826912655	0
1	1854	106124.696166341669	63.675069752252
1	1862	106570.902279237013	0
1	1897	109735.668016941271	0
1	1915	111116.491387181486	0
1	1923	111449.69566615898	0
1	1961	114842.545326360931	184.19998606798
1	1967	115173.372330844907	397.08086441765
1	1994	118888.576647575698	0
1	2004	120706.678587471832	0
1	2013	121069.005569465883	0
1	2048	124036.544172901148	47.312885388834
1	2056	124323.264250155426	166.88181583263
1	2064	124704.775352367593	0
1	2076	125044.167730129119	331.26997925514
1	2081	125356.15555374478	350.38906646135
1	2089	125680.996958670062	63.763231140095
1	2098	126222.967059130968	0
1	2115	127470.651477428045	122.79310554506
1	2135	128068.723964080763	192.49496429267
1	2166	129021.471399270143	17.634801986974
1	2174	129361.428834352923	204.19204736524
1	2182	129679.66332783493	282.81466469875
1	2204	130574.201597454358	150.28495759301
1	2212	130798.028805395032	243.66066769427
1	2239	131987.020669212321	157.89851518925
1	2267	132912.634124596157	166.0680041666
1	2289	133770.326794418805	20.303761003207
1	2306	134404.450890447396	35.260807763651
1	2314	134972.298455036305	0
1	2340	136078.876220772933	25.475956742499
1	2348	136848.041083011867	0
1	2368	137521.92830032295	154.02476296269
1	2379	137800.851974474059	389.64914045105
1	2393	138424.944279323418	192.56765649305
1	2401	138719.547762387173	87.993944074463
1	2410	139041.843270811175	243.55830176193
1	2449	141035.365740400873	0
1	2474	141617.538095924873	306.42659945116
1	2485	141914.460206382795	315.70835656496
1	2491	142184.301414866701	519.92504566501
1	2504	142779.335966878974	266.07029818457
1	2513	143110.971597872264	87.759292092595
1	2524	143405.978466445095	238.05799709521
1	2529	143768.500143070691	518.13073268159
1	2552	144335.521973606291	105.76308111909
1	2560	144610.208951843798	308.47377607115
1	2590	145682.623821212315	115.42086799379
1	2624	147050.158953442026	66.548562622565
1	2635	147330.336364588385	2.548530742619
1	2665	148549.706890815552	89.75208995294
1	2673	148840.215433871199	301.19505055497
1	2682	149163.931873998711	553.66869279021
1	2734	151987.160583010905	271.91409074551
1	2757	153821.196180764546	0
1	2775	155651.046673256918	83.284396348139
1	2793	157277.779230927381	0
1	2820	160497.797858453426	153.62784493144
1	2828	160737.328347114706	207.40483780467
1	2838	162033.918943320081	0
1	2846	162397.748491571421	35.661887938206
1	2890	166504.556681322645	0
1	2910	170922.313787045982	0
1	2920	172327.519671872856	0
1	2929	173069.58952659216	0
1	2946	174184.26928378857	0
1	2955	175164.275524249491	0
1	2974	175748.637125050857	161.41057947022
1	2983	176007.238472328133	282.63072581463
1	2988	176324.877443328099	411.55689850237
1	3013	177938.958444994397	0
1	3022	178448.276334892528	0
1	3033	178698.366750663323	129.12499671675
1	3066	179963.852588742166	63.554828141495
1	3106	182481.895619357964	0
1	3123	183219.416906639415	0
1	3133	185022.563932432831	0
1	3168	188261.163628531165	0
1	3176	188590.405581868789	41.50866496342
1	3184	188968.686412626948	0
1	3193	189254.878175843217	89.892841753275
1	3201	189603.546850345689	0
1	3210	190767.65738921628	0
1	3222	191015.88505726977	124.47956515984
1	3284	194372.142050362876	271.00194595713
1	3289	194670.673503030641	356.28847264513
1	3303	195618.305437736345	0
1	3312	196828.345542101488	0
1	3338	198397.959378016899	0
1	3364	200938.569515533932	0
1	3383	203749.894239115171	0
1	3400	204359.476052569683	1.068786872055
1	3409	205538.34468335869	0
1	3435	207729.950739688097	0
1	3453	209232.452137263848	0
1	3462	210164.714018084133	0
1	3478	210876.471240846764	168.72755133509
1	3487	211962.115541152844	0
1	3496	212297.24736288116	0
1	3521	213461.433047224237	63.896715930569
1	3529	213786.849801552497	43.240852309149
1	3558	215342.989073345379	8.061906118381
1	3566	215632.247872493363	250.43606197374
1	3580	216346.104581105676	0
1	3632	220146.658178464557	0
1	3642	222063.68223849056	0
1	3650	222370.389121550406	61.081234809164
1	3668	224701.205435106941	0
1	3676	224961.561928776272	56.278699299175
1	3685	225299.329105085902	0
1	3710	226713.799978364721	0
1	3739	228362.356017481725	113.81869505888
1	3771	231724.861906940893	157.13875946034
1	3781	233239.852949854867	0
1	3789	233512.166329971877	150.52982703531
1	3798	234053.092599638933	0
1	3806	234310.794033933101	38.610560176085
1	3814	234797.013450252301	0
1	3826	235130.449657320793	173.18378999099
1	3837	235415.553250425274	80.639028796683
1	3845	235737.159325260861	337.93101813829
1	3857	236049.332341455268	429.0312383407
1	3862	236410.982455152657	431.56983180552
1	3876	236693.698536973164	56.943680319615
1	3887	236997.220562074879	317.91897359723
1	3893	237291.467657069168	334.50034207114
1	3967	239978.824439464872	249.19138408322
1	3992	240797.696598536931	238.8828317258
1	4041	245056.827253321959	0
1	4050	246418.156987944015	0
1	4058	246846.934797503459	0
1	4076	248909.371797489783	0
1	4102	250353.721222647946	0
1	4111	251486.623582783801	0
1	4147	255650.57166025258	0
1	4157	257301.079624786203	0
1	4174	258549.210400739866	30.351923445906
1	4183	259514.57205202226	0
1	4194	259834.568838463368	204.75752813157
1	4206	260146.625273350967	367.09090003349
1	4214	260429.765424332216	494.59813495847
1	4222	260775.751472584456	352.11389326152
1	4231	261046.443178567774	460.80070322756
1	4249	261915.10285918357	0
1	4258	262241.978486434428	105.018560233
1	4324	264990.359637540128	0
1	4341	265611.197740774021	157.48369398643
1	4349	265977.077147430283	0
1	4358	266257.172322996874	253.71400845345
1	4366	266726.060383420265	0
1	4375	267010.948195715029	0
1	4386	267294.260397286631	194.51878868232
1	4391	267570.371551339412	410.35584867819
1	4402	267928.297838832804	63.035906905546
1	4444	269763.666107886	256.07095650107
1	4501	273249.783277392952	0
1	4509	273529.568444298323	24.121724329688
1	4538	278249.742778865279	0
1	4546	278884.620689474779	0
1	4556	280954.457012712314	0
1	4573	281778.826956294371	19.349448168526
1	4582	282327.614504254007	0
1	4598	282930.719790808808	0
1	4607	283206.555402715165	63.902055802452
1	4615	283573.427376551307	0
1	4632	284187.298288603567	0
1	4652	285016.571274090719	301.24387468237
1	4676	285960.505451772199	234.4239364519
1	4685	286252.542478194602	350.23913236819
1	4699	286576.425589714701	484.7038398817
1	4707	286874.252405490779	374.509117767
1	4716	287154.020851785244	569.37696173883
1	4748	288765.318095034238	0
1	4788	290314.358984882596	50.955721047448
1	4816	292299.434286513706	0
1	4825	293247.851605807722	0
1	4861	297152.576229728573	0
1	4870	298472.527430460938	0
1	4878	298959.226217889794	0
1	4887	299255.764421037838	30.216426551199
1	4904	300712.430396977299	63.506194994393
1	4921	301665.012836864752	0
1	4946	302742.890465816403	0
1	4955	303458.112061477014	0
1	4989	305871.117278473629	209.73078055111
1	4998	306206.612139083583	312.37426358666
1	5014	306844.093213811128	239.66837078978
1	5023	307204.265041312194	0
1	5031	307817.583539616266	0
1	5040	308184.557697840762	0
1	5085	310803.944164606746	59.509806972225
1	5094	311165.37200719603	390.99325545707
1	5116	312042.747313994417	87.583429317402
1	5124	312623.292341985852	0
1	5141	313765.588816806012	133.38644743787
1	5158	314510.215025677538	80.152937244951
1	5175	315531.106281556674	110.10659615706
1	5183	315874.824977650692	0
1	5208	316828.972307114958	153.72194054291
1	5223	317124.328347719975	288.27179757204
1	5228	317428.163349728575	464.73210925382
1	5236	317710.258838321266	678.03771719196
1	5244	317981.883932246954	168.36721586316
1	5269	318901.145085936767	61.629066668204
1	5311	320350.67101031527	203.35737371154
1	5319	320636.530800223332	388.34948381494
1	5341	321719.744768033797	57.520945348874
1	5356	322028.628775813544	231.09195002288
1	5364	322358.339523858354	397.50671109195
1	5369	322623.797498964992	424.63209576045
1	5383	323290.187389751302	0.171971381181
1	5394	323601.346616995968	12.805859723837
1	5411	324257.49896255852	347.99269020152
1	5427	324948.309975910511	216.83075776073
1	5474	326897.077156052731	10.122757213705
1	5494	327435.230287116776	154.41376977544
1	5526	330567.751320924194	0
1	5537	330831.706192295082	246.70935950173
1	5546	331117.238814691861	328.05726347672
1	5559	331847.69014952505	0
1	5580	333870.501078380608	265.62905226637
1	5592	334203.637783972361	274.43299364453
1	5620	336183.046921793091	0
1	5628	336563.812269498922	0
1	5673	341654.643768848756	0
1	5682	342188.108448070649	0
1	5691	343113.78275932501	0
1	5725	345976.619559078451	270.57181725133
1	5735	347093.888257863529	0
1	5744	348018.220038819772	0
1	5752	348442.152907943311	0
1	5787	351387.588980518226	0
1	5816	356889.499330610416	0
1	5825	357958.702785232914	0
1	5834	358952.359725619681	0
1	5870	362120.80285398643	0
1	5878	362747.341224613961	0
1	5887	363074.500933981291	76.72453856491
1	5896	364351.169809349035	0
1	5904	364675.752938160343	9.334834737618
1	5935	365932.22561974394	257.11528946017
1	5947	366253.636409080949	494.15103827135
1	5952	366489.93890261308	570.63084906307
1	5957	366781.825705817141	549.9500979809
1	5974	367442.64552169556	72.914971139315
1	5990	367989.851026845116	214.74038330731
1	6055	371413.825360110771	153.25301962787
1	6066	374720.799671722845	0
1	6083	375345.81596519803	19.676993977615
1	6091	375667.000935275449	50.401122604744
1	6099	375960.152361567119	188.93203197351
1	6108	376271.345366545296	275.02264537815
1	6117	377165.315453947362	0
1	6137	378101.22155090931	128.51708566432
1	6145	378403.16165480735	393.49681038042
1	6176	379566.583794067161	310.81997291138
1	6193	379905.922541304177	468.38781648914
1	6199	380224.975806550973	749.05648698269
1	6204	380574.33864375602	780.82253071207
1	6212	380865.192012495532	993.36047656883
1	6221	381160.092539062086	215.91448710533
1	6229	381492.579480930452	163.14469598324
1	6246	382184.975394343009	43.875065091928
1	6293	383738.450145930944	147.32581345731
1	6302	384023.786234306472	381.20829773594
1	6310	384333.352897913688	176.30356252623
1	6378	387462.87939382847	256.957390559
1	6400	388441.32603435341	0
1	6411	388722.261297385136	207.56428105671
1	6417	389019.174179965298	406.27841013187
1	6425	389597.020297513498	0
1	6434	390018.580881288334	0
1	6442	390360.677466202169	0
1	6479	392510.521918775371	183.98821796584
1	6519	395282.623788881657	0
1	6536	396224.260911050062	0
1	6544	396515.322885209376	100.2622243323
1	6552	396938.861411724737	0
1	6561	397256.158376610896	0
1	6578	398513.191943262711	81.597841693556
1	6598	399112.946689692898	164.13770608936
1	6603	399408.766233941959	459.74756505809
1	6636	400577.057823223764	297.34318445359
1	6644	400863.935623869389	258.77862164869
1	6653	401130.094522373782	265.3831276536
1	6695	403639.955416577416	0
1	6722	406314.883443815705	0
1	6730	406609.547630055847	290.08680568639
1	6747	407904.678881078815	0
1	6756	408195.870900811157	8.761892212497
1	6791	411083.117106050773	28.190919840766
1	6802	411405.735446899307	42.50480633332
1	6816	412949.662232461046	0
1	6833	413813.772423013015	0
1	6842	414418.533636841716	0
1	6859	415346.678743296157	93.872442852101
1	6902	418569.212748852808	76.048238084959
1	6910	418964.23198362668	0
1	6932	421511.427442736377	20.14892966598
1	6940	421851.777352932253	344.44267374947
1	6954	422512.629859103188	269.99633781292
1	6965	422828.535262770967	272.06473423077
1	6974	423140.256574659715	549.98844315706
1	6982	423398.682310538834	550.76256400871
1	6987	423742.241057647756	532.70528996135
1	7057	429865.385055516665	0
1	7066	430189.447468927283	311.56486729552
1	7074	430534.717240560349	0
1	7101	433649.155124364987	0
1	7115	433958.457560173262	302.697193724
1	7121	434234.726735195628	552.67526128715
1	7136	436017.647646884074	0
1	7170	438902.509840233889	0
1	7187	439773.123720246859	0
1	7196	440082.682958638002	301.91476010718
1	7204	440378.236307120563	54.282545762763
1	7222	442234.308608184376	0
1	7236	442547.120057501249	212.37680649124
1	7244	442863.000570380049	454.37110769735
1	7253	443138.660876641028	548.84160941471
1	7264	443477.577805260653	439.72457565102
1	7289	445419.731702232341	0
1	7312	446061.837973723801	161.46694838557
1	7331	446703.668636647697	154.98322799954
1	7355	447877.834011185723	143.01467679923
1	7372	448837.867781835771	0
1	7381	449146.017749453325	65.970434286507
1	7395	449446.004198224726	29.500396940965
1	7423	451253.039350750739	304.58518954454
1	7431	451607.760808573804	0
1	7465	453148.876449411992	248.64794980893
1	7482	454163.381990492147	218.31360005338
1	7498	454767.0677143147	132.84148024724
1	7507	455310.383638212243	0
1	7533	457594.822958133183	0
1	7544	457882.220690909295	8.213875263155
1	7567	459146.81068463937	0
1	7575	459746.872124422845	0
1	7593	461058.385364241343	99.423570525347
1	7621	462076.123530711904	66.007025556887
1	7626	462337.099437299835	314.64682328278
1	7672	465834.688140825001	81.936204137639
1	7678	466122.378100868328	338.92729859598
1	7705	469899.102663845917	0
1	7715	471620.838270440996	0
1	7723	472000.02733054839	259.57520666609
1	7741	473159.546514022733	0
1	7749	473536.13107892623	0
1	7758	474247.322616452945	0
1	7792	476346.797211723749	25.700694248709
1	7800	476651.529094183584	300.86164182998
1	7820	477332.087742953248	258.48313927379
1	7836	477928.11348549072	247.71366604873
1	7848	478293.973722491192	411.64111857385
1	7853	478580.737766994613	439.57269064025
1	7858	478885.564324106561	705.15191520972
1	7884	480110.79374570237	0
1	7895	480398.963478790557	22.899419546492
1	7912	481032.390147492351	44.596829322239
1	7926	481353.727455729516	157.93750770147
1	7967	483254.867757789006	187.6390884068
1	7983	483831.881402367786	87.447233609689
1	8003	484428.712358975613	160.52353232972
1	8011	484704.304370384816	435.53944923886
1	8025	485900.665681988114	0
1	8068	488338.590589660352	0
1	8079	488658.514056227157	78.295573089254
1	8093	489294.18561555083	235.71885766846
1	8102	490529.635676069761	0
1	8128	492366.104788697518	0
1	8145	493413.215761717106	0
1	8156	493705.718977349545	147.52905060221
1	8170	494384.97391587752	246.79501272916
1	8179	495089.621913565467	0
1	8196	496584.18112324841	0
1	8230	498445.061796004778	0
1	8250	499036.989343168599	228.83943383539
1	8255	499326.287879909357	419.49950715524
1	8263	499653.120966261494	43.564895069598
1	8280	500640.037050358266	0
1	8291	500925.730306472711	173.69078950432
1	8297	501243.949444409653	403.32295679863
1	8338	502686.011600403191	160.7694703796
1	8367	504345.654852306397	144.23357362237
1	8381	505115.927235187891	0
1	8399	507209.824918044755	0
1	8424	508267.26296600407	191.99457070491
1	8432	508728.084978189563	0
1	8469	513924.619773330461	0
1	8480	516085.31033660941	0
1	8497	517895.406818584529	0
1	8516	520278.443513531689	0
1	8533	521326.885581064073	0
1	8561	525333.957340447605	0
1	8569	525763.321257430875	0
1	8579	527334.234796146475	0
1	8599	528803.879492465461	189.36774896686
1	8613	529617.737044688813	0
1	8622	530621.043665174676	0
1	8648	532905.218538508515	0
1	8665	533656.19053541865	0
1	8673	533938.372668728153	266.80829598268
1	8691	535193.383734162789	0
1	8707	535881.795580874548	0
1	8733	537096.804814132308	0
1	8741	537610.483587492626	0
1	8750	538090.271740534775	0
1	8776	540017.557728527989	0
1	8803	540978.509932786284	246.40071677614
1	8818	542632.099418410673	0
1	8826	542928.150311552044	7.157657524232
1	8835	543258.331834066312	30.639049868766
1	8851	543911.851964815091	0
1	8868	544661.4537501504	71.378985942001
1	8876	544960.760936146684	224.42442134145
1	8885	545251.164233424687	35.052150378011
1	8901	545845.645572772217	226.15865434487
1	8926	546781.522012906479	128.13144837125
1	8971	548800.823142395392	39.224054244354
1	8993	549880.036066519333	0
1	9003	551238.838927852206	0
1	9019	551868.073864165279	136.63422390531
1	9037	553418.334455116103	0
1	9057	554671.195941344747	108.35433361826
1	9071	555220.650755662592	37.864792691449
1	9082	555512.818623170683	119.3109631084
1	9087	555795.696103554207	334.68813975935
1	9139	559954.639939381091	0
1	9149	561391.493257478564	0
1	9157	561837.331243087112	0
1	9175	563374.124781527898	0
1	9184	564746.466002653705	0
1	9209	565787.607752254732	0
1	9227	567345.580333676148	0
1	9252	568944.057198880715	0
1	9261	569238.976420208248	230.36882783736
1	9287	571640.725541983056	108.54224976671
1	9314	574400.359304731097	0
1	9322	574696.957901728763	202.01936163758
1	9331	575363.621301552173	0
1	9339	575676.039427300687	0
1	9384	580081.999555733017	0
1	9393	581885.365032094751	0
1	9411	583167.446213438167	212.65002166979
1	9429	586010.063456252953	0
1	9438	586262.940603484552	233.99582132725
1	9454	586854.774525259631	25.724977253713
1	9463	587166.877057926695	91.558585275235
1	9472	588851.594429535968	0
1	9481	589146.317834973071	268.71517886405
1	9522	590743.358948724388	0
1	9531	591060.052679492198	0.798493330323
1	9556	592380.749419387634	0
1	9565	593334.415794878797	0
1	9590	594597.471558843682	36.220792627454
1	9598	594832.053560745115	15.162789252745
1	9624	596376.906781538438	8.951277143829
1	9650	598268.867893408092	0
1	9661	598593.590819506196	264.99894090476
1	9669	598877.182400301255	289.5199164594
1	9675	599188.165855812545	515.15312204257
1	9692	600276.968129205793	0
1	9712	601599.1316208088	233.95571708396
1	9742	602810.160453212727	205.13050403224
1	9759	603351.793221638153	76.110279516314
1	9777	605222.628940175233	0
1	9785	605466.814472362712	116.84256138171
1	9810	606689.263945025247	143.9463087125
1	9845	609759.348995384364	296.47410650759
1	9854	610449.178007634261	0
1	9863	611310.448002991501	0
1	9881	613042.953802792155	0
1	9889	613698.818550097457	0
1	9933	617352.514582651256	0
1	9944	617660.804005587928	144.49161391604
1	9949	617949.091820306753	373.11026352052
1	9958	618448.180790397148	0
1	9966	618757.989285751274	240.92275028277
1	9975	619907.963185431809	0
1	10009	621343.279742118044	0
1	10043	623285.315230690559	0
1	10051	623594.500373857474	138.8133518636
1	10059	623893.169049825894	29.549250326416
1	10068	624159.893490209197	102.66650005132
1	10085	625114.482881892037	106.62580826268
1	10093	625638.606871370084	0
1	10101	625962.011645783424	181.84764741199
1	10121	626534.516596678968	123.59646822358
1	10141	627179.354205531358	14.838026430004
1	10154	627841.200679288878	24.467295485396
1	10163	628159.327847914182	245.45197283915
1	10179	628770.410293023442	114.19979291221
1	10199	629325.690130722278	108.28567350332
1	10207	629646.84185528824	270.46864957534
1	10218	629977.177574912096	93.277140041144
1	10230	630265.26154204253	3.151536668044
1	10260	631435.111730912286	265.30525467646
1	10276	632007.729224056028	121.73631387289
1	10323	633784.171946529056	97.466383307034
1	10337	634356.488327048657	80.26951509172
1	10365	635344.032835442662	333.11306103078
1	10370	635615.581809233341	433.8450530712
1	10378	635893.337556514292	82.878605313409
1	10438	639279.772897377188	230.83173735614
1	10443	639531.342899072988	290.78147089511
1	10452	640493.655650216547	0
1	10470	642829.032700147347	0
1	10497	645231.809232470498	0
1	10516	648126.894304239836	0
1	10533	649287.833326383485	0
1	10552	652058.598817525794	0
1	10571	652773.367475119002	89.8200685966
1	10577	653110.378803623339	362.8363672439
1	10585	653600.052308554101	0
1	10595	655231.798092333969	0
1	10631	656732.412761726159	247.10641185688
1	10655	659102.340148882882	0
1	10671	659931.280568141639	140.12345929367
1	10680	660249.063681625302	287.35790269148
1	10689	661157.991081676339	0
1	10697	661725.102867532611	0
1	10740	664075.089641769107	81.709162333693
1	10748	664631.745042131539	0
1	10765	665659.360038049947	0
1	10773	665920.51819826715	147.03017496566
1	10817	669707.899834670683	0
1	10826	670169.126269886144	0
1	10834	670732.047096090674	0
1	10844	672255.174059107823	0
1	10869	673237.434352644576	47.270101162477
1	10905	677139.962329410903	0
1	10914	678782.774352905566	0
1	10923	679392.037157547453	0
1	10942	682139.134708225608	0
1	10977	685156.540652840601	80.29959308796
1	10996	688280.720922498656	193.58880445309
1	11005	689514.465954521376	0
1	11014	690372.807764624282	0
1	11031	691067.426416292305	0
1	11039	691434.813733169517	0
1	11047	691745.904190587873	0
1	11064	692502.600807624014	95.298047333398
1	11073	693325.602607181346	0
1	11089	693939.389446489307	52.037365664305
1	11123	695102.465703818496	17.099108024689
1	11146	696032.046256487878	285.48426448778
1	11151	696367.385712030823	459.3109597799
1	11162	696670.801612336152	686.42010859905
1	11173	696986.681221699483	289.26296000699
1	11179	697273.146004667159	370.59161672088
1	11187	697586.684535860661	282.68047161156
1	11201	698190.521075415198	256.42136019803
1	11217	698813.881268202204	158.97038016899
1	11232	699068.734722480843	168.08052616286
1	11237	699366.521076088716	355.33644411039
1	11248	699657.015564097976	187.20222391845
1	11259	699991.258755531236	457.15017651649
1	11282	700558.50341583346	298.08202417553
1	11296	701164.054486513904	282.11321087971
1	11340	702623.435283903924	5.368369339969
1	11370	703838.406133354576	245.21642998472
1	11379	704134.987463029956	179.63744147192
1	11450	710854.97327959806	0
1	11459	711723.563029718302	0
1	11468	712078.015355149942	328.19031753916
1	11476	712357.199212491971	110.54062640281
1	11521	717259.008815468443	0
1	11531	719782.917376066067	0
1	11549	721834.262943888592	0
1	11579	727624.040391516756	0
1	11590	727920.702604679535	293.32994740184
1	11596	728162.56461892088	392.86806182721
1	11604	728436.407288732762	11.163825856896
1	11614	730099.964482991166	0
1	11645	731261.335632039611	84.37789648431
1	11664	732261.55637088151	81.773396353299
1	11680	732987.734023271685	177.16668293823
1	11689	733513.237277784408	0
1	11706	734424.835099395762	259.77529124425
1	11735	736684.56535882543	181.81261323974
1	11743	736933.087931740873	195.32837968262
1	11765	737724.890251445754	73.989899952487
1	11774	738328.767919800573	0
1	11795	740174.540780755423	221.95895932701
1	11835	743986.843043841464	0
1	11846	746281.431968084266	0
1	11863	747100.780161631391	195.42922472421
1	11872	748296.314888595466	0
1	11880	748561.697252792323	170.39358423313
1	11897	749777.966197296998	0
1	11906	750094.651161885353	153.62240972783
1	11940	752217.823858655156	0
1	11965	753652.819905430712	58.621053581892
1	11976	753935.032279642197	264.49437579412
1	11982	754267.514633235578	596.49205258875
1	12028	757594.142701809369	290.9673664282
1	12033	757897.605660010978	390.28104655228
1	12042	758291.540270244734	0
1	12051	759640.533867485606	0
1	12068	760759.893298818254	218.14590723118
1	12080	761051.043895296707	244.2990562121
1	12093	761628.457790214681	145.97461818792
1	12113	762234.625020261487	245.74247060738
1	12124	762609.57313640753	538.98822250529
1	12129	762912.476318856317	661.86268347176
1	12149	763521.071294232675	214.99766412102
1	12154	763836.866793296327	425.65141830933
1	12166	764127.745737492635	634.64285341441
1	12177	764445.809616824395	537.88126015462
1	12182	764765.346655128055	595.57018462276
1	12207	765682.998760647012	95.187724801795
1	12227	766278.918482385529	47.75839510712
1	12235	766537.569781108286	3.683648367432
1	12246	766822.891322895134	76.89121501468
1	12258	767125.105071135019	21.471488056013
1	12289	768089.795410785211	199.57546733266
1	12294	768429.592603650035	521.04155330726
1	12381	772015.013745250009	289.14716215561
1	12400	772944.5275800912	243.56715218338
1	12409	773698.710486787278	0
1	12427	775348.55982461232	0
1	12435	775757.442801436731	0
1	12461	777791.542695718646	0
1	12487	779027.554082448847	141.70389481209
1	12498	779314.031972449922	219.35965244951
1	12503	779578.732435243164	362.04882372992
1	12511	779866.311132351951	199.77536335935
1	12563	783506.219653240179	0
1	12573	785599.102541050044	0
1	12581	785928.424795147513	249.93770563572
1	12590	786217.731915490216	234.16596417169
1	12608	788587.671405219634	0
1	12641	789748.302529372243	126.72377098859
1	12650	790061.681637545264	152.27788535327
1	12658	790607.485511486165	0
1	12675	791724.019588597579	242.66002362204
1	12683	791992.80570533759	176.49034845906
1	12692	792605.79595296517	0
1	12712	793153.315404638473	172.59524603637
1	12720	793447.65224272348	97.516157068652
1	12737	794043.396247801832	215.57632515308
1	12759	794643.576811652444	194.72878427596
1	12764	794937.795382428038	440.37734047301
1	12770	795229.688450558174	600.91855568214
1	12811	796638.996130556766	206.86250329144
1	12853	798510.06977447292	186.87151338555
1	12867	799113.76580940644	215.88881924139
1	12883	799943.861288803512	0
1	12892	800293.486199864615	16.085384403823
1	12936	804164.402096995638	109.25504127104
1	12944	804641.121042624714	0
1	12953	805879.981701212701	0
1	12962	806279.66390770465	0
1	12970	806616.441409456625	0
1	12993	807459.172026051052	185.78277307813
1	12998	807759.306161123641	350.72287139152
1	13020	808807.370833145333	0
1	13029	809085.938386788852	46.255350450326
1	13045	809930.946212654096	241.71189228373
1	13105	813737.152551492364	0
1	13116	816209.148660027358	0
1	13133	817851.916646697945	0
1	13142	818157.790105270658	0
1	13150	818944.139283450953	0
1	13162	819241.313980085721	171.7554900477
1	13176	820140.042266391124	0
1	13184	820541.907972928894	0
1	13204	821501.859404318315	240.36954760337
1	13212	821763.993322867745	84.452284987912
1	13229	822378.416654798179	35.138345116403
1	13271	824029.775760807525	103.29866546523
1	13279	824316.911749908778	299.18308102233
1	13295	824903.50726166032	201.49954574126
1	13304	825218.980566375154	83.86165288377
1	13320	825810.631818209852	102.28144898111
1	13329	826136.090903671127	412.80885976334
1	13380	828539.518877053614	300.66495992024
1	13388	828821.02883567892	395.18065657954
1	13394	829114.359453926557	565.75950338957
1	13419	831022.082509344927	0
1	13453	833843.910335869826	0
1	13462	834175.646952991883	0
1	13479	835192.135930785479	0
1	13505	837408.81890766458	0
1	13513	837746.937108349015	150.32409754489
1	13522	838096.874730088071	0
1	13533	838418.30433081302	112.52207649494
1	13547	839332.446317121104	0
1	13556	840258.450009944094	0
1	13587	841373.297839696124	226.52009991932
1	13624	844161.434877891895	0
1	13641	845849.911038130299	0
1	13650	846398.172371999004	0
1	13668	848036.990866419472	0
1	13685	849630.755326108343	0
1	13702	850447.292464866994	0
1	13710	850773.24761401187	147.87910868871
1	13719	851028.994585980907	73.348579399164
1	13735	851766.026634975589	283.97810194302
1	13747	852082.149796240615	241.17505470639
1	13752	852428.380283485181	456.41586862789
1	13769	853030.726739383184	173.56515717065
1	13828	856225.540995899689	191.34307318418
1	13846	858310.94451075284	0
1	13863	859417.574779692085	0
1	13872	860482.125555452614	0
1	13880	860775.26104876601	256.73321560044
1	13889	861123.666719202291	0
1	13897	861405.408908214886	85.566001429911
1	13914	862054.270448918764	118.21259288749
1	13942	863819.322191423122	59.566398470945
1	13964	864720.652561467447	87.613902901221
1	13984	865341.379888909337	106.84324453527
1	13997	865891.633050497339	88.651176682094
1	14030	868466.865132734182	330.04448777751
1	14038	868758.283552167169	320.78418063704
1	14077	873100.626621135253	0
1	14086	874082.734206009963	0
1	14095	875251.616686327405	0
1	14113	877421.108856073969	0
1	14130	878073.395923580665	170.2387575462
1	14147	879343.324540192463	0
1	14156	880066.849156912919	0
1	14167	880346.627217961641	210.46735020153
1	14175	880638.314999102782	293.94661725389
1	14192	881135.766191442727	97.657128351255
1	14205	881756.042781010225	272.34491222259
1	14214	882063.181240739404	107.96594160271
1	14233	882687.847527412373	147.57062285801
1	14239	883053.757794423686	397.52890950185
1	14264	883717.071587124284	249.90957499484
1	14272	883983.667974785258	333.52169243999
1	14281	884280.337434483058	488.22637005669
1	14324	886011.469082112142	267.22804668627
1	14371	887847.039685752229	253.07270857282
1	14380	888218.076659885093	0
1	14389	889063.401920564849	0
1	14405	889972.772334732078	0
1	14440	892289.299382638871	0
1	14458	894985.768709516231	0
1	14476	896883.328512726661	0
1	14485	897836.718468327784	0
1	14494	898161.481321133551	289.78388221532
1	14541	905041.192764413579	0
1	14549	905874.959692744396	0
1	14559	907047.384157775535	0
1	14567	907726.283883711348	0
1	14575	908014.616199459754	134.54772948742
1	14592	908610.666605609763	82.001984707035
1	14603	908895.104752436282	222.94355335872
1	14626	910020.448715599111	68.842294820842
1	14637	910382.220397667869	324.15044199218
1	14645	910718.996752681685	501.87020397655
1	14654	911044.149197681041	585.84203005911
1	14709	913842.168294490253	289.28865072568
1	14721	914157.796262855402	141.37752298742
1	14732	914538.152475197318	346.20687180644
1	14740	914834.25535005995	34.288528842311
1	14794	918304.773625079677	0
1	14802	918615.463300072805	21.677318333418
1	14811	919825.701305280712	0
1	14820	920151.515072644352	180.32864878801
1	14828	920926.243888538911	0
1	14840	921246.118416741219	154.96154546494
1	14851	921582.283072269618	49.64674393769
1	14870	922759.896061708791	0
1	14887	923508.13074452288	0
1	14915	924431.802533222084	225.22241023554
1	14931	925003.760836058606	200.96509885547
1	14951	925656.346008007723	240.9979370801
1	14956	925941.06538214235	359.16203534564
1	15004	928995.091820830021	112.49734027732
1	15021	930015.6124574627	0
1	15030	930259.829926527876	103.52097650839
1	15039	931083.882246411165	0
1	15047	931542.899572236077	0
1	15064	932100.136897034219	49.80364953691
1	15072	932679.191303485598	0
1	15089	933344.68801795943	233.45018185752
1	15125	934767.222952673617	233.87401483241
1	15130	935001.388880782119	437.89074797712
1	15165	937555.046275877321	0
1	15182	938229.39973524675	286.10628835099
1	15201	938841.702672741564	253.58998078954
1	15207	939117.299669910952	477.89847411045
1	15215	939708.64928083367	0
1	15223	940014.192799460624	175.05306361538
1	15240	940735.648440565275	104.2051336875
1	15257	941811.812266317217	0
1	15272	942105.678814913344	148.08315997394
1	15286	942395.326785979822	136.13492239747
1	15294	942703.666496580466	416.72071221091
1	15300	943041.076697838935	652.49259741049
1	15330	944133.783225515828	134.2883459521
1	15338	944428.895119159364	252.94887152444
1	15398	946713.875638343442	123.68391644552
1	15423	947895.993365485643	30.852686986907
1	15433	949757.659984716967	0
1	15442	950083.543225167708	179.50497406263
2	844	50824.291454678376	1
2	846	50824.291454678376	0
2	853	51084.037671460237	1
2	858	51112.031809106614	0
2	866	51374.766758501112	1
2	871	51688.333105794098	0
2	878	52557.82024598609	1
2	880	52557.82024598609	0
2	883	52576.765848660233	1
2	886	52707.319426632813	2
2	891	52837.316571841142	1
2	895	53022.808566153158	2
2	900	53163.037263741453	1
2	905	53472.377983556625	0
2	908	53619.703882432098	1
2	916	53802.007535404088	0
2	928	54227.948704289662	1
2	931	54369.248489630786	2
2	936	54417.73566534653	1
2	944	54671.89285662927	0
2	958	55396.133373265507	1
2	963	55541.211457693511	0
2	1002	56972.405278271317	1
2	1011	57165.737988169918	0
2	1045	59391.035587504847	1
2	1047	59391.035587504847	0
2	1053	59964.569247089384	1
2	1055	59964.569247089384	0
2	1062	60507.925037137043	1
2	1064	60507.925037137043	0
2	1079	61314.316950463115	1
2	1081	61314.316950463115	0
2	1087	61938.449214426338	1
2	1089	61938.449214426338	0
2	1113	63519.758005762117	1
2	1118	63541.715549945825	0
2	1147	65426.9329664196	1
2	1149	65426.9329664196	0
2	1152	65729.860955076098	1
2	1157	65769.112162737377	0
2	1164	66094.557000521773	1
2	1166	66094.557000521773	0
2	1177	66641.042981837954	1
2	1182	66724.75610754744	0
2	1195	68471.994555483153	1
2	1200	68484.1382040901	0
2	1206	68642.91562210417	1
2	1214	68778.951863008265	0
2	1223	69174.747441943012	1
2	1228	69317.852619578811	0
2	1234	69439.96829956508	1
2	1239	69614.693907062088	0
2	1242	69865.097551051828	1
2	1247	69896.362190122944	0
2	1264	70877.802645092744	1
2	1266	70877.802645092744	0
2	1311	72901.225551921076	1
2	1317	73140.057380056007	0
2	1320	73329.980009235632	1
2	1325	73470.491401147354	0
2	1340	74968.170813213697	1
2	1342	74968.170813213697	0
2	1366	76862.016444560743	1
2	1368	76862.016444560743	0
2	1375	77263.975919699309	1
2	1377	77263.975919699309	0
2	1383	77925.264967097303	1
2	1385	77925.264967097303	0
2	1406	79700.316670869403	1
2	1409	79897.604356985235	2
2	1414	79939.60641662452	1
2	1421	80063.120932923605	2
2	1426	80298.40644305384	1
2	1429	80344.764970796531	2
2	1434	80601.893371062889	1
2	1439	80832.419065384364	0
2	1465	82840.801658545958	1
2	1474	83076.072167045558	0
2	1502	84315.509868264389	1
2	1504	84315.509868264389	0
2	1512	86276.487434269569	1
2	1514	86276.487434269569	0
2	1517	86466.243439504336	1
2	1522	86574.741299540692	0
2	1537	87339.637618306111	1
2	1539	87339.637618306111	0
2	1550	87712.868776116143	1
2	1555	87947.524392453581	0
2	1562	88897.332499073628	1
2	1564	88897.332499073628	0
2	1587	89895.661973902467	1
2	1589	89895.661973902467	0
2	1592	89935.087375455874	1
2	1598	90216.428868277056	0
2	1618	91325.057747397603	1
2	1623	91395.605606118422	0
2	1638	92300.826336860804	1
2	1640	92300.826336860804	0
2	1643	92308.08654203527	1
2	1651	92597.918310350437	0
2	1671	93751.019984661738	1
2	1673	93751.019984661738	0
2	1680	94024.333793738524	1
2	1685	94053.120615301932	0
2	1693	94584.29917335277	1
2	1698	94689.839680160952	0
2	1748	98496.043789869983	1
2	1750	98496.043789869983	0
2	1757	99652.324686440139	1
2	1759	99652.324686440139	0
2	1766	100859.587161631138	1
2	1768	100859.587161631138	0
2	1771	100972.085898154558	1
2	1777	101203.180674666321	0
2	1788	101853.429688173485	1
2	1793	101954.799665979556	0
2	1835	105271.505230445136	1
2	1837	105271.505230445136	0
2	1843	105805.819826912655	1
2	1845	105805.819826912655	0
2	1849	106061.021096589417	1
2	1854	106124.696166341669	0
2	1860	106570.902279237013	1
2	1862	106570.902279237013	0
2	1895	109735.668016941271	1
2	1897	109735.668016941271	0
2	1913	111116.491387181486	1
2	1915	111116.491387181486	0
2	1921	111449.69566615898	1
2	1923	111449.69566615898	0
2	1953	114658.34534029295	1
2	1956	114776.291466427258	2
2	1961	114842.545326360931	1
2	1967	115173.372330844907	0
2	1992	118888.576647575698	1
2	1994	118888.576647575698	0
2	2002	120706.678587471832	1
2	2004	120706.678587471832	0
2	2011	121069.005569465883	1
2	2013	121069.005569465883	0
2	2042	123989.231287512314	1
2	2048	124036.544172901148	0
2	2051	124156.382434322795	1
2	2056	124323.264250155426	0
2	2062	124704.775352367593	1
2	2064	124704.775352367593	0
2	2067	124712.897750873977	1
2	2071	125005.76648728343	2
2	2076	125044.167730129119	1
2	2081	125356.15555374478	0
2	2084	125617.233727529967	1
2	2089	125680.996958670062	0
2	2096	126222.967059130968	1
2	2098	126222.967059130968	0
2	2110	127347.858371882987	1
2	2115	127470.651477428045	0
2	2129	127876.228999788098	1
2	2135	128068.723964080763	0
2	2161	129003.836597283169	1
2	2166	129021.471399270143	0
2	2169	129157.236786987687	1
2	2174	129361.428834352923	0
2	2177	129396.848663136176	1
2	2182	129679.66332783493	0
2	2196	130423.916639861352	1
2	2199	130554.368137700759	2
2	2204	130574.201597454358	1
2	2212	130798.028805395032	0
2	2234	131829.122154023068	1
2	2239	131987.020669212321	0
2	2262	132746.56612042956	1
2	2267	132912.634124596157	0
2	2284	133750.023033415598	1
2	2289	133770.326794418805	0
2	2301	134369.190082683745	1
2	2306	134404.450890447396	0
2	2312	134972.298455036305	1
2	2314	134972.298455036305	0
2	2335	136053.400264030434	1
2	2340	136078.876220772933	0
2	2346	136848.041083011867	1
2	2348	136848.041083011867	0
2	2360	137367.903537360262	1
2	2363	137411.202834023005	2
2	2368	137521.92830032295	1
2	2379	137800.851974474059	0
2	2388	138232.376622830365	1
2	2393	138424.944279323418	0
2	2396	138631.55381831271	1
2	2401	138719.547762387173	0
2	2404	138798.284969049247	1
2	2410	139041.843270811175	0
2	2447	141035.365740400873	1
2	2449	141035.365740400873	0
2	2460	141311.111496473715	1
2	2469	141598.751849817835	2
2	2474	141617.538095924873	1
2	2480	141664.376369201695	2
2	2485	141914.460206382795	1
2	2491	142184.301414866701	0
2	2499	142513.265668694408	1
2	2504	142779.335966878974	0
2	2508	143023.212305779669	1
2	2513	143110.971597872264	0
2	2516	143167.920469349887	1
2	2519	143250.369410389104	2
2	2524	143405.978466445095	1
2	2529	143768.500143070691	0
2	2541	144229.758892487199	1
2	2547	144301.735175772649	2
2	2552	144335.521973606291	1
2	2560	144610.208951843798	0
2	2582	145567.202953218523	1
2	2590	145682.623821212315	0
2	2618	146983.610390819461	1
2	2624	147050.158953442026	0
2	2630	147327.787833845766	1
2	2635	147330.336364588385	0
2	2657	148459.954800862612	1
2	2660	148539.020383316228	2
2	2665	148549.706890815552	1
2	2668	148610.263181208506	2
2	2673	148840.215433871199	1
2	2682	149163.931873998711	0
2	2726	151715.246492265393	1
2	2734	151987.160583010905	0
2	2755	153821.196180764546	1
2	2757	153821.196180764546	0
2	2770	155567.762276908779	1
2	2775	155651.046673256918	0
2	2791	157277.779230927381	1
2	2793	157277.779230927381	0
2	2815	160344.170013521982	1
2	2820	160497.797858453426	0
2	2823	160529.92350931004	1
2	2828	160737.328347114706	0
2	2836	162033.918943320081	1
2	2838	162033.918943320081	0
2	2841	162362.086603633215	1
2	2846	162397.748491571421	0
2	2888	166504.556681322645	1
2	2890	166504.556681322645	0
2	2908	170922.313787045982	1
2	2910	170922.313787045982	0
2	2918	172327.519671872856	1
2	2920	172327.519671872856	0
2	2927	173069.58952659216	1
2	2929	173069.58952659216	0
2	2944	174184.26928378857	1
2	2946	174184.26928378857	0
2	2953	175164.275524249491	1
2	2955	175164.275524249491	0
2	2966	175587.226545580641	1
2	2969	175724.607746513504	2
2	2974	175748.637125050857	1
2	2977	175913.320544825733	2
2	2983	176007.238472328133	1
2	2988	176324.877443328099	0
2	3011	177938.958444994397	1
2	3013	177938.958444994397	0
2	3020	178448.276334892528	1
2	3022	178448.276334892528	0
2	3028	178569.241753946571	1
2	3033	178698.366750663323	0
2	3061	179900.297760600671	1
2	3066	179963.852588742166	0
2	3104	182481.895619357964	1
2	3106	182481.895619357964	0
2	3121	183219.416906639415	1
2	3123	183219.416906639415	0
2	3131	185022.563932432831	1
2	3133	185022.563932432831	0
2	3166	188261.163628531165	1
2	3168	188261.163628531165	0
2	3171	188548.896916905369	1
2	3176	188590.405581868789	0
2	3182	188968.686412626948	1
2	3184	188968.686412626948	0
2	3188	189164.985334089942	1
2	3193	189254.878175843217	0
2	3199	189603.546850345689	1
2	3201	189603.546850345689	0
2	3208	190767.65738921628	1
2	3210	190767.65738921628	0
2	3216	190891.405492109931	1
2	3222	191015.88505726977	0
2	3273	194101.140104405745	1
2	3279	194314.385030385514	2
2	3284	194372.142050362876	1
2	3289	194670.673503030641	0
2	3301	195618.305437736345	1
2	3303	195618.305437736345	0
2	3310	196828.345542101488	1
2	3312	196828.345542101488	0
2	3336	198397.959378016899	1
2	3338	198397.959378016899	0
2	3362	200938.569515533932	1
2	3364	200938.569515533932	0
2	3381	203749.894239115171	1
2	3383	203749.894239115171	0
2	3395	204358.407265697628	1
2	3400	204359.476052569683	0
2	3407	205538.34468335869	1
2	3409	205538.34468335869	0
2	3433	207729.950739688097	1
2	3435	207729.950739688097	0
2	3451	209232.452137263848	1
2	3453	209232.452137263848	0
2	3460	210164.714018084133	1
2	3462	210164.714018084133	0
2	3473	210707.743689511671	1
2	3478	210876.471240846764	0
2	3485	211962.115541152844	1
2	3487	211962.115541152844	0
2	3494	212297.24736288116	1
2	3496	212297.24736288116	0
2	3516	213397.536331293668	1
2	3521	213461.433047224237	0
2	3524	213743.608949243348	1
2	3529	213786.849801552497	0
2	3553	215334.927167226998	1
2	3558	215342.989073345379	0
2	3561	215381.811810519622	1
2	3566	215632.247872493363	0
2	3578	216346.104581105676	1
2	3580	216346.104581105676	0
2	3630	220146.658178464557	1
2	3632	220146.658178464557	0
2	3640	222063.68223849056	1
2	3642	222063.68223849056	0
2	3645	222309.307886741242	1
2	3650	222370.389121550406	0
2	3666	224701.205435106941	1
2	3668	224701.205435106941	0
[...]
7	9749	603048.278021561703	2
7	9762	603675.430404301568	3
7	9765	604751.895163793628	2
7	9783	605466.814472362712	3
7	9788	605770.378150154354	4
7	9791	606058.682098318399	3
7	9796	606217.700984676909	2
7	9813	606959.870870195726	3
7	9816	607674.006363660376	2
7	9825	608176.825669419499	1
7	9834	609382.54731722319	0
7	9849	610025.323170262675	1
7	9857	610792.441878321324	2
7	9866	611605.526010852595	3
7	9869	612521.981154636417	2
7	9884	613357.126077701396	3
7	9891	613727.537112720685	2
7	9895	613974.991921401672	3
7	9903	614626.868947898294	2
7	9913	616694.15747226196	1
7	9918	616697.502620207086	0
7	9942	617660.804005587928	1
7	9947	617949.091820306753	2
7	9953	618273.367395393158	3
7	9964	618757.989285751274	4
7	9969	619011.02391321834	5
7	9979	620178.579290838508	6
7	9981	620381.248024006525	5
7	9986	620517.007561663096	4
7	9994	620942.807075906258	3
7	10012	621592.788081896647	4
7	10014	621621.554528121744	3
7	10022	621981.441321476185	2
7	10031	622802.87158007833	1
7	10049	623594.500373857474	2
7	10057	623893.169049825894	3
7	10066	624159.893490209197	4
7	10071	624457.906542129537	5
7	10073	624819.40212781199	4
7	10088	625415.719841202933	5
7	10099	625962.011645783424	6
7	10104	626129.165059246589	5
7	10107	626186.738616799385	4
7	10111	626270.680805724288	5
7	10123	626609.555121479369	4
7	10127	626829.756612958664	5
7	10132	627107.043780520664	4
7	10144	627524.219452933363	5
7	10161	628159.327847914182	6
7	10165	628339.044885263536	5
7	10169	628505.266556149279	6
7	10183	629048.455677353425	7
7	10187	629205.291312109017	6
7	10193	629232.202433833981	5
7	10205	629646.84185528824	6
7	10209	629877.506854416015	5
7	10216	629977.177574912096	6
7	10221	630190.045165746557	5
7	10228	630265.26154204253	6
7	10233	630569.03915008114	7
7	10237	630834.975209781204	6
7	10245	630945.113293064386	5
7	10262	631502.159460210525	4
7	10266	631703.940503059932	5
7	10280	632268.550181251629	6
7	10284	632541.758516389983	5
7	10292	632825.374987573356	4
7	10301	633028.334433168812	3
7	10314	633682.771344552573	2
7	10327	634064.504503421293	3
7	10340	634692.473909034043	4
7	10344	634709.96702465418	3
7	10359	635271.635906083353	2
7	10368	635615.581809233341	3
7	10376	635893.337556514292	4
7	10382	636213.963116972135	5
7	10389	636838.429053569451	4
7	10398	637379.598138611242	3
7	10407	638337.909892702025	2
7	10412	638483.520222863982	1
7	10415	638583.795302187687	0
7	10441	639531.342899072988	1
7	10446	639834.413913865184	2
7	10455	640801.511909152137	3
7	10459	642416.016157330636	2
7	10472	642861.948749818456	1
7	10477	643164.804683230739	2
7	10484	643708.863359722901	1
7	10500	645535.75043395086	2
7	10502	645790.701838126318	1
7	10518	648385.926454282824	0
7	10522	648407.53629469205	1
7	10536	649621.014105306464	2
7	10539	650953.609935624941	1
7	10555	652346.324109634147	2
7	10557	652472.541048394133	1
7	10575	653110.378803623339	2
7	10580	653375.683697732545	3
7	10588	653897.211221236338	4
7	10598	655573.900581254073	5
7	10600	655855.09416597334	4
7	10605	655904.44477607301	3
7	10614	656289.836863414143	2
7	10617	656450.28791991068	1
7	10634	656982.248316638709	2
7	10642	657891.932168115584	1
7	10658	659412.535069514809	2
7	10660	659605.184906941893	1
7	10678	660249.063681625302	2
7	10683	660533.928445557407	3
7	10692	661425.095668136505	4
7	10701	662062.550319612908	5
7	10703	662329.310491478886	4
7	10711	662612.604493189476	3
7	10720	663533.676519716935	2
7	10725	663788.279764754604	1
7	10743	664333.198154920484	2
7	10751	664923.347373205071	3
7	10753	665008.229101740835	2
7	10771	665920.51819826715	3
7	10777	666254.584893644338	4
7	10780	667163.04314935897	3
7	10785	667304.098473474811	2
7	10797	668164.377076167551	1
7	10806	669141.057713703242	0
7	10820	669964.299208720373	1
7	10829	670470.421071232264	2
7	10837	671005.072965631977	3
7	10846	672516.613212728345	2
7	10850	672555.167405237356	3
7	10857	672880.600864316872	2
7	10872	673533.361784670435	3
7	10875	674170.681195304016	2
7	10884	675216.530109880322	1
7	10893	676499.985961736306	0
7	10908	677416.986697403127	1
7	10918	679110.122624908604	2
7	10926	679679.662701045845	3
7	10929	680084.365869901322	2
7	10944	682239.394018864142	1
7	10948	682443.716491326013	2
7	10955	682881.677138153438	1
7	10965	684885.010549666811	0
7	10980	685432.333504804956	1
7	10984	687970.725652168695	0
7	10999	688608.124183045882	1
7	11008	689797.580499708258	2
7	11017	690667.725144848553	3
7	11019	690691.400167755739	2
7	11034	691371.855799828834	3
7	11042	691668.197172770372	4
7	11051	692037.390927298613	5
7	11053	692202.620708794744	4
7	11067	692755.363380452576	5
7	11075	693599.707132153231	4
7	11079	693622.041056677139	5
7	11092	694088.959726484679	4
7	11096	694235.112579638727	5
7	11100	694246.294176610738	4
7	11108	694807.450195297467	3
7	11126	695395.492633191352	4
7	11128	695743.956349679978	3
7	11149	696367.385712030823	4
7	11153	696371.83108650366	3
7	11156	696632.818946493874	2
7	11160	696670.801612336152	3
7	11171	696986.681221699483	4
7	11177	697273.146004667159	5
7	11185	697586.684535860661	6
7	11190	697893.645646791048	7
7	11203	698239.463558163814	6
7	11207	698515.309309491744	7
7	11219	698858.178026098997	6
7	11230	699068.734722480843	7
7	11235	699366.521076088716	8
7	11246	699657.015564097976	9
7	11250	699678.349995818175	8
7	11253	699826.081652606279	7
7	11257	699991.258755531236	8
7	11262	700117.109603921755	7
7	11265	700160.08590658639	6
7	11269	700253.067273907658	7
7	11276	700345.204684128928	6
7	11285	700847.773009296125	7
7	11298	701410.920597137215	6
7	11302	701454.488667219764	7
7	11306	701494.285717241719	6
7	11320	702124.675191792902	5
7	11323	702157.27636250605	4
7	11331	702439.914125124503	3
7	11343	702930.227008270099	4
7	11347	702969.495142579439	3
7	11364	703762.762209017722	2
7	11377	704134.987463029956	3
7	11381	704346.531730515949	2
7	11385	704409.212156044301	3
7	11400	705048.268785527826	2
7	11427	706957.8963566102	1
7	11433	707241.14233653902	0
7	11454	711151.857912746931	1
7	11466	712078.015355149942	2
7	11474	712357.199212491971	3
7	11479	712654.647124034477	4
7	11483	714217.626609956527	3
7	11488	714389.548170011078	2
7	11496	714764.076344797787	1
7	11508	715155.857055027768	0
7	11524	717525.277137803607	1
7	11535	720022.181691526458	2
7	11537	720312.632736111889	1
7	11553	722156.545273364613	2
7	11555	722481.942828232435	1
7	11565	724227.229500239607	0
7	11588	727920.702604679535	1
7	11594	728162.56461892088	2
7	11602	728436.407288732762	3
7	11607	728715.774052292194	4
7	11616	730351.928189439537	3
7	11620	730417.598052885335	4
7	11627	730889.158233277811	3
7	11632	730983.434208559821	2
7	11639	731214.924296480741	1
7	11648	731549.466724441279	2
7	11667	732592.595173172843	3
7	11669	732612.185277721209	2
7	11684	733300.84192410652	3
7	11692	733827.581927213276	4
7	11695	734093.295317899437	3
7	11709	734749.606462307672	4
7	11712	735796.215366673731	3
7	11721	736399.602914057104	2
7	11726	736460.332582761375	1
7	11741	736933.087931740873	2
7	11746	737113.198862515102	1
7	11750	737199.306086508478	2
7	11769	738041.005807456855	3
7	11777	738621.476479807749	4
7	11780	739840.348407319125	3
7	11785	739951.593212361093	2
7	11798	740457.450326497066	3
7	11805	740818.625851960007	2
7	11814	741355.217269531822	1
7	11824	743604.132390380907	0
7	11839	744299.125065150255	1
7	11849	746596.087149228692	2
7	11851	746830.683118811995	1
7	11866	747385.218841205986	2
7	11878	748561.697252792323	3
7	11883	748861.56384558765	4
7	11886	749275.329213864661	3
7	11904	750094.651161885353	4
7	11908	750208.30338387723	3
7	11912	750414.635496439315	4
7	11920	751329.211204666967	3
7	11925	751406.454012750399	2
7	11943	752463.808426385966	3
7	11946	753037.52215066799	2
7	11951	753166.610324636369	1
7	11974	753935.032279642197	2
7	11980	754267.514633235578	3
7	11985	754553.013311871445	4
7	11987	754795.332325743425	3
7	11997	756507.072907298546	2
7	12005	756912.085739704584	1
7	12014	757274.080370089167	0
7	12031	757897.605660010978	1
7	12037	758208.21138238311	2
7	12045	758626.844547653896	3
7	12054	759987.883016160705	4
7	12057	760441.872528424076	3
7	12073	760808.969048241234	2
7	12078	761051.043895296707	3
7	12083	761307.869247093341	4
7	12095	761673.022881927594	3
7	12099	761919.307343418922	4
7	12118	762390.354936986172	3
7	12122	762609.57313640753	4
7	12127	762912.476318856317	5
7	12133	763201.279241812541	6
7	12152	763836.866793296327	7
7	12160	764040.30404377651	6
7	12164	764127.745737492635	7
7	12168	764159.386173858761	6
7	12175	764445.809616824395	7
7	12180	764765.346655128055	8
7	12184	764802.195632261818	7
7	12189	765046.254500620354	8
7	12198	765509.329486850549	7
7	12209	765931.834261699801	6
7	12213	765979.743793704945	7
7	12218	766030.53420622223	6
7	12233	766537.569781108286	7
7	12240	766801.715669666704	6
7	12244	766822.891322895134	7
7	12248	766861.084218720303	6
7	12256	767125.105071135019	7
7	12260	767187.483937034246	6
7	12263	767336.00298360096	5
7	12267	767459.70828042894	6
7	12271	767572.45611269493	5
7	12292	768429.592603650035	6
7	12297	768717.110627873946	7
7	12301	768828.20752788936	6
7	12310	769086.116559472801	5
7	12318	769351.805526669599	4
7	12337	770225.634896972371	3
7	12340	770383.215766016006	2
7	12353	770899.153839841231	1
7	12357	771046.548951517114	0
7	12385	772362.06673443868	1
7	12404	773197.933479918511	2
7	12412	773987.050755331848	3
7	12415	774771.102651738088	2
7	12430	775621.341616313903	3
7	12439	776087.369672258046	4
7	12441	776104.041773073719	3
7	12449	776618.54371441894	2
7	12465	778090.22122952865	3
7	12467	778295.443547317515	2
7	12475	778707.848873859771	1
7	12496	779314.031972449922	2
7	12501	779578.732435243164	3
7	12509	779866.311132351951	4
7	12515	780165.156754200406	5
7	12517	780780.259432409324	4
7	12526	781718.895181362226	3
7	12535	782264.277613387825	2
7	12540	782315.046708800236	1
7	12548	782654.976165291244	0
7	12566	783756.711950704246	1
7	12579	785928.424795147513	2
7	12588	786217.731915490216	3
7	12593	786521.397970883911	4
7	12595	786796.995201862362	3
7	12610	788637.802574190064	2
7	12614	788916.05521177691	3
7	12619	789043.963830591425	2
7	12627	789168.688415057976	1
7	12648	790061.681637545264	2
7	12653	790333.708338793903	3
7	12661	790893.201747464385	4
7	12664	791435.618915655057	3
7	12681	791992.80570533759	4
7	12687	792259.026229508225	5
7	12695	792837.239890304571	6
7	12697	792902.915493747185	5
7	12705	793001.554601053573	4
7	12718	793447.65224272348	5
7	12722	793585.026114072598	4
7	12726	793757.36386495454	5
7	12739	794267.451494619962	4
7	12743	794328.571769269916	5
7	12762	794937.795382428038	6
7	12768	795229.688450558174	7
7	12772	795272.248376679224	6
7	12776	795510.436495585143	7
7	12780	795698.655270352133	6
7	12794	796091.035173990752	5
7	12802	796335.35632520977	4
7	12814	796900.609217896425	5
7	12822	797242.719754786055	4
7	12830	797638.405110653374	3
7	12839	798183.061783789673	2
7	12844	798293.729966261591	1
7	12856	798826.16871769067	2
7	12869	799386.607440368757	1
7	12873	799400.548969625859	2
7	12890	800293.486199864615	3
7	12895	800575.120382992131	4
7	12898	801509.259679657759	3
7	12907	802568.631190792419	2
7	12916	803083.628740846151	1
7	12924	803789.472737495981	0
7	12939	804419.329577168599	1
7	12947	804932.381207456058	2
7	12957	806200.138004171185	3
7	12965	806598.373536566656	4
7	12973	806875.391221148534	5
7	12976	807217.822802703218	4
7	12987	807445.282906648296	3
7	12996	807759.306161123641	4
7	13002	808087.767629215489	5
7	13009	808412.083590930531	4
7	13027	809085.938386788852	5
7	13032	809412.559114379484	6
7	13034	809665.223699963321	5
7	13048	810080.440960054781	4
7	13052	810252.301885328961	5
7	13056	810287.052076092645	4
7	13064	810643.319339539368	3
7	13076	811993.118569372956	2
7	13082	812230.896752619411	1
7	13093	812857.137508011889	0
7	13108	814010.884951751809	1
7	13119	816521.644656476849	2
7	13121	817006.241457711988	1
7	13137	818157.713568794761	2
7	13145	818441.371878908999	3
7	13156	819160.164144729907	2
7	13160	819241.313980085721	3
7	13165	819496.819722213463	4
7	13179	820433.588575704118	5
7	13187	820833.368483854158	6
7	13190	821201.063251979769	5
7	13198	821390.176844077533	4
7	13210	821763.993322867745	5
7	13214	821767.204557289538	4
7	13219	822078.336859176399	5
7	13231	822391.065557373382	4
7	13235	822653.420978292423	5
7	13239	822851.513937798596	4
7	13256	823728.705538108459	3
7	13273	824241.916028157047	2
7	13277	824316.911749908778	3
7	13282	824658.944538975745	4
7	13289	824725.091298747913	3
7	13302	825218.980566375154	4
7	13307	825509.624918730288	5
7	13322	825901.059873535649	4
7	13327	826136.090903671127	5
7	13332	826463.273644589397	6
7	13339	826904.87255281368	5
7	13348	827266.903721273817	4
7	13357	828210.337479077272	3
7	13362	828217.057222799165	2
7	13371	828428.824464562138	1
7	13374	828473.875662047771	0
7	13386	828821.02883567892	1
7	13392	829114.359453926557	2
7	13397	829395.170836534056	3
7	13422	831321.812833227843	4
7	13424	831727.756144391351	3
7	13429	831855.35465844904	2
7	13432	831876.531921003508	1
7	13457	834155.200701614603	2
7	13465	834456.577975322128	3
7	13467	834671.983904973166	2
7	13482	835481.338977716527	3
7	13485	836364.35908763348	2
7	13493	836772.468050400432	1
7	13511	837746.937108349015	2
7	13517	838056.48354149856	3
7	13524	838135.17593930027	2
7	13531	838418.30433081302	3
7	13536	838737.779907056748	4
7	13550	839608.067288064488	5
7	13559	840591.529048762053	6
7	13561	840751.051924265331	5
7	13566	840930.454426632572	4
7	13569	840933.88392798434	3
7	13572	840950.1698129012	2
7	13590	841697.907965018799	3
7	13603	842936.909724302819	2
7	13612	843360.70740220127	1
7	13627	844464.561425722682	2
7	13629	844671.596638271667	1
7	13645	846170.115555833787	2
7	13653	846698.49567080477	3
7	13656	847300.149568914081	2
7	13670	848087.835211230689	1
7	13674	848349.126795390792	2
7	13687	849634.81586206837	1
7	13691	849921.230458714256	2
7	13708	850773.24761401187	3
7	13717	851028.994585980907	4
7	13722	851314.985610084158	5
7	13724	851461.734796956625	4
7	13745	852082.149796240615	5
7	13750	852428.380283485181	6
7	13754	852740.111299134917	5
7	13758	852779.926333518131	6
7	13772	853327.589946053727	7
7	13774	853649.757857058071	6
7	13779	853741.79949557502	5
7	13782	853943.992333796089	4
7	13799	854815.929221888184	3
7	13804	854975.053034115334	2
7	13816	855933.855638418624	1
7	13831	856480.498392663189	2
7	13833	856564.524400440112	1
7	13849	858603.303801313651	2
7	13851	858887.761959037794	1
7	13866	859718.689594298359	2
7	13878	860775.26104876601	3
7	13884	861085.963617925554	4
7	13895	861405.408908214886	5
7	13899	861585.017581280053	4
7	13903	861685.654184505703	5
7	13916	862285.656891683355	4
7	13920	862300.12877540781	5
7	13928	863541.16627309138	4
7	13933	863686.150375478887	3
7	13944	864003.216673048346	2
7	13949	864127.124793110187	3
7	13966	864752.459963206498	2
7	13969	864871.777459989539	1
7	13974	865035.679701076961	2
7	13987	865581.613397984173	3
7	14001	866165.109124634007	4
7	14004	867047.174048658508	3
7	14013	868110.489711880781	2
7	14021	868197.265483930941	1
7	14032	868519.961801270162	0
7	14036	868758.283552167169	1
7	14042	869046.379916034678	2
7	14056	871130.749172092059	1
7	14064	871513.189751845958	0
7	14080	873430.360664351398	1
7	14089	874363.47371059674	2
7	14098	875550.510705242205	3
7	14101	876200.342064763874	2
7	14115	877493.771831431649	1
7	14119	877733.581264966615	2
7	14133	878394.680450604692	3
7	14135	878635.4317009716	2
7	14150	879671.319231160291	3
7	14165	880346.627217961641	4
7	14169	880406.975574160897	3
7	14173	880638.314999102782	4
7	14178	880845.833747097031	5
7	14186	881093.839764487777	4
7	14195	881420.615006816409	5
7	14212	882063.181240739404	6
7	14216	882394.4815952591	5
7	14220	882418.374964062209	6
7	14237	883053.757794423686	7
7	14242	883371.992792056164	8
7	14244	883408.730637602169	7
7	14249	883443.009420123644	6
7	14255	883576.617698875504	5
7	14270	883983.667974785258	6
7	14275	884227.713780235484	5
7	14279	884280.337434483058	6
7	14283	884306.295793161187	5
7	14287	884580.042394965609	6
7	14302	885241.584536679329	5
7	14318	885831.560711082554	4
7	14328	886360.269443911337	5
7	14332	886559.698918173763	4
7	14340	886784.088687192225	3
7	14343	886790.863624068416	2
7	14360	887536.397911419133	1
7	14375	888162.54369352695	2
7	14383	888511.460731482541	3
7	14391	889171.388892278974	2
7	14395	889364.550594138666	3
7	14409	890326.921523293265	4
7	14411	890722.068422380919	3
7	14420	891408.109189004827	2
7	14425	891472.833821027152	1
7	14443	892572.519412813697	2
7	14446	893147.457582879969	1
7	14461	895241.900415010733	0
7	14465	895278.777348367066	1
7	14480	897154.119849930066	2
7	14492	898161.481321133551	3
7	14496	898390.676732005292	2
7	14500	898491.580414745865	3
7	14508	899642.107234129496	2
7	14518	901145.137553350361	1
7	14526	901625.701381793289	0
7	14544	905315.120142034891	1
7	14553	906169.849216883383	2
7	14562	907307.270325475645	3
7	14573	908014.616199459754	4
7	14578	908044.551476163499	3
7	14582	908311.763463362221	4
7	14597	908768.733115743027	3
7	14601	908895.104752436282	4
7	14607	909179.504633318202	5
7	14614	909694.14563765396	4
7	14635	910382.220397667869	5
7	14643	910718.996752681685	6
7	14647	910913.797765242072	5
7	14652	911044.149197681041	6
7	14657	911377.992099124817	7
7	14661	911416.306361356347	6
7	14672	911990.861818720301	5
7	14678	912158.479332795458	4
7	14689	912898.824208647456	3
7	14698	913533.883079293353	2
7	14711	913991.912441522218	1
7	14719	914157.796262855402	2
7	14726	914215.99781546233	1
7	14730	914538.152475197318	2
7	14738	914834.25535005995	3
7	14744	915156.478121165281	4
7	14757	916907.092669602045	3
7	14763	917222.576708169901	2
7	14771	917355.359864269163	1
7	14779	917732.482465418487	0
7	14800	918615.463300072805	1
7	14805	918906.203851411114	2
7	14818	920151.515072644352	3
7	14823	920407.341685235299	4
7	14831	921044.798310494649	3
7	14838	921246.118416741219	4
7	14842	921442.196370709274	3
7	14849	921582.283072269618	4
7	14854	921890.44480648618	5
7	14874	923051.489393708406	6
7	14876	923059.245029203411	5
7	14889	923626.995259726105	4
7	14892	923647.705923213417	3
7	14896	923846.455250637187	4
7	14909	924398.681730477811	3
7	14917	924684.136242289439	2
7	14921	924705.309938575555	3
7	14935	925337.119548488184	4
7	14942	925436.323877967469	3
7	14954	925941.06538214235	4
7	14960	926224.786571554463	5
7	14967	926579.718499205911	4
7	14976	927525.443051706875	3
7	14984	927915.58787559788	2
7	14993	928676.69487522281	1
7	15007	929233.876443054871	0
7	15011	929286.281564241256	1
7	15028	930259.829926527876	2
7	15033	930528.742473178537	3
7	15042	931420.71402340765	4
7	15049	931683.609382798478	3
7	15053	931800.057041403427	4
7	15067	932411.675192652163	5
7	15074	932769.013766993449	4
7	15078	933011.969961415269	5
7	15091	933458.20050166432	4
7	15095	933680.811872270902	5
7	15103	934194.346821253026	4
7	15108	934467.125114736446	3
7	15128	935001.388880782119	4
7	15133	935080.962073412451	3
7	15136	935273.59550539716	2
7	15140	935326.220389411369	3
7	15153	936816.027336814754	2
7	15167	937846.23650130585	1
7	15171	937930.671170319708	2
7	15184	938330.643796575183	1
7	15188	938538.245740759448	2
7	15205	939117.299669910952	3
7	15210	939367.736028697735	4
7	15221	940014.192799460624	5
7	15227	940339.713576348085	6
7	15229	940415.820504628265	5
7	15242	940993.099804225278	4
7	15247	941030.271008388091	5
7	15259	941819.421857642506	4
7	15266	942062.212308177762	3
7	15270	942105.678814913344	4
7	15284	942395.326785979822	5
7	15288	942532.508820136468	4
7	15292	942703.666496580466	5
7	15298	943041.076697838935	6
7	15302	943141.423980490944	5
7	15306	943305.738265577797	6
7	15315	943697.849671784347	5
7	15336	944428.895119159364	6
7	15340	944646.764070357051	5
7	15344	944728.125042150091	6
7	15348	944874.093354064777	5
7	15367	945583.67999745571	4
7	15370	945643.35316703224	3
7	15379	946114.894011442609	2
7	15401	946966.649502089699	3
7	15404	947291.43730850967	2
7	15409	947375.320429308554	1
7	15427	948220.88922690355	2
7	15440	950083.543225167708	3
7	15444	950090.803370471574	2
7	15448	950352.885224154132	3
