version 2
run QueueMeasurement-0-20170105-15:38:31-5078
attr configname QueueMeasurement
attr datetime 20170105-15:38:31
attr experiment QueueMeasurement
attr inifile queueStudy.ini
attr iterationvars ""
attr iterationvars2 $repetition=0
attr measurement ""
attr network SimNetwork
attr processid 5078
attr repetition 0
attr replication #0
attr resultdir results
attr runnumber 0
attr seedset 0
param SimNetwork.a.parkingLot.parkingDelay "truncnormal(45min, 5 min)"
param SimNetwork.a.runway.landingTime "truncnormal(5min, 0.5min)"
param SimNetwork.a.runway.takeoffTime "truncnormal(5min, 0.5min)"
param SimNetwork.a.runway.throughputCheckInterval 16.667min
param SimNetwork.wg.interArrivalTime exponential(16.667min)

vector 0  SimNetwork.wg  responseTime:vector  ETV
attr source  responseTimeSignal
vector 2  SimNetwork.a.landingQueue  queueLength:vector  ETV
attr source  queueLengthSignal
vector 1  SimNetwork.a.landingQueue  queueTime:vector  ETV
attr source  queueTimeSignal
vector 7  SimNetwork.a.parkingLot  parkingOccupancy:vector  ETV
attr source  parkingOccupancy
vector 4  SimNetwork.a.takeoffQueue  queueLength:vector  ETV
attr source  queueLengthSignal
vector 5  SimNetwork.a.runway  landedThroughput:vector  ETV
attr source  landedThroughputSignal
vector 6  SimNetwork.a.runway  tookoffThroughput:vector  ETV
attr source  tookoffThroughputSignal
vector 3  SimNetwork.a.takeoffQueue  queueTime:vector  ETV
attr source  queueTimeSignal
0	817	50686.865557850819	4966.8328289162
0	843	51346.087982241471	4193.3986173798
0	865	52155.155227882885	5179.7949846778
0	870	52494.895477480939	4632.2739870367
0	875	52782.518822034365	4397.0168441011
0	888	54098.551956739613	3309.1520979092
0	896	54390.975592222707	5538.1917024282
0	909	54940.642759905198	3737.2556988236
0	928	57144.000295365586	5687.1024590265
0	940	58643.440122026299	4301.9403063947
0	959	61623.631702583562	6330.2831428156
0	992	65044.775375700496	6413.4257233921
0	1000	65743.316376811617	4222.8333510926
0	1009	66283.036844871776	3621.3930935353
0	1070	70800.495838946267	7568.943124352
0	1086	71708.567708017776	4730.245445706
0	1095	72300.723146229191	4717.8075739578
0	1106	72828.841508661649	3991.6975822338
0	1142	73983.46261445506	4058.3924963242
0	1159	74615.582513735085	4430.1557770288
0	1170	75216.016112204263	4644.8939676989
0	1193	76407.585384223329	5836.4078867158
0	1198	76720.051041848161	4088.0110870349
0	1207	77002.088032091162	4109.4027350989
0	1215	77292.545599399392	4106.9029848914
0	1229	78004.153707880855	4180.3097240078
0	1245	78939.901110551799	4493.2153603277
0	1255	80661.759258154599	4840.3660605296
0	1288	81924.486975197239	4841.2558678315
0	1326	84456.04390410171	6092.3628342701
0	1349	85029.801611867143	3815.3877815684
0	1362	85605.839128783632	4901.6192884554
0	1367	85957.348339925647	5018.467957224
0	1373	86210.790614173765	4185.2195388266
0	1388	87171.107341506169	4262.638063591
0	1398	87890.847178149801	4113.7947974542
0	1410	88652.281895486707	4462.491393467
0	1457	90882.531136816162	6014.9250767014
0	1466	91786.099679428191	4844.6906809841
0	1478	92309.275734406711	3391.9669711568
0	1486	92655.378961106584	4197.8707114588
0	1506	93280.697229290316	3804.369615896
0	1516	93915.392602587228	4185.0485306152
0	1549	96441.285600684529	6189.8522860514
0	1582	97626.678308645529	5004.8100056467
0	1601	98561.148431273684	5545.769847104
0	1610	99263.282868529603	4775.6706822831
0	1627	99635.029358687511	4016.0157772612
0	1669	101063.139917096976	4898.457707749
0	1674	101337.525066383838	5071.3067424128
0	1679	101603.681279379742	5022.2966234923
0	1684	101938.539679974091	4460.807892482
0	1706	103250.228086091835	3685.3365728411
0	1725	104119.924239959322	6308.782446025
0	1730	104412.709896479776	4547.4872964418
0	1738	104730.772027998629	4793.1288694638
0	1756	106537.473408511039	3543.9304968801
0	1761	106824.754384789023	6423.7119309137
0	1779	108381.604311447197	5352.0578500103
0	1806	111225.567975990549	6665.142478642
0	1840	113265.003737253955	5571.686093769
0	1848	113832.54120758791	3725.1588532664
0	1857	114796.347513290436	4179.7524880529
0	1866	115364.005365626175	4106.4239756538
0	1891	116500.522143114835	4232.1513746601
0	1912	118788.574663499927	3312.0703204887
0	1918	119085.838231937177	6807.6528307955
0	1935	120719.418193004853	5071.3717918482
0	1946	123202.357833646521	5864.0426730323
0	1989	126413.16454978738	6314.1897214008
0	2013	128394.186788287109	5101.3862119808
0	2035	129293.953530250711	4134.4751509542
0	2048	129936.395050443531	4671.9818251637
0	2057	130541.044819889188	5172.9586845506
0	2066	131529.594803520434	4125.1737550261
0	2075	132182.978768627262	4058.8984295465
0	2083	132572.164328341721	4198.1281735948
0	2138	136469.789429810431	7227.8740479386
0	2143	136733.015119910807	3831.4644283349
0	2158	137058.152744174247	3781.5326082407
0	2179	137909.146655111184	4356.2158001463
0	2188	138261.088051771532	3703.2037890808
0	2218	139983.957719125809	3145.1060786789
0	2227	140604.728761110684	5495.0313407392
0	2236	141571.168917833994	4685.2170643462
0	2247	141919.749928664252	3691.7514935991
0	2267	142512.897245637018	3933.1243897942
0	2307	145044.077230680302	6205.18693671
0	2326	145951.363404958731	4097.444539437
0	2343	146526.261956528797	4203.5380234541
0	2348	146815.89606306854	4304.6036344482
0	2354	147104.408521100187	3892.0565622437
0	2394	149015.898559720994	5105.5950932822
0	2404	149685.972693708568	4980.431121517
0	2433	151071.902961599147	5163.7799935516
0	2438	151336.692008615134	4193.8644709166
0	2464	152191.641834355977	4122.1571635886
0	2474	152766.533826896849	4621.8558431294
0	2480	153038.825354838502	4102.5224442858
0	2488	153804.40883112547	4000.7965559018
0	2506	155400.478223276093	5083.170061076
0	2522	155988.417589641854	4437.9960384501
0	2543	157359.523080866458	5403.3670712809
0	2565	158290.412159756272	4016.6837370839
0	2599	160377.251807570923	4962.4572297786
0	2607	160934.901229200327	4389.6268439497
0	2619	161204.095019764955	3874.2482464624
0	2624	161504.41174880843	3818.3920706266
0	2632	161919.272030133588	3477.0709808366
0	2641	162290.276523335337	3681.2763800007
0	2688	166398.256800891308	3900.3057178478
0	2693	166714.349514494139	7685.8616581039
0	2705	167770.944470265709	4384.4469043224
0	2730	168797.191055882813	4310.2029500912
0	2749	171198.202599090762	3478.3046634208
0	2757	171461.96488928369	6262.0060452342
0	2762	171775.461394430728	3797.0990408582
0	2808	176980.962053566551	8227.9704713632
0	2824	177750.027076919186	5055.4979809157
0	2849	178968.598265969043	5132.4308141342
0	2859	180243.847976448115	3884.6126029092
0	2867	180606.791816694415	3867.0378843745
0	2878	180980.804312997581	4066.1366223766
0	2892	181588.734301789128	3806.2941131261
0	2922	184075.805902294412	5713.0645198564
0	2969	186365.759456174573	5583.9182985502
0	2977	186762.431508730713	3697.1506488063
0	2986	187491.820824564075	4040.0380527124
0	2997	187910.799464267435	2919.0269388295
0	3006	188174.744536247903	4273.2394021827
0	3017	188504.094909241208	3077.0409029509
0	3028	189006.437055880685	3949.3696289248
0	3038	191711.141135265884	6011.7304555963
0	3110	199009.111389958057	3441.9035095498
0	3118	199465.663076473302	11132.068318233
0	3138	200456.595863130621	4579.1856555356
0	3163	201380.403613675158	3971.0344012461
0	3171	201686.989303781042	4363.2425978789
0	3180	202042.204448263313	4568.150337017
0	3185	202401.83800618276	4905.8560756991
0	3216	203482.917325154754	5709.9876304986
0	3254	204891.337674164733	4559.2784786423
0	3266	205231.292731028704	5409.7389081123
0	3279	205857.441923238308	3334.819135471
0	3291	206142.396377434491	5600.7685048966
0	3315	207001.778797003804	4162.9125786521
0	3324	207287.58185684065	3837.9492485404
0	3329	207622.809532075201	4132.7181589552
0	3337	207899.178021468833	4092.6529286133
0	3351	208536.79311410152	4669.5925075851
0	3371	209514.740049650596	4534.6533742463
0	3376	209825.231719068546	3863.3405023664
0	3397	211673.440492988944	5594.476895558
0	3411	212520.435951415577	4649.7821850112
0	3464	214841.791711909617	5963.8451116617
0	3470	215098.535203082584	4001.2486951508
0	3490	216522.030244815982	4970.447074071
0	3510	217170.803472225892	4146.5779866802
0	3515	217460.302833873947	4352.1156290941
0	3523	217804.143269122966	4374.9519864971
0	3532	218087.956700180665	4350.8204631982
0	3554	219453.403734209914	5464.3876750378
0	3571	220084.907120289228	4155.9905042911
0	3605	221240.404068511715	4754.7055056574
0	3621	222081.915393179504	4205.7996953119
0	3637	222883.218857753576	4793.016683579
0	3649	223890.351444697852	3575.0650712326
0	3655	224159.52013090098	4645.1584584701
0	3663	224715.137018175669	4075.027343728
0	3675	225225.847389508351	4078.4336305403
0	3683	225520.467450884199	4376.92159246
0	3726	228921.03978848869	3441.5900723693
0	3741	229283.343115578454	7196.8919727149
0	3757	230214.580603885762	4180.0880618174
0	3768	230849.577944125559	4432.009673611
0	3791	232496.747952781786	5625.8861457638
0	3814	233463.735178201392	4466.9002826289
0	3833	234302.522856724029	5238.3896480085
0	3841	234815.929297960614	4182.1263418697
0	3867	236417.623353829564	5124.3044076164
0	3881	236883.484142541898	4084.2839362253
0	3895	237432.372026056434	4275.3119903587
0	3912	238667.034255300283	5339.9137296678
0	3926	239405.273247486012	4554.4519681076
0	3938	240148.408380954232	4390.1560333784
0	3943	240416.243333178557	3713.8308507112
0	3964	242284.960803145323	4922.0612169187
0	4026	245319.631490424827	6775.3028774989
0	4051	246325.969154803544	4695.1816750461
0	4056	246616.48007291955	4375.2468414504
0	4061	246917.281255026949	4437.2346879367
0	4076	247610.611271599507	3516.7157533937
0	4101	248522.387664112888	5097.304206051
0	4106	248778.940916734994	4618.4389291854
0	4115	249051.779055739551	4657.7586918776
0	4120	249343.326956806901	4027.4088970803
0	4149	251041.944368529411	5603.1080623361
0	4154	251377.415400901222	4011.236051365
0	4183	253208.264459736679	5300.601787087
0	4191	253499.796956400071	3850.2854260076
0	4225	255800.794230814661	5426.3447656453
0	4234	256054.652496345549	3622.0706916995
0	4239	256336.247278107875	3708.855480819
0	4256	257154.673934982511	3813.6567122167
0	4265	258061.465388931133	4305.4832843091
0	4282	259868.522067196601	5464.4566414841
0	4303	261386.883386629935	4914.8142865136
0	4329	263924.422293390998	5793.7266345014
0	4349	264610.971415323581	4015.4663248099
0	4368	265459.269057721994	4127.9559243297
0	4380	266852.183583019045	5098.4585521548
0	4397	267471.087673667087	3608.6529875678
0	4411	268126.915008563399	3598.1361198227
0	4427	270092.893449116116	5475.1984197432
0	4446	271005.780610164072	4372.2278001043
0	4475	273750.604182808292	6494.6409004416
0	4481	274012.086146841891	4248.3503747685
0	4517	275942.90332049127	5999.4528949533
0	4523	276238.153158023789	3993.4033413875
0	4533	278063.995898756552	4955.9802728846
0	4541	278374.019298986377	3849.7818687485
0	4549	278700.032102101141	4123.2675309838
0	4577	282419.167816850211	7033.5033794419
0	4586	283177.255532652958	4467.9624975994
0	4634	288595.504309573122	3209.1218864061
0	4659	289451.255516227902	9027.0050786118
0	4673	290319.629612433658	4861.9087561113
0	4682	291237.365128578988	4466.3316511832
0	4702	292115.239958426623	4934.7589795754
0	4710	292458.84582903789	4053.957326544
0	4715	292756.709232791323	4008.1384717974
0	4734	295178.811417910975	5849.0217296587
0	4776	297288.62958307462	5756.5274040147
0	4802	299157.699671411016	5700.6231559739
0	4810	299573.943773401597	4003.4267057153
0	4821	300002.868785227459	3625.4064621586
0	4830	300304.231451711501	4146.4972686199
0	4838	300545.919070269981	4089.8809487603
0	4855	301672.359876359871	4322.1038806356
0	4870	303898.691525613085	5654.7257643078
0	4887	304842.6522469529	4528.5027446366
0	4926	308019.300596315257	6515.9592361309
0	4960	310514.740592900922	6224.0548542588
0	4968	310837.07462949933	4017.2068682607
0	4977	311142.751708960704	4277.9113803506
0	4985	311491.440607284265	4429.8078767844
0	5002	312737.516358861851	4941.7301292532
0	5011	313059.327071504358	3678.8234413485
0	5058	314547.55366492436	4636.6647624029
0	5100	316557.271355928508	5113.345387507
0	5133	317650.460591583019	4562.4140356028
0	5141	317982.605571005339	5032.3268138683
0	5147	318288.691783784136	4563.0007559153
0	5155	318576.357488713358	4561.3613466882
0	5169	318873.30428869919	4564.7598724807
0	5194	319761.476545872365	5407.9167485358
0	5225	321032.101439616253	6525.6003467692
0	5230	321307.397422367849	6033.4370576054
0	5235	321559.227128180534	5229.3347458855
0	5243	321843.492316444456	5499.6375866533
0	5252	322148.233401815249	3364.2035343921
0	5257	322470.532589471025	6113.0768116763
0	5288	323728.173710952883	4932.7235285844
0	5293	324005.60396751169	4411.5089821297
0	5299	324294.892501869943	4535.8874624118
0	5316	325729.672777621811	5939.9932490029
0	5325	326273.002039978621	3641.6647234961
0	5351	328662.519747958722	5751.9608088722
0	5361	330249.716708948874	5364.9515962085
0	5369	330960.690196188829	4530.0879584113
0	5397	334403.072155984361	6549.5471988452
0	5453	336975.091915219229	6008.1020095567
0	5492	338397.860645525788	5669.7219739661
0	5497	338656.872774762336	3776.088231506
0	5506	339431.034113036422	3739.4673530738
0	5517	339865.013086546118	4407.5080540155
0	5523	340162.050899367522	4291.731510984
0	5534	340529.903323906667	4601.5593438927
0	5539	340837.809323957264	4171.1754495212
0	5551	341308.630287051473	4360.5850501377
0	5556	341552.615382956048	4487.4469645681
0	5626	347179.017979013875	10035.999798029
0	5647	348240.44158643385	4885.6847967738
0	5705	350324.610761844273	5423.5752036514
0	5710	350605.209639665522	5596.0896125446
0	5721	350899.314551076295	5708.3217444897
0	5743	351838.861760199501	6217.2348350069
0	5755	352155.551986119516	6082.1738199014
0	5766	352456.255426295386	4515.604442243
0	5777	353117.505966514229	6731.1776877159
0	5788	353455.684196659747	5218.8298709042
0	5799	354045.826965855175	5935.5959502097
0	5810	354327.910898997728	5535.9154254514
0	5818	354588.515896785647	5710.0059165196
0	5857	356194.728321135417	6423.173590761
0	5865	356486.50115418487	5755.3622539959
0	5879	357137.963449572291	6261.1616380148
0	5884	357441.871423064017	5271.2056281252
0	5892	357839.072223368223	4619.8932410744
0	5915	358572.595322810125	3897.1326917488
0	5920	358921.113736104113	4583.534439487
0	5926	359258.1360611225	4427.7360156869
0	5943	360117.905146607139	4777.9644732263
0	5952	361424.03737079867	5112.8218083391
0	5961	362805.187460035021	4879.1128065569
0	6060	367032.488139904444	3502.6879318445
0	6091	367702.107996253425	8246.8805260665
0	6110	368631.70220875757	4572.3110757606
0	6115	368982.201832218324	4884.5530288616
0	6124	369248.904398515418	5417.1978046418
0	6135	369588.065549984052	5216.6653440668
0	6149	370204.402920346332	5982.8213047398
0	6154	370521.587584408567	5707.5736522488
0	6162	370804.777520465503	5179.5392697801
0	6168	371046.144955664518	5256.9361205297
0	6173	371412.222325192134	5210.7558710993
0	6181	371717.615412456054	4798.5293164403
0	6186	372003.998754032553	4438.6301127395
0	6212	373342.241291480637	5650.2667375434
0	6266	376604.033313042657	7324.6177490394
0	6271	376923.724255659949	4542.1160748697
0	6283	377599.266395724912	4915.3151717146
0	6288	377955.486915943166	3893.0914616974
0	6303	378624.026242926424	4303.0223468744
0	6325	379579.543206213483	4134.1992282024
0	6330	379878.431103773075	4298.6255786997
0	6348	382006.644919761677	6276.3090631855
0	6360	382537.411940568902	4044.8625257271
0	6391	384371.909174085613	5714.0519072552
0	6408	385408.372004276687	4211.4018460447
0	6417	386758.605868605736	4429.9350090594
0	6426	387345.201549710084	3853.0708291075
0	6438	388032.428033353883	4485.0651235605
0	6461	390831.554008436505	6439.2189566107
0	6483	393749.830820693226	5958.9734334778
0	6534	396596.989662594137	6767.0386616508
0	6554	397226.642314819454	4157.2284063462
0	6576	398057.734832475878	4596.673490064
0	6587	398355.864138957846	4383.2191079042
0	6606	398942.938773586527	4720.1211098405
0	6622	399847.468853256254	4874.4640986396
0	6634	400182.127951166638	4990.4973485025
0	6645	400496.524862147681	3453.0396577926
0	6655	401006.678212948518	4600.363543173
0	6667	401624.124190518359	4229.8084796255
0	6675	401923.790881610887	3578.3096341578
0	6697	402801.874716251942	3992.3038626057
0	6706	403744.5889452495	4823.6680066599
0	6738	405528.764615539884	5150.1957263158
0	6757	406469.830326703061	4570.3051525917
0	6774	407648.571629103936	5589.5783731893
0	6783	408176.338859240891	3493.2651540353
0	6791	408612.165364809856	3898.4330840649
0	6800	409323.472997479204	4045.4092812427
0	6808	409840.463075152995	4139.4897850725
0	6852	413453.18382041311	6651.9351352836
0	6867	414443.012343182444	3907.4704640682
0	6897	415674.781139938506	5701.7826307659
0	6902	415988.136181413889	4784.8127292766
0	6916	418097.214732866307	6188.150767528
0	6921	418420.641156119414	4222.4776483397
0	6929	418824.472500673463	4316.129431328
0	6985	426610.694714687889	2970.8377013782
0	7016	427995.39289749739	4061.0733186402
0	7025	428315.866659407526	13506.952566655
0	7038	428964.378352781552	4511.824961697
0	7052	429915.416267697174	4957.6610551826
0	7067	430630.534193545464	3531.6811793189
0	7084	431287.367760031355	5258.6883284869
0	7100	431933.652545103939	4529.1557433978
0	7122	432886.210926672605	4808.9737470881
0	7137	434144.617336110847	5360.189436081
0	7145	434558.267646941825	4201.1896402784
0	7157	435455.90175801439	3608.6454634009
0	7162	435773.754181783231	4698.586372615
0	7174	436250.035439416257	4183.8145972072
0	7222	439358.698295271636	6678.6412778246
0	7236	439904.355935964381	3703.8996961121
0	7261	440795.750178547839	4207.4552766553
0	7320	443153.580212898128	6399.5315602359
0	7328	443467.119758211035	5465.1482640034
0	7333	443733.973017172311	5121.2276325642
0	7344	443988.327635317643	4275.4403545654
0	7350	444288.522389006266	3815.6644479807
0	7361	444571.554540413554	4573.9519571725
0	7389	445523.69153934918	4562.1861243522
0	7394	445811.379221145668	4472.7328519406
0	7400	446109.51257738764	4932.798593416
0	7408	446411.462814385873	4814.3759964325
0	7441	447742.747352407072	5938.7094622589
0	7447	448044.821334395167	3586.9020572436
0	7478	449579.055625551448	4782.6571467296
0	7492	450177.36662732475	3820.9103949483
0	7544	451933.640835766762	5256.9170563349
0	7550	452215.039438410324	5375.381911005
0	7555	452559.781754790658	4321.380030981
0	7567	453167.970320004973	4254.313876254
0	7586	453750.920159628661	4355.4340342461
0	7595	454018.006320422183	3932.4847524861
0	7614	454613.687113888122	4061.0322666592
0	7628	455166.662045653215	4968.1863572124
0	7644	455742.837604030675	5115.0019346116
0	7663	456793.99502713718	5737.419308142
0	7675	457206.711688747929	4285.2134711663
0	7683	457487.58565665168	3542.8461885617
0	7697	458403.135077847695	3814.2449698437
0	7708	458990.126459813011	3502.1385003089
0	7714	459315.532395954019	4283.491468271
0	7723	460370.040444668547	4840.3179320816
0	7798	465751.832264249416	8296.9837118262
0	7804	466043.982393065841	4725.3036759022
0	7809	466353.273467845648	4479.7755879485
0	7817	466955.724849401822	4615.3219230951
0	7826	467368.120275066628	2802.537434576
0	7834	467729.927613620777	4415.14690757
0	7843	468045.833918557457	3451.9062824179
0	7895	472696.835164094096	7572.5036625285
0	7912	473527.850393455389	4458.4322739381
0	7932	474995.744633075073	5035.4132160023
0	7938	475256.494618059879	3734.0321340497
0	7952	475901.728746630016	4260.2277043233
0	7972	476566.489174910482	4666.9485256913
0	8021	478637.9690418331	5745.6113556306
0	8033	479142.208947993556	3383.874863847
0	8058	480052.326740933825	6379.0294545613
0	8063	480378.572659922793	3893.5657806178
0	8080	480849.741462458321	4569.6898768747
0	8089	481155.732063122454	4635.1083447678
0	8102	481770.912470515051	4597.1061080352
0	8116	482436.309413232555	5379.3174035201
0	8127	482765.416225993546	3819.6647080879
0	8138	483394.440048630304	6139.4298017
0	8150	484608.999178176559	5388.4206079355
0	8155	484900.321638890536	3781.2830902792
0	8181	485881.450519733758	4250.7929545115
0	8242	488846.917996867547	6253.7151171815
0	8254	489169.166984053282	3971.8635889849
0	8264	489786.785521825184	4102.8651876882
0	8279	490138.654117695315	4421.4080504035
0	8304	491015.843439343243	5013.9112260196
0	8312	491358.850152948785	5636.8451771752
0	8317	491644.01394182115	5364.3021590168
0	8322	491955.26748250093	4216.8086883069
0	8331	492704.398199961829	4681.4264840941
0	8351	493788.065730672736	3665.3722259937
0	8357	494123.017523049204	5265.6752283311
0	8383	496764.839635682466	6379.1449692374
0	8420	498840.65833543625	5670.3476195746
0	8437	499459.706763350309	4129.8108068136
0	8454	500814.565975735709	3323.8771535123
0	8463	501108.280922491744	4975.9027851734
0	8468	501413.802005395178	3876.3590691754
0	8477	502357.239683449199	4162.8654402259
0	8492	503295.791163748767	4708.3680514624
0	8543	506677.580028180184	7409.7572851074
0	8551	506999.467596299525	3984.9510868675
0	8557	507309.510515777967	3483.8613302613
0	8562	507605.78733994146	4582.1693598439
0	8574	508777.838590597903	4467.2278272164
0	8606	511906.360661743014	6566.8977903556
0	8615	512492.244214406993	3969.876059596
0	8649	514384.240029317469	4889.4940210001
0	8669	516008.458688967214	4669.6811066339
0	8694	516943.032928028272	4117.7450017363
0	8700	517250.625467573564	4229.0742291655
0	8712	518529.126038002799	4995.9186408231
0	8726	519231.58713542415	3381.2735215598
0	8776	521244.332405819339	5850.1679997763
0	8799	522238.907802308281	5928.7710033811
0	8804	522494.875203897696	3082.9140158601
0	8812	522716.867263164957	4293.1307988464
0	8829	523302.85465399473	3877.9323164638
0	8837	523617.086977286645	3866.3584010993
0	8842	523891.134551780866	3846.5005855215
0	8852	525113.697462244865	5053.1997805332
0	8860	525757.068562518959	4221.2454909792
0	8912	529664.015459821449	7152.7468263105
0	8936	531119.863307585266	4931.4507754171
0	8952	531738.546771987559	4187.7720035252
0	8958	532043.864505446315	4190.7039180466
0	8963	532307.991013049104	4561.6210337494
0	8972	533450.849550728965	4884.7357761688
0	8984	534460.976801312913	4034.8281236354
0	9036	538081.744126152574	7237.9401465787
0	9044	538411.589070333348	4048.5671262931
0	9074	539573.480539782884	4018.7499955399
0	9083	540367.529428054481	4425.0353886343
0	9095	541309.397696868882	4333.6969372557
0	9117	542214.30426130696	4725.451188412
0	9136	542855.398033469844	4642.608683383
0	9142	543160.330834474792	4341.3121277026
0	9162	544678.01232234678	3598.5319998914
0	9167	544977.304621006346	5901.9124787709
0	9176	545792.564598579565	4302.6384156524
0	9197	547491.327074664955	5261.5156095786
0	9240	550690.61481731217	3898.6971622299
0	9246	551027.889492714224	7002.6022764501
0	9261	552195.850048508296	5033.0750292024
0	9271	552770.280306260111	4373.4509040634
0	9280	553357.20785724881	4903.375450107
0	9314	555908.027359596529	5834.890274506
0	9343	557813.80721009408	5840.8073828823
0	9349	558095.118575973336	3559.2300528557
0	9357	558632.334519239828	3711.374762568
0	9377	559503.621512961062	4246.9376268417
0	9382	559837.170360077967	3700.8815453224
0	9408	561545.981119727086	5270.7002632225
0	9427	564023.600837514714	5335.7651507508
0	9435	564334.917493876891	3796.0376750021
0	9448	566203.997801474648	5555.4108982073
0	9491	569569.69322040887	6753.6847722405
0	9539	571279.734975711066	5141.9780834013
0	9552	571965.408784649224	4379.3907519855
0	9563	572566.789020724753	5121.1109196437
0	9574	572843.653924573941	3333.4337046519
0	9599	573799.774571158707	6204.4285368063
0	9608	574104.248843645516	3695.9395002408
0	9613	574439.083657258643	4793.7652348147
0	9621	574933.506884623568	4267.6931721465
0	9630	575416.387034048685	4297.5600110204
0	9639	576107.351348855229	4454.4736290788
0	9656	577016.458027816361	4189.5609382709
0	9718	580497.579061536547	7531.8549082206
0	9732	581495.177385297159	5018.4532282233
0	9740	582009.366512171143	4216.1078718938
0	9752	582493.307840858478	3862.4591893195
0	9760	582771.800148805529	3218.6764210587
0	9772	583044.475837242749	4223.439114145
0	9805	584293.238251282386	5275.3099253777
0	9815	584918.425817677151	5196.3198757907
0	9824	585901.603909240997	2877.1296195727
0	9833	586260.633665721077	5841.8140526385
0	9841	586744.009198674377	3407.4046234414
0	9850	587716.696186443918	4067.8740929165
0	9904	590777.779842417344	2841.229476988
0	9910	591112.467043273972	7146.8019262298
0	9927	592309.07678284424	4308.6379583972
0	9935	592702.714493767338	3209.9764760423
0	9947	593399.920038078443	3905.5861478559
0	10002	595447.175222138078	5404.8528682452
0	10011	596726.263682481583	5217.5040878432
0	10029	597545.809321148759	4343.2824013447
0	10034	597818.343209783987	4002.2496024559
0	10043	598123.32971785818	4256.6938805478
0	10051	598419.007318148391	4877.3924478703
0	10061	598955.479475375399	4402.1727821999
0	10083	601640.624825942534	6793.9606989712
0	10114	603326.284511350683	5028.5693902844
0	10139	604868.582796752414	3500.225104108
0	10148	605240.747846968498	5309.1518143874
0	10156	605855.385999469712	4105.0224909013
0	10169	607055.787073532806	5123.4168793395
0	10174	607373.958209600556	3728.4771395509
0	10228	610920.651578539932	6846.3646350484
0	10234	611153.934137973993	3630.9190359887
0	10259	612407.021278455236	4235.1455051713
0	10267	612910.054921100425	3863.161648116
0	10284	613651.520250679105	3790.6560111223
0	10312	614882.601687749658	4465.3951611217
0	10321	615173.557693225589	3871.2104352546
0	10338	616603.718281908491	4766.1770599159
0	10343	616877.465490000889	3937.8737588043
0	10352	617214.57741032981	3507.3517657745
0	10360	617587.534802533989	3795.840285614
0	10430	623061.997171962298	8038.0419851967
0	10458	623753.275815817867	4208.2812579656
0	10497	625278.553849190875	3743.6181745482
0	10505	625549.928474101814	4773.6511674418
0	10510	625828.781207383587	4521.2474679285
0	10516	626151.595047696576	4616.472638008
0	10527	626517.545627404658	4597.0363261809
0	10544	627122.247821378131	4895.1083862901
0	10558	627459.502414192722	4382.6614479876
0	10569	628029.953138895547	4475.1863636671
0	10574	628306.14627642666	4590.368987052
0	10579	628526.993964470556	4979.5349860484
0	10591	629447.675777799132	5697.919746641
0	10606	631094.365639521787	4897.7286162898
0	10631	632621.548873038982	5340.8799655302
0	10655	634870.386684281867	3096.1419569395
0	10666	635443.918073364583	6142.5368943707
0	10674	635811.68209844839	4007.1945026491
0	10684	637644.658872619259	4838.16737571
0	10715	641029.901669565013	6404.824191284
0	10737	642381.490187162779	4496.490250271
0	10794	645591.74134407302	6149.459160404
0	10808	646180.3641705176	5323.6259920161
0	10813	646540.544535322564	4865.0985443964
0	10828	647607.344310943215	4895.8497846531
0	10833	647809.636358091265	3463.9250821649
0	10842	648102.347802852948	4507.6014235689
0	10847	648396.773152364411	3784.0301945891
0	10875	649749.098474373945	4839.3233697085
0	10899	652269.456326557467	3486.4634016789
0	10913	652564.002303323315	7051.8561527185
0	10924	653152.394297496501	4208.7908502008
0	10935	653698.406075543952	4077.940306194
0	10950	655344.375165371612	5287.7298570063
0	10959	656660.906378037505	4126.6668109909
0	10984	662348.459688927033	8706.4596736546
0	11024	665352.935967184293	6431.9413370764
0	11036	666200.466271521523	4074.937752144
0	11061	667118.400358106642	3801.055123542
0	11083	668252.87296605654	4716.257279574
0	11095	669771.382727150684	4982.7904703217
0	11101	670096.81134479871	4025.6916746563
0	11112	670518.444067244237	3554.2659258662
0	11120	670860.810729691722	4383.9567195831
0	11172	674398.117843500068	6828.1789328402
0	11177	674686.758081887236	4114.2800473525
0	11189	675232.651774812855	3780.4164438204
0	11194	675521.722863893497	3547.8221516859
0	11202	675884.956742159179	3895.2554324153
0	11246	679850.810394987234	7545.2099998904
0	11255	680238.409793398586	4012.7241914618
0	11267	681091.835684518399	4594.3069916689
0	11281	682726.229067443113	5360.591393744
0	11297	684134.312834467648	4852.1811360318
0	11336	686956.105644896571	5884.2456957385
0	11370	688185.542500046337	4289.5148098261
0	11378	688499.107622161849	3431.6254151154
0	11386	688750.334333875486	4734.632638276
0	11409	690951.751262449087	5546.739022201
0	11424	691300.716187871819	4224.239107603
0	11429	691663.418672746041	4998.1550441102
0	11434	691965.701864822682	4620.2761082901
0	11452	693221.157290201372	4555.8907085085
0	11494	695854.080656212562	5942.1762535232
0	11515	697460.508918966008	4807.5718105535
0	11520	697738.143610890653	3749.3486867949
0	11532	698137.744700274822	3756.9759936334
0	11537	698423.948092127086	3499.8947693531
0	11546	699604.644975734072	4335.7450241351
0	11593	705995.587178553719	9419.6012293195
0	11612	706805.661228512642	4682.6736444122
0	11643	708556.891475747662	6086.0419202563
0	11663	709287.38024814383	3925.5659640206
0	11668	709548.123095289965	3868.1359006259
0	11680	710263.830498765945	3622.2599437861
0	11688	710562.772860866663	4756.9521721987
0	11693	710824.044142044051	3875.7714480325
0	11714	712187.680671369292	4938.2342353541
0	11761	714685.642390199935	6048.5001550958
0	11773	715375.670881216904	4393.0702863022
0	11801	716346.609483318954	4424.5298587251
0	11823	717280.608866171989	4720.5357875763
0	11831	717584.517361650769	4138.9353153623
0	11839	717879.406655382476	4327.6793466108
0	11864	718809.990608528671	4735.7823542246
0	11870	719151.026963818847	3875.4345697074
0	11878	719690.652422267186	3980.5582924671
0	11890	720579.487784540046	4284.7878838111
0	11904	721187.981559763341	4887.7558687726
0	11912	721573.026718645597	3808.7662626502
0	11938	723822.400897558125	5706.7909900043
0	11948	725167.459551168625	4851.7737921049
0	11968	726253.430924046349	4534.9259743911
0	12007	728624.379546487015	5362.5727983363
0	12036	729574.203918991056	4290.5737502409
0	12055	730481.378028379404	4534.4698229102
0	12071	730996.316615719559	4516.8434057112
0	12088	731640.54815594026	4759.9041762765
0	12099	732208.081173832382	4349.6027669747
0	12158	734186.108952115081	4853.6242171187
0	12163	734484.476969254804	5769.2964271074
0	12168	734799.495308010092	5438.6564387941
0	12180	735079.075125223709	4751.2324755867
0	12185	735377.226775426216	4433.4362353993
0	12196	735677.898910451555	4183.2309921014
0	12219	736323.866016833614	3924.9363278394
0	12229	736958.79292608208	4515.6275895706
0	12235	737221.916044940331	4175.7166179357
0	12240	737506.101030755377	4933.8105774237
0	12277	739475.321719168109	4087.6203610432
0	12282	739782.893355744228	6301.2121847027
0	12303	741263.218958882929	4991.8624392414
0	12316	741830.775283016331	3580.2765805622
0	12328	742314.007924997375	3737.8518216816
0	12345	743899.779626445596	5111.8483213796
0	12362	744544.122436109703	4141.6395821061
0	12376	745757.027476749843	4548.1186398396
0	12389	747302.028144931534	5053.7335028088
0	12394	747625.989086011677	3934.3273609891
0	12422	751207.553438965234	6771.8547938345
0	12431	752622.766030116982	4577.5324309754
0	12467	756942.425524894236	7825.7303954413
0	12476	757327.05581336972	4131.7960641713
0	12484	757963.591340055412	3903.9573146101
0	12547	761546.375516928125	6850.4681186144
0	12564	762420.805534553068	3968.0673438125
0	12572	762692.077866138328	4145.4199225849
0	12583	762981.793310407842	4086.5434716894
0	12594	763546.856315750341	4045.7503085553
0	12612	764467.879795260404	4326.65566611
0	12672	766820.136895387381	5970.3626714009
0	12681	767128.679254206096	5693.9663633883
0	12708	767956.884682522487	5253.4014295661
0	12731	768622.368108671184	4341.8748985155
0	12736	768952.689299349753	4570.3792216548
0	12742	769155.387555173381	4542.7362394217
0	12750	769484.691125547265	4935.8809548511
0	12755	769804.829027790462	4677.3442502899
0	12761	770164.70188653565	5205.4846017418
0	12772	770580.852661028962	5156.8834444038
0	12789	771192.272801386706	4195.3823114221
0	12797	771532.816024218342	4194.2583783214
0	12828	773826.565181635064	6086.600512658
0	12848	774996.154820506711	3733.9408506497
0	12854	775286.165343903298	4714.3947653847
0	12887	776684.066844676707	4622.8490493065
0	12896	777670.990493968427	4528.5899500085
0	12908	778632.942761712854	4499.4799427456
0	12913	778928.903045739242	3626.4871720402
0	12922	779750.938803083873	4361.2422738541
0	12985	783098.878284641204	6930.361749749
0	13001	783735.096960233203	3744.6682719856
0	13006	783997.721366230086	3773.5712307797
0	13015	784385.258881602975	3868.267498072
0	13023	784818.495155750102	3485.8317579405
0	13032	785573.805333044368	3641.6639801804
0	13049	786838.170381491472	4437.8694106852
0	13068	789302.105381437001	6357.7811473403
0	13085	790542.534046677887	4210.2220898981
0	13112	793057.529880578501	5897.038565357
0	13132	794704.212486013856	5042.5813567372
0	13154	795913.197450215639	4473.0570798354
0	13171	796901.82619711202	4605.0689496237
0	13183	797232.009487920768	3787.1472333561
0	13196	797894.481129612742	3510.1326917887
0	13206	799272.656980264991	4484.4780366483
0	13234	800712.640028064079	4583.4862815752
0	13260	802443.061158902884	2692.9917644394
0	13268	802762.852223779019	5811.2905027901
0	13302	804402.661850848997	4213.0152584955
0	13307	804713.825046500318	4259.4236150064
0	13323	806365.324542253451	5035.8961990092
0	13336	807014.187800976692	4264.4020539108
0	13345	807291.878804801335	4412.9363945141
0	13408	809885.352893869805	6067.1411166229
0	13417	810674.679072020198	4556.3656338352
0	13426	811093.519549484005	3754.7885085184
0	13437	811538.966650704111	4342.3981997883
0	13445	811836.450732104172	4322.2791159858
0	13451	812151.242469599491	4408.5427976502
0	13470	812939.830563293929	4999.2853599421
0	13482	813276.803345988638	4313.1470091906
0	13550	815838.470598140972	6779.2520909922
0	13562	816642.831483910263	4325.0391768068
0	13567	816928.246905842488	3896.2725125565
0	13619	818216.975437272166	4672.7657492691
0	13638	819202.290589733108	6025.1602299596
0	13643	819521.218761627761	6014.7579979975
0	13651	819811.163694800433	5947.2404227173
0	13668	820420.970592849307	5670.1496448405
0	13676	820709.914662241647	6737.5859713316
0	13682	821056.525593024887	6065.078576464
0	13687	821329.304849510231	4067.3380541931
0	13695	821608.599506038262	4678.9286939919
0	13703	821964.549469742586	4680.3182317676
0	13720	822622.411123357217	4548.0676471828
0	13725	822952.114525371402	4671.5990716453
0	13743	824986.924309058318	5421.2956790761
0	13773	827576.148041213369	5691.6460211639
0	13795	828964.304331785431	4521.0832463149
0	13804	829274.135579579444	3254.5930333169
0	13813	830667.334018092836	4605.9775876276
0	13822	831558.328644999246	4023.1710581124
0	13886	841668.552971016122	13313.046909728
0	13892	842018.074026116993	3779.3866750685
0	13897	842297.332681673937	3983.1895404921
0	13909	843519.36937544133	4945.8262157344
0	13914	843797.108681629802	3971.1254196566
0	14005	848255.492718184504	8086.6930259691
0	14046	849674.798818898955	4715.8750468454
0	14057	849956.54230676263	4202.6482182568
0	14066	850203.561233713911	4600.1530092854
0	14074	850474.453515986513	4265.6740569448
0	14082	850836.4767460034	4406.035628722
0	14088	851121.163157530274	4474.9933932337
0	14096	851482.50619779685	4562.0361589561
0	14104	851755.530109920533	4414.8785261296
0	14119	852068.656324187439	4603.8644319921
0	14132	852644.095751113445	4403.3072961351
0	14143	853203.347409789485	5232.5215742515
0	14148	853520.827975310026	5209.8879164301
0	14157	854655.080186757151	6207.2255556618
0	14180	855580.429480617522	3639.7719214564
0	14225	858596.927621913119	6010.757203287
0	14256	859662.637015399436	4651.1420379847
0	14264	859946.740562528941	4587.2580253432
0	14275	860524.974599814168	5139.9581638382
0	14286	860975.973751466778	4728.9682003804
0	14292	861256.343046794855	3544.9561807127
0	14304	862224.768508344596	4395.3609810951
0	14315	862541.20997311315	3822.5897708478
0	14342	863690.183787745859	4696.3908453509
0	14352	865248.776033501699	5571.5818093035
0	14372	866449.060099201083	4108.1755071432
0	14386	867095.246577430566	4604.1112796515
0	14412	869357.757400869063	6699.0659959005
0	14420	869958.900900895117	4116.01185759
0	14454	871980.908282320423	5570.6186492218
0	14466	872723.119995432052	4290.2035994888
0	14497	874118.021342188797	5661.4158683351
0	14516	874745.64724567557	3868.0243372917
0	14524	874996.347309897984	4220.9125821974
0	14541	875628.222535004098	4605.8079665565
0	14558	876756.156644380154	4141.1264389381
0	14564	877068.65370124267	3815.9366393981
0	14578	877748.85764151538	4373.8830361194
0	14589	878299.614925531933	4144.5395860304
0	14597	878878.693499139166	4127.5291351106
0	14615	880798.207861637975	5225.196820895
0	14624	881919.12965735637	4362.8263597731
0	14680	886312.267726408036	7076.365404
0	14688	886590.375079758078	3688.1404016358
0	14693	886877.044182905278	3914.390272386
0	14702	887610.37866869361	4553.4903892505
0	14717	888841.337772649609	4809.1142495482
0	14755	892302.674852460139	6808.38536194
0	14772	893126.97166976994	4319.4446440298
0	14799	895087.306400719385	6269.3975493906
0	14845	896803.850495533259	5525.4517398387
0	14851	897069.806277664828	5731.9546029179
0	14856	897386.288967040751	4874.7720915093
0	14876	898314.831744277645	4640.973291866
0	14892	898994.725636908695	4190.0837287267
0	14901	899285.509618378239	4427.7906384358
0	14906	899635.304643990676	4454.2435463964
0	14915	900046.121394007636	4806.1499916808
0	14927	901266.615785432957	5205.766919575
0	14932	901552.059896235455	3817.5693539371
0	14976	905773.480252200994	7504.1662275182
0	15010	906765.675476240678	3842.0656454209
0	15021	907401.896550257219	3830.539252912
0	15026	907707.903169579772	4877.2419625117
0	15055	909139.595239233842	5085.5797639207
0	15060	909413.638354075709	3541.9555955
0	15068	909764.715695957882	3669.9266904164
0	15085	910474.225751955511	3810.6204987856
0	15094	911484.726823146356	3678.9729515817
0	15103	912574.29417614642	4366.6976044454
0	15171	916486.210227347375	6658.1434471891
0	15183	917210.268463430781	3874.5387495855
0	15191	917525.767036913448	3541.4250512483
0	15196	917783.619429120486	3747.031410779
0	15220	919018.954064212613	3704.9520263434
0	15258	920490.262283230853	6277.2423452517
0	15263	920837.584283554958	5324.1031294616
0	15289	922154.940906659737	6245.5993806948
0	15308	922748.071776549436	3799.0498086208
0	15317	923020.731170178526	4615.9039949608
0	15325	923304.56349587066	3761.6355417371
0	15333	923607.162309513213	4479.004845028
0	15338	923924.370549560409	4203.6881732386
0	15361	924852.243954725526	3696.7428003003
0	15372	925456.137338105189	4123.6915370311
0	15382	927716.219187944684	5533.9946846221
0	15407	928847.874525860217	4707.6297880209
0	15429	931306.805562703733	3317.5788526193
0	15434	931620.47729620508	6980.3613436181
0	15443	932185.765755520005	4099.2501538067
0	15520	937692.831383757925	8695.1164866515
0	15529	938181.062490739666	3573.6807220314
0	15543	938628.848997818029	3190.4924625548
0	15554	939182.312065156239	4384.8885345422
0	15571	939509.16822839759	3922.7924471519
0	15609	940994.700943767016	5410.1088061024
0	15615	941277.2190573719	5416.9533826119
0	15626	941539.906391549262	5281.8123976903
0	15671	943106.164738950829	6012.7397599423
0	15676	943401.221526755522	4008.4259266037
0	15684	943698.586800100233	4122.2566602107
0	15689	943996.25410360791	5465.5883451181
0	15695	944301.371841650527	4361.807290199
0	15724	945071.604980897759	4991.3389714523
0	15742	945945.788632238162	4661.5631869183
0	15748	946251.784562145168	4827.1199967125
0	15753	946553.437219897312	4390.7939215423
0	15762	947215.955601083544	5050.0651049575
0	15771	948320.27240417644	3369.5294842388
0	15779	948991.574713020414	4555.5766087575
1	822	50789.399858830459	0
1	845	51346.087982241471	142.70092115989
1	853	51611.616286908632	154.71845056957
1	898	54390.975592222707	49.475776591089
1	915	55293.348559767935	0
1	942	58643.440122026299	12.090469717929
1	961	61623.631702583562	103.14867686453
1	970	62661.643751336474	0
1	979	63231.552714594237	0
1	1014	66978.322262311806	0
1	1023	67582.915572271418	0
1	1032	68837.143926427807	0
1	1041	69925.070118130816	0
1	1053	70262.272448420093	76.845711713827
1	1072	70800.495838946267	229.37369444089
1	1078	71096.673109788552	525.49561228099
1	1108	72828.841508661649	196.80155384841
1	1117	73164.335696575826	271.65039958356
1	1128	73389.443928487961	203.80131397992
1	1144	73983.46261445506	159.61863058203
1	1161	74615.582513735085	168.89676351099
1	1175	75821.393197625028	0
1	1217	77292.545599399392	209.31449203363
1	1234	78363.681069831655	0
1	1260	80704.21984032826	0
1	1271	80998.487198310043	59.606815608347
1	1280	81309.255606234038	94.84177593529
1	1294	82025.571075347138	0
1	1302	82908.46927791515	0
1	1311	83777.052380695571	0
1	1328	84456.04390410171	266.25340208197
1	1351	85029.801611867143	162.19555175233
1	1390	87171.107341506169	229.69834306204
1	1412	88652.281895486707	194.77364583894
1	1420	88972.400530404062	55.091767154151
1	1429	89476.327613394271	0
1	1437	89845.188920276565	114.84484830455
1	1446	90251.433314633171	0
1	1488	92655.378961106584	33.510658107775
1	1508	93280.697229290316	265.31864512059
1	1522	94487.612186246528	0
1	1531	95619.013581426325	0
1	1551	96441.285600684529	276.60339133659
1	1559	96756.926589661923	490.70826569084
1	1568	97031.580502480606	450.19584659314
1	1584	97626.678308645529	148.94652115344
1	1592	97903.376096390244	92.23430245594
1	1629	99635.029358687511	70.137845436798
1	1637	99921.831681912341	56.609081874333
1	1646	100240.478079873887	302.83492133909
1	1657	100489.98558303765	88.943129162309
1	1708	103250.228086091835	256.68517446092
1	1716	103520.378830966216	490.83236952933
1	1740	104730.772027998629	170.34653065004
1	1767	107693.317643484945	0
1	1786	110107.382354321519	0
1	1794	110616.595025237566	0
1	1811	111257.581389972344	0
1	1820	112268.370768454785	0
1	1828	112549.204351606029	271.01895046436
1	1871	115476.504343011257	0
1	1879	115842.090745609202	194.0443444526
1	1897	117338.315160614174	0
1	1924	120098.974828386568	0
1	1951	123292.800576306353	0
1	1961	125159.478379296472	0
1	1972	125498.1965691897	233.78334390986
1	1977	125793.477482644652	425.39134730606
1	1995	127404.421048494322	0
1	2015	128394.186788287109	270.10644920632
1	2023	128697.215464640007	323.17930989312
1	2037	129293.953530250711	52.038148378906
1	2088	132901.550691575899	0
1	2097	133276.620135933542	0
1	2105	133552.930854964929	0
1	2114	134557.884262690773	0
1	2123	135109.697420371435	0
1	2160	137058.152744174247	219.30110372737
1	2165	137337.429086863616	451.47723337584
1	2190	138261.088051771532	33.089616706335
1	2198	138579.772855842819	0
1	2206	138865.608606155723	26.718312185446
1	2249	141919.749928664252	65.831063142482
1	2269	142512.897245637018	190.17331256231
1	2274	142803.509700910436	292.21727229012
1	2283	143212.351958856514	0
1	2291	143910.303466438771	0
1	2309	145044.077230680302	338.53565848873
1	2328	145951.363404958731	43.240436911233
1	2359	147142.827537698503	0
1	2368	148069.484670767351	0
1	2379	148447.546325174128	302.8683414067
1	2396	149015.898559720994	79.595649168318
1	2409	149803.612275223696	0
1	2418	150317.30816220005	0
1	2443	151550.421551191727	0
1	2466	152191.641834355977	235.48582477046
1	2494	154273.728422672331	0
1	2511	155414.79457779235	0
1	2528	156545.274385250662	0
1	2545	157359.523080866458	29.676307563866
1	2553	157686.019678181791	0
1	2570	158442.201049297003	0
1	2578	158736.260752881316	127.26060954671
1	2587	159035.548316643478	7.060460253275
1	2646	162497.951083043536	0
1	2655	163386.497565943332	0
1	2664	164486.988105791645	0
1	2673	165199.958844049472	0
1	2707	167770.944470265709	51.046534595797
1	2716	168023.453068330122	45.090714757631
1	2732	168797.191055882813	44.199473679436
1	2768	172694.529096003462	0
1	2777	173836.167451834867	0
1	2788	176359.235373538932	0
1	2810	176980.962053566551	241.20812124659
1	2816	177229.878386211011	315.21069559001
1	2829	177782.440188663039	0
1	2838	178362.741382437998	0
1	2880	180980.804312997581	198.96315537316
1	2899	183065.280859924364	0
1	2907	183470.866885621625	19.084113769989
1	2924	184075.805902294412	174.30076822925
1	2932	184991.772525437985	0
1	2941	185238.318941272062	181.25151431621
1	2949	185521.879386439743	94.825380149456
1	2960	185800.321034971637	100.91035530205
1	3019	188504.094909241208	170.50015100061
1	3047	195567.207880408302	0
1	3055	195877.410207595063	0
1	3065	197323.74670590219	0
1	3079	197625.371481665224	216.00226923619
1	3087	197902.280289793683	428.22617854741
1	3093	198133.089017063431	637.1070865798
1	3098	198420.731612805976	647.80191814987
1	3123	199821.553822916415	0
1	3140	200456.595863130621	124.53666760821
1	3151	200791.887399285427	250.25952674752
1	3190	202522.622787767293	0
1	3198	202838.866218351696	0
1	3218	203482.917325154754	33.284716854498
1	3229	203768.008549134074	277.91717601411
1	3241	204050.247481053319	243.72238819779
1	3246	204336.899278557323	469.69867204092
1	3268	205231.292731028704	251.20605562437
1	3293	206142.396377434491	180.50516073232
1	3301	206447.331245544298	368.36764811335
1	3339	207899.178021468833	28.524255064504
1	3356	208877.946600247888	0
1	3383	211097.286507931747	0
1	3399	211673.440492988944	121.85732224399
1	3417	213024.225485545714	0
1	3425	213356.246097593112	248.05889281328
1	3433	213669.849613995169	240.65833136927
1	3444	214002.858302519651	265.7220655372
1	3450	214293.459192495388	304.44313332329
1	3475	215928.916615998121	0
1	3492	216522.030244815982	36.331681961654
1	3534	218087.956700180665	211.84100231307
1	3542	218465.158940769168	374.95676659456
1	3559	219514.361672430906	0
1	3576	220315.286373465285	0
1	3584	220640.109674447658	0
1	3607	221240.404068511715	96.858210087486
1	3612	221523.858189687327	376.44443071931
1	3626	222086.451142863559	0
1	3685	225520.467450884199	41.017734764797
1	3694	226034.492542068396	0
1	3702	226417.568270514551	0
1	3710	226870.861807017941	0
1	3743	229283.343115578454	286.50822000595
1	3748	229562.803955576251	498.67074686068
1	3770	230849.577944125559	215.77498803465
1	3779	231293.318946213133	0
1	3796	232799.200206316597	0
1	3816	233463.735178201392	306.67514250364
1	3821	233764.209513220229	437.0889875877
1	3846	234850.82127937838	0
1	3855	235758.252347575864	0
1	3883	236883.484142541898	181.07166007457
1	3897	237432.372026056434	69.472439829816
1	3914	238667.034255300283	122.70564237437
1	3949	241630.787479757419	0
1	3966	242284.960803145323	43.727571676178
1	3974	242595.7640415589	115.71747446867
1	3983	243425.083458061856	0
1	3992	244093.89551820584	0
1	4000	244392.917786373054	232.41579882347
1	4008	244695.699386447582	301.67902258562
1	4028	245319.631490424827	3.713430698212
1	4039	245613.501209006625	174.66490281333
1	4078	247610.611271599507	244.43192206326
1	4092	247926.034417120091	18.371744470398
1	4125	249649.511530392502	0
1	4134	250374.44946516933	0
1	4160	252432.581804646072	0
1	4171	252674.977529221143	47.585731932269
1	4193	253499.796956400071	158.7797336343
1	4201	253788.3040938375	32.321989215444
1	4210	254404.065425712503	0
1	4244	256472.0691001163	0
1	4270	258130.695658889638	0
1	4288	260595.505090513692	0
1	4305	261386.883386629935	55.570253237596
1	4313	261753.725030864256	0
1	4331	263924.422293390998	61.987607291691
1	4351	264610.971415323581	82.192526582925
1	4359	264877.284368704292	259.58933933136
1	4382	266852.183583019045	218.63077295932
1	4399	267471.087673667087	215.12439130044
1	4429	270092.893449116116	329.15767704273
1	4437	270439.571038262486	496.12061272452
1	4452	272244.749816636262	0
1	4461	273108.01562587199	0
1	4486	274524.237430237833	0
1	4494	274875.463888552667	298.69931743528
1	4503	275385.664437408348	0
1	4554	278709.293035053539	0
1	4564	280424.2504376161	0
1	4593	285386.382423166984	0
1	4601	285680.238355733871	222.51749941155
1	4610	286771.033477395802	0
1	4619	287180.480978851262	0
1	4636	288595.504309573122	190.61580707927
1	4647	288915.405192847929	166.83443185405
1	4661	289451.255516227902	121.46582797561
1	4687	291532.102179059903	0
1	4721	293457.076515437112	0
1	4739	295570.517067686329	0
1	4748	296157.734183091582	0
1	4756	296424.880180131657	47.417857062819
1	4767	296731.305946586882	275.26782507724
1	4781	297350.255995724318	0
1	4790	298243.96576130526	0
1	4840	300545.919070269981	231.76956795366
1	4857	301672.359876359871	169.01851617551
1	4876	304290.685738642139	0
1	4894	306819.867761238591	0
1	4906	307148.359898773282	283.51957016322
1	4911	307451.954871758225	390.32214125831
1	4928	308019.300596315257	223.51436670657
1	4937	309380.503630155867	0
1	4945	309910.888902521435	0
1	4987	311491.440607284265	47.514638862764
1	5013	313059.327071504358	109.04831436727
1	5021	313350.019576859635	261.97302087942
1	5029	313725.691027868801	0
1	5038	314014.996142025111	0
1	5060	314547.55366492436	239.00924870586
1	5065	314822.516837676994	468.95704034039
1	5071	315107.512237796754	601.01114494975
1	5079	315417.432946179765	143.47258141727
1	5102	316557.271355928508	227.37897363349
1	5113	316827.715454018388	483.86072422722
1	5119	317074.302256582627	716.84647878795
1	5171	318873.30428869919	89.274421276013
1	5177	319191.038094737204	395.58791236877
1	5196	319761.476545872365	167.38156049037
1	5208	320062.400179503325	303.39514004516
1	5213	320369.931742080375	580.25221346142
1	5262	322631.337316482483	0
1	5277	323009.808405313686	99.249466227195
1	5304	324884.765112740363	0
1	5330	326430.602237777546	0
1	5339	327853.524957139152	0
1	5374	330966.989905662495	0
1	5384	332728.138671559685	0
1	5402	334880.784543256317	0
1	5411	335457.505032530663	0
1	5422	335737.498387996231	45.931628033628
1	5434	336033.674094031153	163.35470564765
1	5439	336356.056716651453	427.71273663749
1	5455	336975.091915219229	308.4580407832
1	5467	337261.407318652	313.36208173826
1	5475	337516.880842357217	451.71242396931
1	5480	337791.957955091359	648.93977410626
1	5563	343354.756789660008	0
1	5572	344901.035558192876	0
1	5581	345185.8870454154	176.76701829445
1	5589	345492.450196823388	301.45739023682
1	5597	345843.244265521088	221.61734032845
1	5609	346129.902813126557	56.524646908478
1	5617	346496.817110726878	110.48883192854
1	5649	348240.44158643385	299.79060238143
1	5654	348571.978665906665	461.74765026123
1	5668	348879.791666463703	642.93734070813
1	5677	349197.16048291963	405.16500937326
1	5685	349490.295549191283	611.7855689252
1	5696	349773.115083010418	1.560352635974
1	5723	350899.314551076295	168.17565088731
1	5732	351190.586559790914	313.7847482334
1	5768	352456.255426295386	285.58963135653
1	5790	353455.684196659747	236.50521436589
1	5820	354588.515896785647	250.93660016857
1	5831	354940.128560972461	264.66592991111
1	5837	355287.220261892765	456.8202164572
1	5845	355613.297723400575	273.35705001974
1	5867	356486.50115418487	175.28559172528
1	5897	357926.074653478088	0
1	5931	359455.227470186931	0
1	5967	363529.800208059969	0
1	5975	363831.706593873636	0
1	5984	364075.582196880757	16.191063883757
1	5998	364373.083586988385	275.43478363167
1	6003	364635.688562277355	414.10694667082
1	6011	364911.44609806556	540.04589214828
1	6017	365204.141812852592	390.12788069284
1	6025	365625.238250685359	0
1	6033	365932.100006390529	142.89117125568
1	6042	366270.743352415268	69.276898322468
1	6062	367032.488139904444	113.4020438887
1	6093	367702.107996253425	136.73935496042
1	6099	368028.309723099218	336.33516916201
1	6137	369588.065549984052	308.64998598084
1	6192	372381.608180790214	0
1	6200	372704.663040706331	20.711816696008
1	6218	374062.395454245801	0
1	6226	374367.254744412687	46.25084836069
1	6235	375445.343978011035	0
1	6249	375769.229118330337	189.42359325699
1	6258	376063.501416710555	333.16556013435
1	6305	378624.026242926424	131.47682808461
1	6316	378979.890483001993	322.03321617156
1	6337	381196.970158232014	0
1	6362	382537.411940568902	208.74108102257
1	6371	383492.130720602616	0
1	6379	383757.896825673477	210.53391588008
1	6396	384392.335051825773	0
1	6440	388032.428033353883	241.57064613845
1	6449	389829.951000943342	0
1	6469	393069.413908473254	0
1	6485	393749.830820693226	288.7694782814
1	6494	394031.676892975236	59.031861921592
1	6502	394281.05887695562	58.241213209642
1	6510	394973.004754616617	0
1	6519	395309.456529927519	117.82592726342
1	6536	396596.989662594137	190.67499281857
1	6556	397226.642314819454	183.15711046442
1	6567	397508.879265015141	114.56355412228
1	6589	398355.864138957846	10.382891504715
1	6608	398942.938773586527	133.36791994027
1	6614	399225.006615367709	304.08567677808
1	6647	400496.524862147681	117.95597292361
1	6677	401923.790881610887	24.265707499481
1	6689	402226.167647072309	167.17439115766
1	6712	404683.073705205542	0
1	6720	405005.332384611812	291.60010386684
1	6740	405528.764615539884	250.70089930333
1	6748	405858.955973547141	157.98268346669
1	6762	406801.248685129523	0
1	6813	409972.998509172594	0
1	6822	410535.541879114243	0
1	6831	411203.323452137273	0
1	6839	411909.063965338267	0
1	6869	414443.012343182444	244.84883540276
1	6877	414745.035248979355	236.69217963391
1	6889	415060.243391648409	251.32929889587
1	6939	423639.85701330973	0
1	6947	423940.027980838333	5.708401981122
1	6956	424452.553391084558	0
1	6964	424957.755212514549	0
1	6974	426028.67943154449	0
1	6991	427098.853014226575	0
1	7002	427441.104488297565	36.607686591411
1	7027	428315.866659407526	238.62947982301
1	7040	428964.378352781552	179.95045275167
1	7069	430630.534193545464	273.456186882
1	7086	431287.367760031355	212.19995086316
1	7102	431933.652545103939	86.396250490487
1	7111	432298.23079057429	232.00994836524
1	7124	432886.210926672605	206.15390922559
1	7176	436250.035439416257	49.579199563937
1	7184	436588.294901892515	0
1	7192	436871.922675939295	117.8740232771
1	7201	438001.971494207643	0
1	7210	438612.745384608109	0
1	7238	439904.355935964381	191.46865521216
1	7247	440191.636950907482	194.03436766646
1	7263	440795.750178547839	322.89223752228
1	7272	441096.194606960983	134.68919196397
1	7286	441474.02481969016	297.31083571851
1	7294	441788.3823021818	449.7359329767
1	7303	442122.831168450249	525.74435049687
1	7311	442425.146762232989	621.1088720848
1	7363	444571.554540413554	113.63526326202
1	7377	444826.966183518817	30.567704696998
1	7410	446411.462814385873	55.006582009448
1	7418	446769.031800707534	92.308021275713
1	7427	447022.577478129905	182.91995072454
1	7452	448238.401723809694	0
1	7460	448913.656443750987	0
1	7480	449579.055625551448	183.5695001689
1	7494	450177.36662732475	91.845059388636
1	7502	450444.259889252564	245.78420081175
1	7513	450700.108566697413	147.45371946847
1	7521	451005.847751876069	378.01208245698
1	7533	451321.602847174936	265.02712817977
1	7569	453167.970320004973	246.47210242338
1	7597	454018.006320422183	73.266852332183
1	7616	454613.687113888122	24.797005884097
1	7630	455166.662045653215	134.62111797023
1	7646	455742.837604030675	254.84964452654
1	7652	456065.305123694187	535.58261110721
1	7685	457487.58565665168	32.737104228439
1	7729	461318.678717163602	0
1	7737	461873.497879897182	0
1	7746	462340.402926306678	0
1	7755	463314.780706050788	0
1	7764	464565.582840490642	0
1	7775	464822.48504040097	228.55740426145
1	7784	465155.655395081009	31.323893515386
1	7849	469069.418119517245	0
1	7857	469960.331417072784	0
1	7867	471522.462484010176	0
1	7875	471838.618036405023	197.11699409827
1	7884	472109.987484744773	210.44683552557
1	7900	472892.357686202464	0
1	7917	473673.297286372476	0
1	7954	475901.728746630016	143.39466248342
1	7974	476566.489174910482	286.43758932685
1	7979	476829.451802283754	344.44492297874
1	7991	477139.736396136147	619.11267778154
1	8002	477388.466857492022	331.47484777955
1	8007	477679.224048550406	505.41768607051
1	8012	477969.696330927109	714.68608399683
1	8035	479142.208947993556	196.45743008795
1	8046	479444.086887051042	223.50831681001
1	8091	481155.732063122454	36.693514511145
1	8104	481770.912470515051	140.25490529283
1	8129	482765.416225993546	172.21334630752
1	8161	485197.303395068396	0
1	8183	485881.450519733758	197.53018559679
1	8192	486166.484249235002	449.23818194318
1	8200	486514.498892207198	792.4939164336
1	8205	486846.385100144585	844.45288682098
1	8211	487156.548941926814	876.83715912251
1	8219	487738.458794194033	0
1	8228	488048.774815960051	25.803100092306
1	8256	489169.166984053282	311.82468933517
1	8281	490138.654117695315	15.960613016266
1	8292	490428.261759361795	42.56709291673
1	8337	493170.310715861609	0
1	8363	495329.895956536697	0
1	8372	496132.378137318342	0
1	8389	497490.688822223409	0
1	8397	497801.439621327177	263.99668510739
1	8406	498194.374243223333	0
1	8422	498840.65833543625	253.23522314992
1	8439	499459.706763350309	191.88402027754
1	8494	503295.791163748767	281.27465431673
1	8499	503577.7532129483	554.13523285073
1	8507	503918.395956745446	92.746771228743
1	8516	504310.610763381524	0
1	8525	505339.46287138744	0
1	8576	508777.838590597903	255.47043578695
1	8585	509494.74600831735	0
1	8595	511338.77758233332	0
1	8620	512825.287926291994	0
1	8629	513137.315783473256	115.76454506519
1	8637	513533.20739717971	0
1	8655	515394.164406043055	0
1	8671	516008.458688967214	158.1450751029
1	8686	516316.018944008097	5.882145080923
1	8714	518529.126038002799	105.38957368421
1	8731	519411.961188037586	0
1	8745	519765.982720351902	341.06038282093
1	8751	520041.893506143973	291.16492995662
1	8762	520323.133061208437	278.49909494903
1	8767	520590.167095305836	529.66941359418
1	8781	521535.8230715398	0
1	8814	522716.867263164957	205.598629654
1	8866	526188.412532168159	0
1	8875	527550.774768462365	0
1	8886	527881.887858430832	135.51787913113
1	8892	528157.952321634555	304.79173423485
1	8900	528566.113774560214	0
1	8918	530426.148677677529	0
1	8938	531119.863307585266	276.05932801136
1	8986	534460.976801312913	97.954857272653
1	8995	535554.730544242942	0
1	9003	535942.494039420211	0
1	9012	536975.700759613133	0
1	9021	537488.853072894975	0
1	9046	538411.589070333348	198.79972024646
1	9054	538819.018706772175	0
1	9066	539087.362312362172	11.970170126741
1	9097	541309.397696868882	229.91737441347
1	9108	541581.670862620249	91.744679693048
1	9122	542229.811465086364	0
1	9148	544025.287216264136	0
1	9182	546791.917655082234	0
1	9199	547491.327074664955	328.55205535902
1	9208	548396.829402196736	0
1	9216	548714.935558457563	261.1031513158
1	9226	550073.137085090498	0
1	9263	552195.850048508296	222.85022129651
1	9286	554535.888523117664	0
1	9294	554920.95975667185	0
1	9303	555256.683886119342	0
1	9320	556136.288814755517	0
1	9328	556463.663387771885	188.38253126727
1	9362	558687.835686763921	0
1	9388	560538.879818874775	0
1	9396	560840.25394778978	191.66704452248
1	9414	562816.008448168404	0
1	9450	566203.997801474648	66.24090916485
1	9459	567445.67810108108	0
1	9470	567746.136486737237	160.11845407353
1	9475	568001.627109566303	406.28107521389
1	9493	569569.69322040887	59.473000486782
1	9501	569881.605744745341	236.28732230143
1	9510	570408.309343404685	0
1	9524	570734.944383802032	69.130671324929
1	9541	571279.734975711066	160.90795268281
1	9554	571965.408784649224	312.53106487277
1	9576	572843.653924573941	16.756835028437
1	9588	573163.542424140898	197.81827082494
1	9644	576476.724157073823	0
1	9661	577793.258640277306	0
1	9670	578630.848651538965	0
1	9678	578962.544035927528	141.50731282976
1	9690	579303.23170630431	285.30338039967
1	9698	579600.164988673654	47.041260926784
1	9706	579925.544310838151	203.43836895168
1	9720	580497.579061536547	78.759448453969
1	9774	583044.475837242749	20.001547574466
1	9782	583364.753006126795	28.148430893855
1	9793	583658.106102634576	9.284009107188
1	9807	584293.238251282386	327.57313423825
1	9855	587936.550365429366	0
1	9864	588254.873106024929	254.43428157793
1	9873	589492.73801772503	0
1	9881	589819.055584630081	324.7216944075
1	9890	590140.587559293251	98.265205400422
1	9915	591508.759594638339	0
1	9949	593399.920038078443	197.39311827441
1	9957	593704.223367057289	162.6084967792
1	9968	593978.167914704673	162.07430737659
1	9974	594301.001843427225	434.36600611687
1	9985	594601.048551572643	47.741858397189
1	9993	594868.039799684261	21.375672712897
1	10053	598419.007318148391	121.29219708209
1	10067	599931.596032581087	0
1	10085	601640.624825942534	272.26713329809
1	10093	601927.219269040008	176.85576047164
1	10102	602182.157298637348	249.78710444404
1	10119	603645.481070049652	0
1	10128	604074.286943491526	0
1	10179	607523.015101985309	0
1	10188	608171.875773283947	0
1	10197	609046.893272984402	0
1	10205	609860.864239556818	0
1	10214	610417.206526627911	0
1	10239	611302.347257970953	0
1	10247	611837.541221992602	0
1	10272	612939.591731196567	0
1	10289	613707.225644555292	0
1	10297	613999.575289813495	207.88077289346
1	10323	615173.557693225589	149.60250645996
1	10367	619544.994557852235	0
1	10376	620776.277306660042	0
1	10385	621307.53373945505	0
1	10396	621631.550650261067	96.614975618432
1	10401	621888.690144181108	353.56773449257
1	10410	622154.776883534919	234.26758231114
1	10418	622430.680101424433	203.54066633641
1	10435	623076.840966205078	0
1	10460	623753.275815817867	205.81683739568
1	10466	624092.98557963727	538.21880440885
1	10471	624391.707992380543	675.93070300583
1	10482	624665.847160323339	916.09112916523
1	10529	626517.545627404658	320.90860417264
1	10560	627459.502414192722	178.83350668392
1	10593	629447.675777799132	146.29459880522
1	10611	631774.244727342335	0
1	10620	632029.764725012665	225.27712921336
1	10636	632806.491496909271	0
1	10657	634870.386684281867	245.30920600081
1	10689	637884.999936891815	0
1	10699	639442.282183669049	0
1	10717	641029.901669565013	173.16349106355
1	10725	641675.445990926118	0
1	10742	642711.494526290095	0
1	10751	643594.746379284042	0
1	10760	644345.711275926405	0
1	10774	644669.771892117786	57.028934342437
1	10782	644979.57249278125	69.79738811581
1	10796	645591.74134407302	79.595193468165
1	10852	648782.992924878544	0
1	10864	649110.595975443695	166.99252814796
1	10877	649749.098474373945	128.63270502399
1	10886	650068.925189134904	12.279880769602
1	10915	652564.002303323315	29.76273627668
1	10937	653698.406075543952	56.406060271562
1	10966	658920.994630107896	0
1	10986	662348.459688927033	222.93116954953
1	10995	663317.345234564651	0
1	11003	663654.574055604017	117.95836912145
1	11012	664788.592256828952	0
1	11038	666200.466271521523	129.34660137906
1	11046	666476.854010108574	0
1	11063	667118.400358106642	154.22221672863
1	11071	667569.938910659829	0
1	11122	670860.810729691722	288.33269515701
1	11131	671452.235330992429	0
1	11139	671973.900712207623	0
1	11148	672248.51243133185	258.81112158796
1	11156	672529.392760934498	223.79236583766
1	11208	676225.685601936827	0
1	11216	676520.792023635029	23.263330785564
1	11225	677365.63767369913	0
1	11235	679282.13169843586	0
1	11269	681091.835684518399	19.975735360317
1	11299	684134.312834467648	238.28514424741
1	11304	684498.02387753005	482.32218193058
1	11313	685067.482207046426	0
1	11321	685405.012240248135	0
1	11338	686956.105644896571	290.84201626077
1	11347	687258.969006432879	182.4919261641
1	11355	687576.039632356058	230.61387582351
1	11388	688750.334333875486	85.06775218263
1	11397	689911.90440268934	0
1	11440	692652.937108412506	0
1	11457	693988.794924095779	0
1	11466	694380.768706641466	0
1	11474	694924.05332277402	0
1	11483	695268.899951598957	0
1	11500	696575.985949234263	0
1	11554	702122.987584100487	0
1	11562	702470.849555491343	0
1	11573	705361.814284123188	0
1	11595	705995.587178553719	315.59998388961
1	11601	706282.076674908126	476.25598624017
1	11614	706805.661228512642	164.09067353284
1	11623	707068.50723466517	120.23454065366
1	11631	707331.156428857062	81.709992841839
1	11648	708637.142235104158	0
1	11698	710982.600594914691	0
1	11716	712187.680671369292	265.60104677549
1	11724	712560.073078595698	0
1	11733	713445.582046288437	0
1	11741	713739.450742582341	187.72343381065
1	11750	714074.208254304103	0
1	11775	715375.670881216904	100.07848710549
1	11786	715741.167409671803	31.073279871671
1	11803	716346.609483318954	51.909582590016
1	11808	716650.535838495227	350.31014750453
1	11841	717879.406655382476	115.14619938708
1	11850	718130.139089343785	14.529181789949
1	11892	720579.487784540046	263.80202547634
1	11917	721718.504949655243	0
1	11927	723261.806748150681	0
1	11953	725283.630168750164	0
1	11970	726253.430924046349	306.52271857716
1	11978	726506.329753256859	26.856543248499
1	11986	726880.643979663788	0
1	11995	727858.478406857665	0
1	12012	728715.180542147408	0
1	12038	729574.203918991056	241.71918399464
1	12043	729873.230710826716	512.3918416107
1	12057	730481.378028379404	153.53537874236
1	12073	730996.316615719559	52.526075692637
1	12090	731640.54815594026	145.88023759011
1	12104	732398.929688994211	0
1	12115	732718.342373048005	275.17703653657
1	12126	732948.777038727025	376.48658539539
1	12135	733247.870505862396	201.67107885773
1	12143	733543.41624654195	61.735075500392
1	12198	735677.898910451555	290.19755232668
1	12221	736323.866016833614	52.509497192105
1	12246	738250.498702454126	0
1	12254	738576.156103315746	0
1	12265	738935.63061831878	147.6993132528
1	12288	740402.48285400364	0
1	12305	741263.218958882929	54.310121972643
1	12330	742314.007924997375	65.713282874596
1	12347	743899.779626445596	208.11790142303
1	12364	744544.122436109703	108.42379097894
1	12400	748045.233599141586	0
1	12409	749116.695129452965	0
1	12437	753195.259749198427	0
1	12446	754059.634025445322	0
1	12454	754695.907398313679	0
1	12490	758452.738190740553	0
1	12498	758722.812967993443	176.15502444003
1	12507	759026.804149735176	131.5543110167
1	12515	759501.106007195074	0
1	12524	760141.224129150426	0
1	12532	760849.774223986436	0
1	12549	761546.375516928125	111.66262611029
1	12585	762981.793310407842	278.31005745145
1	12614	764467.879795260404	187.38658510469
1	12625	764737.474370390509	355.16429269551
1	12634	765039.939752789633	491.12958209349
1	12642	765328.73367996941	716.08236421775
1	12650	765617.079604275801	657.86231948195
1	12658	765951.391177381243	823.9063998807
1	12664	766241.985877078135	818.01666045296
1	12683	767128.679254206096	131.78876424145
1	12694	767451.383855598741	112.82620970177
1	12710	767956.884682522487	216.9200135454
1	12774	770580.852661028962	9.082082510406
1	12799	771532.816024218342	270.60205436129
1	12808	772061.2177953702	0
1	12817	773142.400543959948	0
1	12834	774133.462818967304	0
1	12859	775302.41587369904	0
1	12867	775579.177244043766	189.48071481396
1	12876	776168.516534892165	0
1	12927	779990.42868824756	0
1	12936	780320.822984768287	96.672849317941
1	12944	780594.611178000952	77.619794469996
1	12953	781332.663397809625	0
1	12961	781932.141352863931	0
1	12970	782400.300970806268	0
1	12987	783098.878284641204	154.55405054455
1	13038	786332.311956779789	0
1	13055	787160.491315221475	0
1	13073	789661.631129276694	0
1	13091	791440.14037038019	0
1	13100	792296.75724748837	0
1	13117	793444.862254564656	0
1	13134	794704.212486013856	319.8640481898
1	13142	794960.471482831757	172.29253921508
1	13160	796129.153746488895	0
1	13185	797232.009487920768	280.44776693189
1	13211	799750.069394463483	0
1	13220	800189.646592353471	0
1	13236	800712.640028064079	258.23859657014
1	13245	801329.428343244241	0
1	13270	802762.852223779019	13.066476713127
1	13279	803077.245279712254	198.302869425
1	13287	803818.211777246885	0
1	13325	806365.324542253451	247.01110406842
1	13347	807291.878804801335	95.31035388549
1	13358	807594.695382831275	255.96434186567
1	13366	807919.370993858979	405.19937774058
1	13375	808203.562329551159	460.8626576019
1	13380	808535.453431708933	594.90822835706
1	13388	808963.656336798082	0
1	13400	809287.660901121406	228.44239397264
1	13456	812317.792307103449	0
1	13484	813276.803345988638	244.8289527027
1	13495	813559.597228605252	382.46686883171
1	13503	813865.869761628878	359.40899799858
1	13512	814152.016193740065	607.806505737
1	13517	814395.556527253508	531.63325517039
1	13522	814670.752293707237	698.42360279716
1	13530	814937.160929217921	186.33998120916
1	13539	815231.546291378594	240.0992748177
1	13572	816929.670812046389	0
1	13587	817275.659819131985	13.693023814811
1	13598	817602.758065972866	318.5268279979
1	13621	818216.975437272166	142.63196109774
1	13629	818564.82048495706	284.30503123098
1	13653	819811.163694800433	245.53506481823
1	13705	821964.549469742586	80.047449693163
1	13732	824443.221085470528	0
1	13750	826019.542546262577	0
1	13758	826247.287974112948	185.93154364772
1	13775	827576.148041213369	40.9904543265
1	13784	828355.506061288572	0
1	13834	838238.68735104847	0
1	13845	838575.624936614689	261.48179543284
1	13850	838907.686697073461	334.14353736654
1	13859	839825.983261973239	0
1	13868	840191.907911655721	23.108219440322
1	13920	844958.923772053599	0
1	13929	845603.408224428529	0
1	13937	845894.340127359689	140.4460388539
1	13946	846208.779459041673	0
1	13954	846495.974095238472	65.532977957045
1	13962	846814.490156457035	168.32039216049
1	13971	847091.8780825653	171.40804372453
1	13979	847395.408674496095	54.757090705139
1	13987	847658.103671446399	193.31177925104
1	14007	848255.492718184504	284.66688264656
1	14021	848566.923306470186	326.1348514918
1	14026	848862.157455781535	551.21739690164
1	14032	849115.293808668519	667.43917757321
1	14121	852068.656324187439	127.99876502634
1	14134	852644.095751113445	57.925332487322
1	14162	855011.494977414686	0
1	14182	855580.429480617522	220.94694343174
1	14187	855934.269708842492	549.25327286654
1	14196	856251.740220837155	4.734669750798
1	14205	857711.386866082163	0
1	14213	858008.868117067426	179.46058981797
1	14230	858718.620202265364	0
1	14241	859001.089616197795	7.2966738028
1	14266	859946.740562528941	269.54633833072
1	14317	862541.20997311315	200.32538105528
1	14325	862791.76176951079	300.62647173169
1	14331	863082.226395718803	423.53499075022
1	14357	865842.889043305112	0
1	14374	866449.060099201083	38.770466102472
1	14392	868432.916395943221	0
1	14400	868752.277954531862	295.67248067814
1	14426	870775.434727700589	0
1	14438	871112.237004440999	234.6140960571
1	14446	871420.679888823436	398.26532037583
1	14468	872723.119995432052	108.08978999003
1	14477	873252.717061844614	0
1	14488	873560.996446328173	186.02184093217
1	14502	874155.075339501499	0
1	14526	874996.347309897984	245.18294586946
1	14543	875628.222535004098	55.211494261115
1	14580	877748.85764151538	192.55434393207
1	14603	879235.902322408083	0
1	14630	882902.234678122288	0
1	14642	883205.962417743769	243.30850722454
1	14647	883490.721639037057	433.83335959393
1	14656	884032.223523101376	0
1	14665	885494.289490520112	0
1	14719	888841.337772649609	33.810746909462
1	14725	889168.332177530207	350.42332620145
1	14735	891278.398755694567	0
1	14743	891608.770014078569	270.91833933168
1	14760	892511.516875531417	0
1	14777	893673.858452411644	0
1	14801	895087.306400719385	282.66449253744
1	14812	895380.954528658482	523.235548716
1	14820	895638.591076066163	457.52997847186
1	14825	895882.037041638308	642.06563931149
1	14834	896151.004620191206	90.155754333241
1	14861	897734.490542298384	0
1	14878	898314.831744277645	45.517719594866
1	14938	902830.661207068071	0
1	14947	903114.718458589618	191.1086277698
1	14955	903571.357297345203	0
1	14964	904054.015475313166	0
1	14981	905871.68275857572	0
1	14990	906201.979414209297	107.19040866778
1	15012	906765.675476240678	102.07022307072
1	15031	907805.753871564655	0
1	15040	908207.59657170103	0
1	15073	909828.066780158262	0
1	15109	913335.72971384529	0
1	15117	913984.341985665155	0
1	15129	914258.900596452535	222.31257811106
1	15134	914553.623730407867	340.60379242868
1	15143	915314.002037869228	0
1	15151	915642.485517281342	129.00436318796
1	15159	915909.341525964984	0
1	15202	918404.827175217731	0
1	15222	919018.954064212613	69.932096284025
1	15233	919293.7475201693	165.59005568406
1	15241	919547.519261138995	4.591307005409
1	15249	919820.871662041948	100.18928572013
1	15269	921155.501154425243	0
1	15277	921460.978621213056	128.53282013897
1	15294	922182.224503322552	0
1	15344	924140.244737839291	0
1	15363	924852.243954725526	212.12800213854
1	15387	927989.226710084477	0
1	15399	928274.082854311356	187.56725259806
1	15412	928997.714897106412	0
1	15450	934607.38176870825	0
1	15458	934869.705046079368	72.281515465344
1	15467	935438.356535263203	0
1	15478	935734.097356297333	149.50521863276
1	15486	936015.358247362049	428.98246611635
1	15495	936324.919706771813	464.6540320118
1	15500	936665.004936745479	406.91094288648
1	15509	937093.424979008548	0
1	15545	938628.848997818029	98.183239328179
1	15573	939509.16822839759	116.37262824579
1	15581	939841.854155108196	265.52401521867
1	15596	940149.68400287837	210.11945142684
1	15601	940445.64702219953	365.38101275403
1	15628	941539.906391549262	255.68094622937
1	15636	941820.432414455024	395.76784902237
1	15645	942164.613086154742	1.969787799735
1	15653	942461.014081779043	295.12358565299
1	15700	944435.998104262911	0
1	15726	945071.604980897759	120.86206096008
1	15731	945369.367914081018	386.83176355733
2	820	50789.399858830459	1
2	822	50789.399858830459	0
2	840	51203.387061081577	1
2	845	51346.087982241471	0
2	848	51456.897836339066	1
2	853	51611.616286908632	0
2	893	54341.499815631618	1
2	898	54390.975592222707	0
2	913	55293.348559767935	1
2	915	55293.348559767935	0
2	937	58631.34965230837	1
2	942	58643.440122026299	0
2	956	61520.483025719035	1
2	961	61623.631702583562	0
2	968	62661.643751336474	1
2	970	62661.643751336474	0
2	977	63231.552714594237	1
2	979	63231.552714594237	0
2	1012	66978.322262311806	1
2	1014	66978.322262311806	0
2	1021	67582.915572271418	1
2	1023	67582.915572271418	0
2	1030	68837.143926427807	1
2	1032	68837.143926427807	0
2	1039	69925.070118130816	1
2	1041	69925.070118130816	0
2	1045	70185.426736706266	1
2	1053	70262.272448420093	0
2	1064	70571.122144505378	1
2	1067	70571.177497507558	2
2	1072	70800.495838946267	1
2	1078	71096.673109788552	0
2	1103	72632.039954813235	1
2	1108	72828.841508661649	0
2	1111	72892.685296992263	1
2	1117	73164.335696575826	0
2	1120	73185.642614508036	1
2	1128	73389.443928487961	0
2	1136	73823.843983873026	1
2	1144	73983.46261445506	0
2	1153	74446.685750224099	1
2	1161	74615.582513735085	0
2	1173	75821.393197625028	1
2	1175	75821.393197625028	0
2	1212	77083.231107365758	1
2	1217	77292.545599399392	0
2	1232	78363.681069831655	1
2	1234	78363.681069831655	0
2	1258	80704.21984032826	1
2	1260	80704.21984032826	0
2	1266	80938.880382701696	1
2	1271	80998.487198310043	0
2	1275	81214.413830298748	1
2	1280	81309.255606234038	0
2	1292	82025.571075347138	1
2	1294	82025.571075347138	0
2	1300	82908.46927791515	1
2	1302	82908.46927791515	0
2	1309	83777.052380695571	1
2	1311	83777.052380695571	0
2	1323	84189.790502019743	1
2	1328	84456.04390410171	0
2	1345	84867.60606011481	1
2	1351	85029.801611867143	0
2	1384	86941.408998444132	1
2	1390	87171.107341506169	0
2	1407	88457.508249647762	1
2	1412	88652.281895486707	0
2	1415	88917.308763249911	1
2	1420	88972.400530404062	0
2	1427	89476.327613394271	1
2	1429	89476.327613394271	0
2	1432	89730.344071972015	1
2	1437	89845.188920276565	0
2	1444	90251.433314633171	1
2	1446	90251.433314633171	0
2	1483	92621.868302998809	1
2	1488	92655.378961106584	0
2	1500	93015.378584169727	1
2	1508	93280.697229290316	0
2	1520	94487.612186246528	1
2	1522	94487.612186246528	0
2	1529	95619.013581426325	1
2	1531	95619.013581426325	0
2	1543	96164.682209347941	1
2	1546	96266.218323971078	2
2	1551	96441.285600684529	1
2	1554	96581.384655887468	2
2	1559	96756.926589661923	1
2	1568	97031.580502480606	0
2	1579	97477.73178749209	1
2	1584	97626.678308645529	0
2	1587	97811.141793934304	1
2	1592	97903.376096390244	0
2	1621	99564.891513250713	1
2	1629	99635.029358687511	0
2	1632	99865.222600038008	1
2	1637	99921.831681912341	0
2	1640	99937.643158534792	1
2	1646	100240.478079873887	0
2	1649	100401.042453875341	1
2	1657	100489.98558303765	0
2	1693	102993.542911630914	1
2	1700	103029.546461436888	2
2	1708	103250.228086091835	1
2	1716	103520.378830966216	0
2	1735	104560.42549734859	1
2	1740	104730.772027998629	0
2	1765	107693.317643484945	1
2	1767	107693.317643484945	0
2	1784	110107.382354321519	1
2	1786	110107.382354321519	0
2	1792	110616.595025237566	1
2	1794	110616.595025237566	0
2	1809	111257.581389972344	1
2	1811	111257.581389972344	0
2	1818	112268.370768454785	1
2	1820	112268.370768454785	0
2	1823	112278.185401141672	1
2	1828	112549.204351606029	0
2	1869	115476.504343011257	1
2	1871	115476.504343011257	0
2	1874	115648.046401156603	1
2	1879	115842.090745609202	0
2	1895	117338.315160614174	1
2	1897	117338.315160614174	0
2	1922	120098.974828386568	1
2	1924	120098.974828386568	0
2	1949	123292.800576306353	1
2	1951	123292.800576306353	0
2	1959	125159.478379296472	1
2	1961	125159.478379296472	0
2	1964	125264.413225279837	1
2	1967	125368.086135338595	2
2	1972	125498.1965691897	1
2	1977	125793.477482644652	0
2	1993	127404.421048494322	1
2	1995	127404.421048494322	0
2	2007	128124.080339080793	1
2	2010	128374.036154746887	2
2	2015	128394.186788287109	1
2	2023	128697.215464640007	0
2	2032	129241.915381871805	1
2	2037	129293.953530250711	0
2	2086	132901.550691575899	1
2	2088	132901.550691575899	0
2	2095	133276.620135933542	1
2	2097	133276.620135933542	0
2	2103	133552.930854964929	1
2	2105	133552.930854964929	0
2	2112	134557.884262690773	1
2	2114	134557.884262690773	0
2	2121	135109.697420371435	1
2	2123	135109.697420371435	0
2	2151	136838.851640446876	1
2	2154	136885.951853487774	2
2	2160	137058.152744174247	1
2	2165	137337.429086863616	0
2	2185	138227.998435065197	1
2	2190	138261.088051771532	0
2	2196	138579.772855842819	1
2	2198	138579.772855842819	0
2	2201	138838.890293970277	1
2	2206	138865.608606155723	0
2	2244	141853.91886552177	1
2	2249	141919.749928664252	0
2	2261	142322.723933074707	1
2	2264	142511.292428620312	2
2	2269	142512.897245637018	1
2	2274	142803.509700910436	0
2	2281	143212.351958856514	1
2	2283	143212.351958856514	0
2	2289	143910.303466438771	1
2	2291	143910.303466438771	0
2	2303	144705.541572191575	1
2	2309	145044.077230680302	0
2	2323	145908.122968047498	1
2	2328	145951.363404958731	0
2	2357	147142.827537698503	1
2	2359	147142.827537698503	0
2	2366	148069.484670767351	1
2	2368	148069.484670767351	0
2	2371	148144.677983767423	1
2	2379	148447.546325174128	0
2	2390	148936.302910552676	1
2	2396	149015.898559720994	0
2	2407	149803.612275223696	1
2	2409	149803.612275223696	0
2	2416	150317.30816220005	1
2	2418	150317.30816220005	0
2	2441	151550.421551191727	1
2	2443	151550.421551191727	0
2	2454	151956.156009585518	1
2	2466	152191.641834355977	0
2	2492	154273.728422672331	1
2	2494	154273.728422672331	0
2	2509	155414.79457779235	1
2	2511	155414.79457779235	0
2	2526	156545.274385250662	1
2	2528	156545.274385250662	0
2	2540	157329.846773302592	1
2	2545	157359.523080866458	0
2	2551	157686.019678181791	1
2	2553	157686.019678181791	0
2	2568	158442.201049297003	1
2	2570	158442.201049297003	0
2	2573	158609.000143334602	1
2	2578	158736.260752881316	0
2	2582	159028.487856390203	1
2	2587	159035.548316643478	0
2	2644	162497.951083043536	1
2	2646	162497.951083043536	0
2	2653	163386.497565943332	1
2	2655	163386.497565943332	0
2	2662	164486.988105791645	1
2	2664	164486.988105791645	0
2	2671	165199.958844049472	1
2	2673	165199.958844049472	0
2	2702	167719.897935669912	1
2	2707	167770.944470265709	0
2	2710	167978.362353572491	1
2	2716	168023.453068330122	0
2	2727	168752.991582203377	1
2	2732	168797.191055882813	0
2	2766	172694.529096003462	1
2	2768	172694.529096003462	0
2	2775	173836.167451834867	1
2	2777	173836.167451834867	0
2	2786	176359.235373538932	1
2	2788	176359.235373538932	0
2	2799	176739.753932319956	1
2	2802	176914.667690621004	2
2	2810	176980.962053566551	1
2	2816	177229.878386211011	0
2	2827	177782.440188663039	1
2	2829	177782.440188663039	0
2	2836	178362.741382437998	1
2	2838	178362.741382437998	0
2	2875	180781.841157624419	1
2	2880	180980.804312997581	0
2	2897	183065.280859924364	1
2	2899	183065.280859924364	0
2	2902	183451.782771851636	1
2	2907	183470.866885621625	0
2	2918	183901.505134065158	1
2	2924	184075.805902294412	0
2	2930	184991.772525437985	1
2	2932	184991.772525437985	0
2	2936	185057.067426955853	1
2	2941	185238.318941272062	0
2	2944	185427.054006290287	1
2	2949	185521.879386439743	0
2	2952	185699.410679669585	1
2	2960	185800.321034971637	0
2	3014	188333.5947582406	1
2	3019	188504.094909241208	0
2	3045	195567.207880408302	1
2	3047	195567.207880408302	0
2	3053	195877.410207595063	1
2	3055	195877.410207595063	0
2	3063	197323.74670590219	1
2	3065	197323.74670590219	0
2	3068	197409.369212429035	1
2	3071	197474.054111246272	2
2	3074	197495.981930483628	3
[...]
7	10100	602182.157298637348	3
7	10105	602493.247096179255	4
7	10108	603058.039978809334	3
7	10122	603897.280785485692	4
7	10131	604369.128093019747	5
7	10133	604595.037553721258	4
7	10141	604973.589163361541	3
7	10150	605550.523274186852	2
7	10159	606767.604953393521	1
7	10164	606902.532631641159	0
7	10182	607807.550969216198	1
7	10191	608469.877936122396	2
7	10200	609394.233829595049	3
7	10209	610111.338829866957	4
7	10216	610520.523920875058	3
7	10219	610587.305891823689	2
7	10223	610667.467986301007	3
7	10242	611592.101683970429	4
7	10250	612049.264190529086	3
7	10254	612118.427035021792	4
7	10261	612618.184937529766	3
7	10276	613229.109171511671	4
7	10278	613349.551337946512	3
7	10295	613999.575289813495	4
7	10301	614327.974913914846	5
7	10303	614562.233171617553	4
7	10308	614599.26178136257	3
7	10326	615464.489834774618	4
7	10329	616265.948438933686	3
7	10334	616361.202925510861	2
7	10345	616917.930416313815	1
7	10354	617340.315291756433	0
7	10370	619894.519559473777	1
7	10380	621085.19296255051	2
7	10394	621631.550650261067	3
7	10399	621888.690144181108	4
7	10408	622154.776883534919	5
7	10416	622430.680101424433	6
7	10421	622745.942700161582	7
7	10423	622768.679426636082	6
7	10438	623304.535826524093	7
7	10440	623392.457759286324	6
7	10464	624092.98557963727	7
7	10469	624391.707992380543	8
7	10473	624435.819106097735	7
7	10476	624635.672959468123	6
7	10480	624665.847160323339	7
7	10484	624836.793527828365	6
7	10488	624982.515084981217	7
7	10493	625201.574018752198	6
7	10501	625386.026138690391	5
7	10523	626314.405143418783	4
7	10531	626782.163763241253	3
7	10535	626832.011791359651	4
7	10539	626986.973825511846	3
7	10548	627176.365829507575	2
7	10551	627201.004856039915	1
7	10563	627756.103406767171	2
7	10582	629133.486890616599	1
7	10596	629821.544020863254	2
7	10599	630802.760742018869	1
7	10618	632029.764725012665	2
7	10622	632287.188867203763	1
7	10626	632344.467915911712	2
7	10640	633073.366655211738	3
7	10643	634531.649899621113	2
7	10648	634584.744384658251	1
7	10661	635163.798967958584	2
7	10668	635477.895728628111	1
7	10678	637308.226335199433	0
7	10693	638186.525881924542	1
7	10702	639721.161783495515	2
7	10705	640762.648757464474	1
7	10720	641300.282750075084	2
7	10728	641995.217873579796	3
7	10731	642105.015353475886	2
7	10745	643006.949235897586	3
7	10754	643906.94898165912	4
7	10762	644356.660376013822	3
7	10765	644409.241418819148	2
7	10772	644669.771892117786	3
7	10780	644979.57249278125	4
7	10786	645261.286722703619	5
7	10798	645832.91079107268	4
7	10802	645897.364886624795	5
7	10816	647248.447273354694	4
7	10821	647289.129445228163	3
7	10824	647343.926092128914	2
7	10837	647999.165494477315	1
7	10854	648883.328429883184	0
7	10862	649110.595975443695	1
7	10867	649410.874354226166	2
7	10884	650068.925189134904	3
7	10889	650398.229052760456	4
7	10892	651982.058081062606	3
7	10901	652280.250639176676	2
7	10909	652559.178502874604	1
7	10918	652881.357692730133	2
7	10926	653427.034447641104	1
7	10940	653997.318751075423	2
7	10943	654992.311507770711	1
7	10953	656377.545410494332	0
7	10970	659208.095509216944	1
7	10975	662091.651862101534	0
7	10989	662596.803508709665	1
7	11001	663654.574055604017	2
7	11006	663990.610986770216	3
7	11014	664795.583782088667	2
7	11019	665058.120868229305	3
7	11026	665890.010760837475	2
7	11041	666440.072162655251	3
7	11048	666705.270740293053	2
7	11052	666779.462528557416	3
7	11066	667372.127623652368	4
7	11074	667853.658530734422	5
7	11076	667972.78030568787	4
7	11086	669451.12917645075	3
7	11091	669530.293092914841	2
7	11103	670222.690382479126	1
7	11108	670249.100988477846	0
7	11126	671170.475961094418	1
7	11134	671816.275214332774	2
7	11146	672248.51243133185	3
7	11154	672529.392760934498	4
7	11159	672796.482920872727	5
7	11163	674117.28504986989	4
7	11168	674204.051599144817	3
7	11179	674925.861159596941	2
7	11185	675118.291205791963	1
7	11196	675629.578578565501	0
7	11214	676520.792023635029	1
7	11219	676806.129053194426	2
7	11228	677699.791061340106	3
7	11238	679538.981528189527	4
7	11240	679542.529132177681	3
7	11248	679937.631671570699	2
7	11257	680803.812365393205	1
7	11272	681418.741765440152	2
7	11275	682448.383170794903	1
7	11284	683788.268335484481	0
7	11302	684498.02387753005	1
7	11307	684761.319810978026	2
7	11316	685352.238647311441	3
7	11324	685699.395132670074	4
7	11327	686634.928304696571	3
7	11345	687258.969006432879	4
7	11353	687576.039632356058	5
7	11357	687599.555176448789	4
7	11361	687864.242123759693	5
7	11366	688045.900304882544	4
7	11374	688352.885512039583	3
7	11392	689066.262049131938	4
7	11401	690228.672939910325	5
7	11403	690689.49929152938	4
7	11411	690955.439392376732	3
7	11417	691038.65725273472	2
7	11420	691216.629331384573	1
7	11442	692919.037657834897	0
7	11446	692920.03186440272	1
7	11461	694325.296782548309	2
7	11469	694713.553727169037	3
7	11478	695232.432714058784	4
7	11485	695399.829323887125	3
7	11489	695585.856634049958	4
7	11503	696884.381747819576	5
7	11506	697163.24940353642	4
7	11511	697437.259309904577	3
7	11522	697833.321491815786	2
7	11527	698007.513278045451	1
7	11540	699278.839283411428	0
7	11557	702448.089282037657	1
7	11565	702766.027392190166	2
7	11575	705364.500507555526	1
7	11578	705423.915535647996	0
7	11582	705670.13034148446	1
7	11599	706282.076674908126	2
7	11604	706571.798624308971	3
7	11621	707068.50723466517	4
7	11629	707331.156428857062	5
7	11634	707590.778502022248	6
7	11637	708248.639130514256	5
7	11651	708911.632807491193	6
7	11653	708951.059239387234	5
7	11658	708977.656435864326	4
7	11670	709907.455486327549	3
7	11676	710101.692049584428	2
7	11684	710364.94063735001	1
7	11702	711343.482902082103	2
7	11704	711909.652830222072	1
7	11719	712501.036727758824	2
7	11727	712860.825222046038	3
7	11739	713739.450742582341	4
7	11745	714039.551319148241	5
7	11752	714224.219987998478	4
7	11756	714390.388259661339	5
7	11764	715137.362730941035	4
7	11777	715644.806885871335	3
7	11784	715741.167409671803	4
7	11790	716031.266070733005	5
7	11806	716650.535838495227	6
7	11810	716664.331794009683	5
7	11813	716790.346492146809	4
7	11817	716942.884414700723	5
7	11827	717347.475961239919	4
7	11848	718130.139089343785	5
7	11853	718465.78909313288	6
7	11855	718527.098466097659	5
7	11860	718626.644559382195	4
7	11872	719337.97781093584	3
7	11881	720289.696254270806	2
7	11895	720870.926220013984	3
7	11897	720930.74516177917	2
7	11906	721238.792464390496	1
7	11921	722041.659775030613	2
7	11929	723307.786300167054	1
7	11933	723543.234196705553	2
7	11941	724857.765816094584	1
7	11956	725597.746828012585	2
7	11958	725909.071298386082	1
7	11976	726506.329753256859	2
7	11981	726880.197259745126	3
7	11990	727199.872433948981	4
7	11999	728076.666474531298	5
7	12001	728306.730079513621	4
7	12016	729030.57859819497	5
7	12018	729248.507751767987	4
7	12023	729262.733137660245	3
7	12032	729556.784736120412	2
7	12041	729873.230710826716	3
7	12047	730163.000188250668	4
7	12060	730742.987462977137	5
7	12064	730826.564659945055	4
7	12077	731282.789634961936	5
7	12081	731360.171568120821	4
7	12093	731922.518433731384	5
7	12113	732718.342373048005	6
7	12117	732779.08897557082	5
7	12120	732893.548812978189	4
7	12124	732948.777038727025	5
7	12133	733247.870505862396	6
7	12141	733543.41624654195	7
7	12145	733752.256829340684	6
7	12149	733845.084554320466	7
7	12153	733971.879538416196	6
7	12172	734940.510628258132	5
7	12176	735078.221486597824	4
7	12192	735567.323394336237	3
7	12201	736009.455017414962	4
7	12206	736030.271389312565	3
7	12209	736218.44724229492	2
7	12215	736281.502747225208	1
7	12224	736666.850502567299	2
7	12249	738545.720849192014	3
7	12256	738740.031183037882	2
7	12263	738935.63061831878	3
7	12267	739012.472533280734	2
7	12272	739239.484822987366	3
7	12291	740718.727389732412	4
7	12293	740990.147740578078	3
7	12308	741526.901827992428	4
7	12310	741556.904611913705	3
7	12319	742030.549236263709	2
7	12333	742539.811566258692	3
7	12336	743568.820384718979	2
7	12351	744154.465290265028	3
7	12353	744251.306771465627	2
7	12367	744822.518195550981	3
7	12370	745438.475453905197	2
7	12380	747032.052162956793	1
7	12385	747237.664043441719	0
7	12403	748336.867809166268	1
7	12412	749447.573192160128	2
7	12415	750928.957081282465	1
7	12425	752322.210575167244	0
7	12440	753565.199946644959	1
7	12449	754386.599669971081	2
7	12457	755013.068082992162	3
7	12461	756616.33858819556	2
7	12470	757030.20715232095	1
7	12478	757652.448997515515	0
7	12496	758722.812967993443	1
7	12505	759026.804149735176	2
7	12510	759346.522745166052	3
7	12518	759834.70327236685	4
7	12527	760456.780387304012	5
7	12536	761159.785954887613	6
7	12538	761294.778947863998	5
7	12552	761883.683962231631	6
7	12555	762109.755209779423	5
7	12560	762342.183974445148	4
7	12568	762657.052818237982	3
7	12579	762958.454993345608	2
7	12589	763252.299816764403	3
7	12597	764166.587407081511	2
7	12605	764316.854663814764	1
7	12623	764737.474370390509	2
7	12632	765039.939752789633	3
7	12640	765328.73367996941	4
7	12648	765617.079604275801	5
7	12652	765938.843795604961	4
7	12656	765951.391177381243	5
7	12662	766241.985877078135	6
7	12667	766505.652682418987	7
7	12688	767397.134971762564	6
7	12692	767451.383855598741	7
7	12697	767720.199083927233	8
7	12704	767769.880837884522	7
7	12713	768053.466578750076	6
7	12717	768317.274743325799	7
7	12721	768371.593368701996	6
7	12724	768406.235320196884	5
7	12727	768599.378006994717	4
7	12746	769323.693554486563	3
7	12763	770247.527398945044	2
7	12776	770691.020104301962	1
7	12780	770876.302912596907	2
7	12784	770998.506263566484	1
7	12802	771801.374333293387	2
7	12811	772364.13526959194	3
7	12820	773456.714269294915	4
7	12822	773537.547203277006	3
7	12837	774476.592718510214	4
7	12839	774729.265428787396	3
7	12844	774826.917103087444	2
7	12865	775579.177244043766	3
7	12870	775878.526239475133	4
7	12878	776383.06834469348	3
7	12882	776394.898939234182	4
7	12890	777366.986635664685	3
7	12899	778232.352377900254	2
7	12904	778561.212602477179	1
7	12916	779425.980572116085	0
7	12934	780320.822984768287	1
7	12942	780594.611178000952	2
7	12947	780873.351708704526	3
7	12956	781642.6582947991	4
7	12965	782244.697774744479	5
7	12973	782718.276416095433	6
7	12975	782767.953559857067	5
7	12989	783181.786249280379	4
7	12992	783302.943441068609	3
7	12996	783408.338511785159	4
7	13009	784146.65809966427	3
7	13017	784523.66939379441	2
7	13026	785292.828114107841	1
7	13040	786447.350933834334	0
7	13044	786558.201660489539	1
7	13058	787465.430584183636	2
7	13061	789011.351103644992	1
7	13076	790011.054329130897	2
7	13079	790224.957379004717	1
7	13094	791674.785612984397	2
7	13103	792599.986375910994	3
7	13105	792751.050089253516	2
7	13120	793747.640451859111	3
7	13123	794379.855245313761	2
7	13140	794960.471482831757	3
7	13146	795275.890030777831	4
7	13148	795596.883283925071	3
7	13163	796460.3650822236	4
7	13165	796564.467722614106	3
7	13173	796933.592909304995	2
7	13188	797556.687351679343	3
7	13190	797586.523900581504	2
7	13199	798971.828372879111	1
7	13215	800067.360991077569	2
7	13222	800403.607773562726	1
7	13226	800453.339865356944	2
7	13240	801038.195482155428	3
7	13248	801659.278167425448	4
7	13251	802131.87478586144	3
7	13256	802354.414010123935	2
7	13277	803077.245279712254	3
7	13282	803379.035338139885	4
7	13289	803933.844173241168	3
7	13294	804075.714303748243	4
7	13298	804128.236924191055	3
7	13311	806093.961796868965	2
7	13319	806280.971833881363	1
7	13328	806706.734624065384	2
7	13332	806965.709339141778	1
7	13356	807594.695382831275	2
7	13364	807919.370993858979	3
7	13373	808203.562329551159	4
7	13378	808535.453431708933	5
7	13383	808782.7933917477	6
7	13394	809166.28969370755	5
7	13398	809287.660901121406	6
7	13403	809614.275375506688	7
7	13411	810389.518652489511	6
7	13419	810777.179630016134	5
7	13428	811198.854122233564	4
7	13433	811437.642773776213	3
7	13441	811588.060053022851	2
7	13458	812457.086306539649	1
7	13461	812482.453379356803	0
7	13465	812610.399590403759	1
7	13493	813559.597228605252	2
7	13501	813865.869761628878	3
7	13510	814152.016193740065	4
7	13515	814395.556527253508	5
7	13520	814670.752293707237	6
7	13528	814937.160929217921	7
7	13537	815231.546291378594	8
7	13541	815350.361270931	7
7	13545	815532.348432928257	8
7	13553	816321.789959677399	7
7	13558	816484.390397584522	6
7	13574	816960.664467451462	5
7	13578	817226.286281518736	4
7	13585	817275.659819131985	5
7	13592	817328.519260630579	4
7	13596	817602.758065972866	5
7	13600	817762.65192231456	4
7	13604	817919.982710119023	5
7	13612	818158.440471125377	4
7	13615	818174.734839940722	3
7	13627	818564.82048495706	4
7	13632	818882.602264204613	5
7	13655	819961.808499421182	4
7	13660	820135.877961510235	5
7	13664	820417.425533003513	4
7	13672	820632.380996318667	3
7	13691	821441.240680208701	2
7	13709	822252.986617265092	3
7	13711	822337.126079512447	2
7	13716	822617.047085003801	1
7	13734	824612.39108731458	0
7	13738	824718.993615216008	1
7	13756	826247.287974112948	2
7	13761	826582.75906120551	3
7	13764	827265.22820854838	2
7	13778	827890.805146972201	3
7	13786	828586.523474879818	2
7	13790	828647.513242576482	3
7	13797	829011.725571547925	2
7	13807	830333.344452484861	1
7	13816	831265.12590483866	0
7	13843	838575.624936614689	1
7	13848	838907.686697073461	2
7	13854	839163.479347553314	3
7	13866	840191.907911655721	4
7	13871	840497.65500971719	5
7	13874	841340.689327760667	4
7	13879	841367.437543348398	3
7	13882	841559.992007654611	2
7	13900	843164.216795468106	1
7	13905	843357.988314422469	0
7	13924	845253.985463604347	1
7	13935	845894.340127359689	2
7	13941	846190.570820433469	3
7	13952	846495.974095238472	4
7	13960	846814.490156457035	5
7	13969	847091.8780825653	6
7	13977	847395.408674496095	7
7	13985	847658.103671446399	8
7	13989	847825.650662401927	7
7	13993	847953.410566086796	8
7	14015	848527.522538608872	7
7	14019	848566.923306470186	8
7	14024	848862.157455781535	9
7	14030	849115.293808668519	10
7	14034	849133.764556238677	9
7	14037	849188.835322425932	8
7	14041	849427.96141353088	9
7	14050	849679.522325096674	8
7	14053	849858.845604471213	7
7	14062	850109.741917367462	6
7	14070	850226.215346433278	5
7	14078	850762.451424710679	4
7	14092	851409.177868048525	3
7	14100	851720.635987000184	2
7	14108	851761.425197974026	1
7	14114	851965.967409302664	0
7	14124	852354.531716524613	1
7	14137	852914.486432396785	2
7	14151	854354.526577863998	1
7	14165	855098.001671570843	0
7	14169	855268.356959886996	1
7	14185	855934.269708842492	2
7	14194	856251.740220837155	3
7	14199	856589.942533281004	4
7	14211	858008.868117067426	5
7	14216	858033.029421943591	4
7	14220	858263.891197223445	5
7	14232	858818.05144590033	4
7	14239	859001.089616197795	5
7	14244	859105.212998024181	4
7	14248	859339.309463730468	5
7	14252	859439.659385707825	4
7	14270	860225.897570478637	5
7	14277	860699.322734033743	4
7	14282	860874.826729758493	3
7	14294	861886.646254543402	2
7	14299	861927.109376530159	1
7	14323	862791.76176951079	2
7	14329	863082.226395718803	3
7	14333	863295.304574478183	2
7	14337	863360.698281834949	3
7	14345	865009.723340583234	2
7	14360	866143.308749740827	1
7	14364	866155.782540435798	2
7	14376	866504.646847168799	1
7	14380	866736.095136905619	2
7	14398	868752.277954531862	3
7	14402	868869.728506997801	2
7	14407	869020.836625958571	3
7	14414	869651.039811069963	2
7	14436	871112.237004440999	3
7	14440	871132.194317261387	2
7	14444	871420.679888823436	3
7	14449	871694.141691073917	4
7	14457	872412.545591628307	3
7	14472	873035.108713570469	4
7	14482	873528.422375983131	3
7	14486	873560.996446328173	4
7	14491	873817.513534503572	5
7	14504	874231.429104331002	4
7	14508	874445.108031350153	5
7	14512	874659.181503401519	4
7	14530	875320.832434902294	5
7	14532	875342.709937030635	4
7	14546	875989.847195264632	5
7	14549	876415.263386186037	4
7	14554	876419.363074108904	3
7	14566	877433.944404085792	2
7	14574	877641.957752990147	1
7	14584	878029.428551731437	2
7	14591	878576.279245752262	1
7	14606	879486.541733716473	2
7	14609	880516.283070911499	1
7	14618	881656.12066075137	0
7	14640	883205.962417743769	1
7	14645	883490.721639037057	2
7	14650	883763.472449035263	3
7	14659	884338.625076414782	4
7	14668	885782.266850374512	5
7	14670	885996.655923089674	4
7	14676	886082.230780579974	3
7	14684	886360.331440748321	2
7	14696	887333.196402654243	1
7	14705	888464.445638264557	0
7	14723	889168.332177530207	1
7	14728	889479.936776973664	2
7	14741	891608.770014078569	3
7	14746	891914.549932100734	4
7	14749	892029.640303936982	3
7	14762	892581.242128801575	2
7	14766	892809.102812261028	3
7	14780	893937.566410606718	4
7	14783	894770.588873648747	3
7	14794	894983.052260608094	2
7	14810	895380.954528658482	3
7	14814	895403.719667773391	2
7	14818	895638.591076066163	3
7	14823	895882.037041638308	4
7	14832	896151.004620191206	5
7	14837	896506.514786187869	6
7	14841	896550.332530645907	5
7	14863	897842.273727919809	4
7	14868	898020.513603927125	5
7	14880	898467.297054850093	4
7	14883	898568.124225714856	3
7	14887	898670.869209217413	4
7	14897	899042.790314191029	3
7	14908	899715.274567286527	2
7	14917	900918.073433056008	1
7	14923	901193.298153604611	0
7	14945	903114.718458589618	1
7	14950	903434.587457371548	2
7	14958	903925.804187960722	3
7	14967	904382.559453628704	4
7	14970	905524.349565212188	3
7	14988	906201.979414209297	4
7	14992	906239.368917597814	3
7	14996	906474.567460543981	4
7	15000	906536.782298250953	3
7	15006	906719.853944622232	2
7	15016	907097.02764800767	3
7	15035	908141.271822065723	4
7	15043	908504.757904608407	5
7	15045	908851.822157632403	4
7	15051	909097.339868188837	3
7	15062	909426.879426118848	2
7	15077	910148.234959746514	3
7	15079	910165.214069264302	2
7	15088	911245.506274474631	1
7	15097	912312.993735981477	0
7	15112	913622.48862474289	1
7	15127	914258.900596452535	2
7	15132	914553.623730407867	3
7	15137	914793.541694653133	4
7	15149	915642.485517281342	5
7	15154	915890.269852493732	6
7	15162	916040.492981682857	5
7	15166	916210.303983180813	6
7	15173	916958.694408114116	5
7	15179	917038.488342866631	4
7	15187	917460.903458019018	3
7	15204	918487.492613048329	2
7	15207	918637.54978676338	1
7	15211	918730.040735882712	2
7	15224	919076.142392833925	1
7	15231	919293.7475201693	2
7	15239	919547.519261138995	3
7	15247	919820.871662041948	4
7	15253	920199.68823456978	5
7	15275	921460.978621213056	6
7	15279	921516.156391233784	5
7	15283	921798.671220085513	6
7	15296	922256.7588651035	5
7	15299	922382.264331616854	4
7	15303	922472.642725773229	5
7	15312	922998.307205666966	4
7	15321	923029.370715441694	3
7	15329	923556.340722155393	2
7	15347	924444.001534927075	3
7	15349	924568.271734129235	2
7	15357	924641.834659514396	1
7	15367	925131.559881569057	2
7	15376	927395.076762086292	1
7	15393	928115.656156144172	0
7	15397	928274.082854311356	1
7	15402	928584.297992828976	2
7	15416	929300.118812911918	3
7	15420	931041.65662756732	2
7	15425	931119.362569937247	1
7	15436	931874.266851693177	0
7	15456	934869.705046079368	1
7	15462	935173.201950369404	2
7	15476	935734.097356297333	3
7	15484	936015.358247362049	4
7	15493	936324.919706771813	5
7	15498	936665.004936745479	6
7	15503	936967.028177430605	7
7	15511	937280.182157607476	6
7	15515	937441.544220858886	7
7	15522	937839.740638448204	6
7	15531	938321.667191052097	5
7	15536	938397.192204595495	4
7	15548	938906.46167200498	5
7	15556	939195.241542947623	4
7	15561	939350.891535510091	3
7	15564	939366.508146787382	2
7	15579	939841.854155108196	3
7	15583	939894.422071109917	2
7	15594	940149.68400287837	3
7	15599	940445.64702219953	4
7	15604	940702.188049326976	5
7	15630	941771.032485869645	4
7	15634	941820.432414455024	5
7	15643	942164.613086154742	6
7	15651	942461.014081779043	7
7	15655	942486.685874946576	6
7	15658	942700.501294875311	5
7	15662	942779.815745285056	6
7	15666	942924.527965866447	5
7	15680	943536.623407632482	4
7	15702	944536.214771734786	3
7	15706	944716.500985638417	4
7	15710	944942.763980119985	3
7	15720	945024.980335707481	2
7	15729	945369.367914081018	3
7	15733	945585.785870861589	2
7	15737	945650.019401797393	3
7	15755	946893.793090889151	2
7	15764	947973.679244816212	1
7	15773	948715.729073132456	0
