version 2
run QueueMeasurement-48-20170105-15:38:48-5174
attr configname QueueMeasurement
attr datetime 20170105-15:38:48
attr experiment QueueMeasurement
attr inifile queueStudy.ini
attr iterationvars ""
attr iterationvars2 $repetition=48
attr measurement ""
attr network SimNetwork
attr processid 5174
attr repetition 48
attr replication #48
attr resultdir results
attr runnumber 48
attr seedset 48
param SimNetwork.a.parkingLot.parkingDelay "truncnormal(45min, 5 min)"
param SimNetwork.a.runway.landingTime "truncnormal(5min, 0.5min)"
param SimNetwork.a.runway.takeoffTime "truncnormal(5min, 0.5min)"
param SimNetwork.a.runway.throughputCheckInterval 16.667min
param SimNetwork.wg.interArrivalTime exponential(16.667min)

statistic SimNetwork.wg 	responseTime:stats
field count 901
field mean 4734.0836884902
field stddev 1037.1645371066
field sum 4265409.4033297
field sqrsum 21160944330.365
field min 3015.5519605431
field max 11702.388815377
attr source  responseTimeSignal
scalar SimNetwork.a.landingQueue 	queueLength:timeavg 	0.13294592336799
attr source  queueLengthSignal
statistic SimNetwork.a.landingQueue 	queueLength:stats
field count 1802
field mean 0.63096559378468
field stddev 0.62680815397666
field sum 1137
field sqrsum 1425
field min 0
field max 3
attr source  queueLengthSignal
statistic SimNetwork.a.landingQueue 	queueTime:stats
field count 901
field mean 132.40064316064
field stddev 155.25779253894
field sum 119292.97948774
field sqrsum 37488951.138384
field min 0
field max 865.82070828311
attr source  queueTimeSignal
scalar SimNetwork.a.takeoffQueue 	queueLength:timeavg 	0.30977950563057
attr source  queueLengthSignal
statistic SimNetwork.a.takeoffQueue 	queueLength:stats
field count 1804
field mean 0.81152993348115
field stddev 0.90782027236271
field sum 1464
field sqrsum 2674
field min 0
field max 6
attr source  queueLengthSignal
statistic SimNetwork.a.takeoffQueue 	queueTime:stats
field count 902
field mean 309.05856078868
field stddev 474.85940172873
field sum 278770.82183139
field sqrsum 289324306.70565
field min 0
field max 3046.5240983367
attr source  queueTimeSignal
scalar SimNetwork.a.parkingLot 	parkingOccupancy:timeavg 	2.695962460715
attr source  parkingOccupancy
statistic SimNetwork.a.parkingLot 	parkingOccupancy:stats
field count 1803
field mean 3.1896838602329
field stddev 1.6792009819364
field sum 5751
field sqrsum 23425
field min 0
field max 10
attr source  parkingOccupancy
