version 2
run QueueMeasurement-141-20170109-13:57:23-4510
attr configname QueueMeasurement
attr datetime 20170109-13:57:23
attr experiment QueueMeasurement
attr inifile queueStudy.ini
attr iterationvars ""
attr iterationvars2 $repetition=141
attr measurement ""
attr network controltower.SimNetwork
attr processid 4510
attr repetition 141
attr replication #141
attr resultdir results
attr runnumber 141
attr seedset 141
param SimNetwork.a.parkingLot.parkingDelay "truncnormal(45min, 5 min)"
param SimNetwork.a.runway.landingTime "truncnormal(5min, 0.5min)"
param SimNetwork.a.runway.takeoffTime "truncnormal(5min, 0.5min)"
param SimNetwork.a.runway.throughputCheckInterval 16.667min
param SimNetwork.wg.interArrivalTime exponential(16.667min)

vector 7  SimNetwork.a.parkingLot  parkingOccupancy:vector  ETV
attr source  parkingOccupancy
vector 4  SimNetwork.a.takeoffQueue  queueLength:vector  ETV
attr source  queueLengthSignal
vector 3  SimNetwork.a.takeoffQueue  queueTime:vector  ETV
attr source  queueTimeSignal
vector 5  SimNetwork.a.runway  landedThroughput:vector  ETV
attr source  landedThroughputSignal
vector 6  SimNetwork.a.runway  tookoffThroughput:vector  ETV
attr source  tookoffThroughputSignal
vector 0  SimNetwork.wg  responseTime:vector  ETV
attr source  responseTimeSignal
vector 2  SimNetwork.a.landingQueue  queueLength:vector  ETV
attr source  queueLengthSignal
vector 1  SimNetwork.a.landingQueue  queueTime:vector  ETV
attr source  queueTimeSignal
0	800	51073.058979382882	6427.2951475315
0	805	51376.489064134562	3900.113478123
0	810	51726.470576793099	3883.8165977681
0	819	52543.769837223677	4275.3194950027
0	864	57890.819492274545	8585.2672533725
0	881	58969.740747220035	4544.6092685656
0	890	59555.641999333718	4239.5450374591
0	899	60528.894767840219	4150.8530524559
0	914	61790.233482182822	4955.1993018031
0	959	64498.397725051017	6085.4622774536
0	968	65668.492671237077	4179.960713822
0	980	66199.670214441169	4207.2552714479
0	988	66496.94253276085	4939.3969622449
0	1005	67073.942234979782	5009.4745476781
0	1036	69913.893144354392	6171.9392806365
0	1048	70301.646707529095	3353.5872762584
0	1053	70603.377952645255	4325.7211985301
0	1063	72056.460773323615	4938.229672865
0	1090	75827.373233485142	6889.4562063868
0	1099	76699.742282397562	4100.2835562678
0	1143	80031.332351107501	6733.0373707967
0	1159	80869.785576690314	3838.3147203585
0	1179	81675.014114182984	3674.1433370492
0	1184	81970.279249288671	3713.5060931024
0	1218	83944.102111345191	4964.8374209162
0	1230	84582.269058557645	4345.0197873836
0	1278	86997.66491989937	5955.5812377069
0	1289	87584.52275249268	5099.4483234802
0	1297	87913.977305002889	5530.1477381414
0	1303	88292.453776561451	5216.8298633871
0	1315	89009.57101634691	4764.8684725834
0	1320	89371.503926607928	3539.2744730805
0	1332	90067.742683818438	4107.4771698111
0	1340	90379.122114485165	4314.5484064359
0	1375	93125.258406182823	6334.1544058214
0	1405	94745.85271688334	3356.9475101374
0	1422	95446.678794084637	5157.0580419041
0	1431	96466.936558369576	4471.1247175854
0	1451	97112.506529716341	4085.0881427498
0	1456	97399.359010091002	3728.2795257119
0	1481	98670.3007390887	4936.5750729245
0	1498	99488.906523277836	4619.1649025213
0	1519	101015.695568710242	3218.95999219
0	1524	101308.785316226425	4805.3261454999
0	1544	102533.039426623394	4617.0349954146
0	1558	103163.159751879707	4390.0882805888
0	1583	104779.996002445327	4849.9067699818
0	1598	105721.386036225076	4218.3765271095
0	1629	107013.489683862952	4787.4524272123
0	1637	107271.645966756618	3960.5945314121
0	1698	109369.645241748788	5284.1420825929
0	1703	109635.676210566683	3938.6648989717
0	1708	109931.656439736881	4377.8432684291
0	1731	110860.623104889273	5099.244681836
0	1743	111178.434138561994	3900.7975779002
0	1787	112593.284786622462	5507.5646342214
0	1798	113229.685970187379	5936.0039193947
0	1803	113572.261149668769	5884.8553703507
0	1811	113889.010422841314	6170.312419048
0	1817	114185.7197110504	5696.2653689374
0	1828	114665.054715792022	3669.2434767306
0	1837	115004.313290276652	4765.8199007186
0	1845	115254.815817718373	4194.4341370756
0	1850	115598.773610736087	4273.5978251463
0	1861	115969.700506400698	4458.4943840426
0	1913	119038.899927004725	6531.4429948022
0	1938	120452.620968392886	3147.5728111133
0	1946	120782.131907704899	4896.3290532447
0	1952	121106.621962722185	3589.8995690916
0	1972	122100.321222217624	3842.7227005121
0	1977	122381.853438522498	4228.7678135282
0	1986	123014.046267892058	4211.6684857126
0	1995	124646.669695559753	5131.8166473335
0	2047	128198.082477213279	6753.0776220565
0	2055	128538.822134993799	3514.7377939829
0	2136	131483.567550922681	6091.8614432941
0	2144	131802.618115772146	6633.2940035351
0	2165	132093.757824992007	6590.1020685948
0	2184	133067.989053083635	4337.5344534973
0	2203	133669.401534531588	4939.5417342732
0	2208	133938.371529049191	4978.3639910805
0	2214	134216.900697662928	7795.9556723241
0	2228	134486.712583591757	5150.9761343866
0	2258	135685.092272432278	6355.8735879084
0	2266	135991.451964105993	6227.8140548429
0	2272	136293.862190924153	6382.5851067137
0	2277	136609.663347444136	5919.5377571189
0	2282	136936.608785311294	5073.9907102637
0	2288	137229.395224545629	5317.5448203866
0	2300	138026.955602935665	5032.7527287443
0	2336	139292.259887466934	4915.8641780512
0	2355	140163.829387969654	5875.219750318
0	2364	141219.717114018989	6200.9372522966
0	2378	141935.798296344422	3642.7011562586
0	2395	142568.913038743635	4671.7907164582
0	2412	143211.881523461391	4609.7197897434
0	2431	144185.447984731111	5012.239132331
0	2455	146014.831324184154	6701.7591716089
0	2466	146297.809999427971	4528.9700795346
0	2485	147192.633884210516	4702.0057859503
0	2490	147488.169899828815	4473.865512678
0	2543	149458.112338274432	6159.528133453
0	2554	149752.398988529027	4387.4768163083
0	2568	150383.12395471759	4131.4876300918
0	2579	150696.985217198777	4402.260739338
0	2599	151325.678026567688	3732.5712983927
0	2629	152518.348685109325	4925.5538614464
0	2634	152847.345223577454	4240.1420817097
0	2643	153120.052546935201	5045.8664475879
0	2648	153497.247053195143	4857.9693856654
0	2666	154102.950550092022	4501.7743570772
0	2712	155765.390724558712	5285.1789218698
0	2718	156059.467273543667	4810.4430177455
0	2723	156347.299415605301	5316.9044145172
0	2757	157565.030779020695	6028.5715401314
0	2774	158111.366396758779	4287.7564837673
0	2787	158683.824364480728	4851.608837424
0	2793	159008.795749667416	4643.3792431515
0	2798	159290.213095297865	4738.2957798474
0	2810	160156.400034438505	5323.7302316224
0	2818	160485.980419001126	3798.2179579368
0	2823	160783.038537283282	3984.7262201149
0	2832	161332.203553253932	3952.7180090068
0	2888	166624.902448514189	8734.2889781149
0	2906	168128.713155167579	3356.5807665538
0	2914	168366.966360234256	5195.7385181552
0	2947	169570.349693455571	4725.6642510789
0	2955	169891.416974618012	5049.8183666175
0	2961	170135.270014856537	4996.5670567699
0	2994	171884.612877386518	5320.5513467936
0	3006	172409.174543540173	4059.7212892882
0	3020	173066.148557797284	4585.4641159803
0	3039	173839.745779920411	5115.107272179
0	3048	174183.397797648369	3411.9833974627
0	3053	174504.541404840988	4297.654167775
0	3071	175721.957720851217	4720.8310813968
0	3095	176952.988720187433	4642.5676037991
0	3120	179154.622078380294	3472.6693436972
0	3142	180166.72286339254	6874.4430335
0	3150	180505.414666916608	4809.8761484726
0	3186	181881.023072898338	6165.2854385569
0	3211	182865.293222071989	4276.0466524148
0	3233	183755.335070851252	4797.3921374667
0	3245	184045.74555278062	5030.1532703218
0	3258	184598.310864126496	4095.2841928015
0	3266	184861.608596098418	3985.2345855751
0	3291	185699.957189651168	4510.2905998441
0	3297	186026.999677269997	4247.0356456979
0	3308	186557.208400853528	3968.9061197085
0	3316	186854.033810187301	4747.764610188
0	3333	187343.396403628106	4470.4762839414
0	3349	187925.683989632907	4163.555252961
0	3380	189205.121527125793	4413.7277159617
0	3391	189837.651096219336	4739.5172053333
0	3409	191008.500778531248	4344.5347916143
0	3417	191280.125248082458	3958.559001325
0	3450	192523.928422753532	4303.3224168858
0	3458	192813.878262367675	4915.9601465759
0	3464	193096.419586953847	4768.3215146328
0	3476	194297.744685928305	4641.2729066593
0	3493	195155.027100480093	3606.4858397513
0	3498	195451.853528154812	4364.7561351161
0	3522	197795.316777248631	6008.9985580814
0	3550	199713.086864510734	5520.7841444742
0	3591	202240.622032104707	4562.7971995461
0	3596	202581.999852151848	5857.8713714908
0	3601	202841.346211995682	5123.9913474365
0	3610	203773.455689735405	4648.1228681933
0	3630	204916.529211209219	3894.6755538314
0	3639	205222.484777587573	3890.5515675611
0	3662	207887.87693574432	6304.0145096301
0	3671	208418.801535032618	4060.6197671943
0	3705	210335.35704814738	5286.0824611022
0	3729	212127.442341928297	3547.3498805231
0	3734	212438.96547076269	5332.0657840632
0	3739	212711.88641286177	3878.8392735043
0	3748	213730.768883417246	4883.0639569924
0	3791	216512.608541856223	5980.7637903254
0	3808	217642.981526951944	3899.4159373477
0	3817	218227.17518871552	4163.768207393
0	3825	218863.133636251484	3879.2703951288
0	3843	220491.322549991185	4644.869938359
0	3861	222701.105836185848	5963.0000051312
0	3888	225396.135475769673	6223.4556135734
0	3922	227763.839652189454	3328.1189192447
0	3945	228428.760213947336	6461.8576708812
0	3975	229541.346304868936	3652.0165465376
0	3980	229825.296413955205	5297.4414030783
0	3997	230782.248206816777	4512.3966818408
0	4009	231166.306521010539	4136.321597387
0	4022	231798.008269447901	3998.1797149148
0	4031	232144.384707498309	3872.6212718915
0	4042	232522.724124084544	4321.9106795045
0	4047	232836.84372119314	3852.0934470334
0	4073	234635.462357773603	4728.8674307932
0	4099	236827.393984151713	5794.524100672
0	4108	237592.942941626985	4095.2321027513
0	4116	237901.290275250116	3811.9242481491
0	4154	240199.963315574811	5230.273616981
0	4187	241742.718309165006	5654.7498420383
0	4193	242069.183752940416	3796.5238193475
0	4204	242590.435089605638	3542.489433954
0	4226	243477.288071848092	3848.0736845429
0	4249	244447.118004774112	3573.3573972495
0	4259	244993.636124810832	5076.3428672433
0	4291	246273.244962361183	5300.7687877954
0	4304	246800.318264958825	4411.6909931991
0	4310	247147.223332793345	3468.5375771532
0	4318	247446.347911886635	4694.3276045142
0	4349	248490.058596567394	4139.7184103769
0	4360	249011.308689668153	3674.8130083796
0	4371	249559.531936600576	4031.523571003
0	4385	250843.983001502108	4844.8581413804
0	4397	251189.294577241828	3299.8113470681
0	4402	251520.550789765917	3867.5434916559
0	4431	253483.450164882685	5032.2183091612
0	4465	255763.950947432156	6430.49497649
0	4485	256350.538873844803	3795.8657877302
0	4501	256982.776131030752	4300.4377719123
0	4512	257532.851914542885	4182.2252196991
0	4524	258018.20008987313	3655.689421938
0	4549	259031.096022309632	4472.9243420085
0	4554	259370.9397361623	3771.4141915691
0	4597	261461.447710193392	5317.8750273844
0	4608	262094.461375958999	5139.4945682414
0	4616	262411.808506666354	4604.3904310707
0	4644	263559.220041692906	3514.3988856567
0	4649	263845.156718909084	5826.458587255
0	4655	264186.776598517644	3829.4809017226
0	4663	264970.503914801876	4496.6514459865
0	4683	265883.788455395773	4775.4671431514
0	4697	266630.949315585782	4312.5545260861
0	4711	269136.774404919494	3922.0458597204
0	4716	269470.415294379558	6660.4868699766
0	4761	274118.96386934446	8475.4369420376
0	4769	274433.641561070492	3801.7679802727
0	4778	275245.211559713121	4005.8231619503
0	4820	277025.886766460983	5504.5299874886
0	4874	279471.657244888578	5978.5514117751
0	4885	280090.815974606162	4587.0482779328
0	4890	280395.743511431106	4772.7587276989
0	4898	280705.625416074248	4828.1616422183
0	4907	281030.113506853547	3135.2238108416
0	4915	281377.270887748004	5096.4502031275
0	4920	281676.684641179685	3512.0600160571
0	4929	282275.067009199347	4079.3479075987
0	4937	282931.98430619981	4373.7365223283
0	4963	289511.164437468115	10331.610486066
0	5023	293098.63728197909	6647.0914888817
0	5051	294148.274695479239	3707.8421946723
0	5070	294728.455833072925	5389.056446224
0	5126	296646.139058794293	5703.6743902183
0	5167	297968.97021166503	7132.5433635658
0	5173	298250.960018465211	7099.2403373534
0	5184	298568.069504173844	6650.1748683902
0	5189	298907.96524437587	5937.9132932768
0	5195	299182.530440572871	5728.6950968577
0	5206	299473.784352064854	5419.2968255755
0	5217	299816.953709416053	5399.5639552858
0	5231	300403.718144132859	5620.3789687491
0	5242	300692.073299616243	5558.9761075539
0	5248	301087.726086102648	6134.1551273371
0	5256	301361.930342734594	4931.7661052091
0	5266	301954.064870171743	6716.7558290279
0	5272	302235.878997081069	5709.8452590643
0	5283	302522.094062166833	5341.5656756021
0	5302	303516.148340438595	6108.979570765
0	5325	304942.291583145293	5230.3566231418
0	5347	305786.42907065971	4494.3519197463
0	5364	306606.255596136431	4270.6763502493
0	5393	308038.925960716219	5557.2956306787
0	5457	310127.444014505002	5810.5087873881
0	5467	310692.091723392854	6023.1627093324
0	5485	311030.805187100569	6242.5916674443
0	5509	311883.152253432962	6296.9758609752
0	5518	312210.343926359962	5637.7124071232
0	5537	312810.39349222986	5411.6022855794
0	5543	313155.615512960919	5296.6550924727
0	5548	313502.836689518236	5274.4551360889
0	5553	313806.455545405227	5563.1964166595
0	5562	314127.801401211785	5839.5954321596
0	5567	314409.799256415095	5646.1343549798
0	5575	314659.195765250762	5750.6337886285
0	5580	314970.050143906718	4885.9063056585
0	5586	315263.057209416506	4452.7354433367
0	5600	315809.823406777605	4978.3101895536
0	5640	319000.737339927673	7042.7371127785
0	5649	319296.02781230762	3583.3121234155
0	5665	319878.119508192674	3417.7265438956
0	5671	320167.44448305881	4391.0983697905
0	5697	322228.91884182397	5678.8774116795
0	5735	325016.55740417234	5757.7711176937
0	5740	325328.568260778262	4586.794102779
0	5753	327233.290582064378	5723.1293207724
0	5758	327540.510516983548	3645.0771586032
0	5772	327909.005830024521	3758.4094182689
0	5826	331369.101623449958	7217.8883178163
0	5840	331783.866736602904	4076.5746806164
0	5846	332085.10238540871	3957.9561714216
0	5857	332379.818958602268	4742.8616498484
0	5898	333799.913446998679	5169.2479622297
0	5912	334352.501895411181	5678.2254437692
0	5945	336005.046137776369	3703.6132948936
0	5971	336602.11535828911	6501.0166760071
0	5999	337455.570875077631	4778.9548845617
0	6024	338338.016512395129	5797.5669959122
0	6034	338967.667780438638	6375.2210497482
0	6040	339254.163301976923	5520.1986767928
0	6048	339543.108714889988	5367.2151278886
0	6059	339792.57800605358	4773.9905873497
0	6065	340154.352155108849	4811.9953043515
0	6073	340544.270395370467	4655.7410469341
0	6081	340870.150837661079	4575.2744358677
0	6090	341189.743889653969	4547.7272916832
0	6095	341471.835329779816	4253.1728344653
0	6100	341805.975702117916	4392.9620638564
0	6145	345956.739447135382	7635.4630846339
0	6192	347696.721129877476	4611.6444243483
0	6203	348311.802887982104	5314.7725790244
0	6211	348846.413180249024	5306.513935763
0	6254	350352.505846048328	4652.7116857221
0	6262	350704.667044735903	4840.6491615206
0	6268	351020.503481180375	5320.4457549824
0	6273	351265.148336137744	4471.3280877275
0	6278	351513.589973863045	5554.0454842542
0	6293	352517.225879439444	3363.8715663759
0	6315	353440.247428473656	5921.0871903809
0	6323	353758.319475293242	4357.494033163
0	6354	355570.132414391716	5887.5307944414
0	6382	356944.331546447005	4637.2777043479
0	6391	357275.805414042559	4953.2511095364
0	6416	358143.400222332688	4526.133168504
0	6421	358423.324506258851	3725.1406006897
0	6432	358777.192968273005	3825.7409160514
0	6454	359979.382168823074	4035.961088665
0	6475	361007.79959825636	4816.282084542
0	6483	361283.433239172595	4254.9597824663
0	6496	361912.525522876488	4440.1969947688
0	6505	362853.493409107167	4078.197869825
0	6530	364003.232943339635	4608.7245667816
0	6547	364746.002167085081	4361.3373548842
0	6573	366357.232565073612	5258.2248797422
0	6584	366684.653566964959	3651.5822859305
0	6617	367960.957149572916	4914.4763625442
0	6623	368263.756356324827	4183.8728091666
0	6639	368922.269259039337	3716.2660220974
0	6660	370088.759045631947	4554.4045812218
0	6679	370749.668278042839	4116.4116416843
0	6690	371311.793056217273	4338.0948822778
0	6698	371636.602060841616	4328.9616245265
0	6715	372985.952876310068	4612.1409859335
0	6727	373420.825241589381	3971.1561184586
0	6732	373721.933094937936	3654.8086059296
0	6742	375382.930598702817	4762.1142928796
0	6771	380192.327998156302	8406.1486927709
0	6796	381910.308312314827	5594.9847237372
0	6809	383936.689777535663	5522.7181313837
0	6818	384267.915430136306	3309.2163824727
0	6864	387886.424289869967	3692.5518032274
0	6895	389009.042658536129	7708.6345198254
0	6900	389315.683817534736	5013.979531627
0	6920	390495.77018221282	4881.4327030434
0	6940	391094.499251475225	3822.3637106332
0	6964	391977.284751033681	3933.2795318475
0	6975	392477.880518266672	4681.6164858972
0	6998	393748.858043311957	3851.0374535528
0	7004	394081.378205300898	5990.071132183
0	7015	394396.48358079227	4085.5719913282
0	7037	395208.014931461756	4283.007358187
0	7042	395533.009982907827	4325.5959367623
0	7059	396745.417281992009	4778.1314342045
0	7068	397384.41178482769	4345.3127775532
0	7076	397781.285588664803	3501.6537846489
0	7086	399252.457428839302	4910.8278027608
0	7122	403051.182437583178	7072.1977091887
0	7130	403611.403019235583	3924.5461384842
0	7156	405732.27402274677	5610.1682228665
0	7191	408124.958696492849	6223.9923510417
0	7202	408507.174097877294	3970.7757797512
0	7222	409536.48799188807	3429.1130301205
0	7233	410113.842801068796	5483.6316748182
0	7241	410786.289043259636	4350.8100674267
0	7266	411766.472315794873	4891.7168444451
0	7275	412625.474232624139	4296.3431185176
0	7307	414545.910111372731	5038.7023987416
0	7318	415127.246913025811	4247.6689469541
0	7326	415946.51063001389	4738.5565235242
0	7344	417450.123774244119	4512.5872613665
0	7361	418324.584707553632	4894.3646731789
0	7390	420541.001851988725	6077.0645292834
0	7398	420857.376007702195	4030.3209084419
0	7412	421751.488733395629	4028.659770623
0	7433	423718.514619072209	4822.4999595912
0	7438	423956.365200170488	3972.8712121562
0	7456	425264.635939986577	4667.3928453271
0	7477	427443.02397567367	5492.3055452623
0	7575	431459.209541926418	6777.5794417905
0	7580	431788.866476394191	5638.3203295391
0	7592	432066.633721820366	4812.29975796
0	7611	432694.800698827368	4224.5610268331
0	7628	433283.867739864297	4735.6038449529
0	7639	433593.902585153919	4672.1322978569
0	7667	434515.529843283127	5556.3404838356
0	7686	435438.981817830706	6403.0178023119
0	7694	435757.718053422381	6316.4231638856
0	7706	436072.27169961918	6453.8848706202
0	7739	437267.782457383128	7584.484191966
0	7744	437587.081735584376	7078.312671133
0	7752	437830.970355003017	5781.6488731437
0	7774	438779.989662493912	6295.4972645558
0	7780	439099.102896890735	5662.401720992
0	7788	439316.404928179351	5867.8580802431
0	7796	439642.923750477511	5411.458608797
0	7804	439995.453265325771	5719.3082841145
0	7810	440284.936635216018	4458.2697973738
0	7815	440575.025485479082	4524.3681460399
0	7824	441169.200212276028	4865.6505208759
0	7835	441734.469238152967	4130.0971436091
0	7868	445160.28203253623	7156.9569795076
0	7893	446474.941305334111	4993.0958610614
0	7910	447907.443345536872	5208.7852115365
0	7919	448935.63521037864	4782.0022493579
0	7928	449657.548824121824	4089.6540369873
0	7937	450152.142691882473	4488.3221155739
0	8000	454435.334920914303	7527.0499304019
0	8025	455259.744234211363	3828.7979970245
0	8067	456899.012643644726	5411.113620223
0	8112	458375.613999567813	5566.1667407263
0	8117	458605.112336060511	5970.482633647
0	8128	458954.550259985904	6130.0057100511
0	8142	459611.799427164394	5340.8640949846
0	8150	459926.21901555583	6054.6691871279
0	8162	460235.258338991827	5642.5401352899
0	8167	460487.650753368331	4552.5632679178
0	8172	460773.54593982014	5577.7776059006
0	8181	461143.098259525489	4967.2286413726
0	8186	461444.185996154059	4514.9098357727
0	8191	461726.228870830318	5048.313659558
0	8197	462013.37622938226	4774.3084031755
0	8214	463468.540225731431	6057.7256997386
0	8230	465098.499543200276	6415.683727146
0	8266	467788.882986148505	5745.3258348023
0	8301	469162.735229762881	4200.7745115938
0	8314	469751.097562766383	4707.7353751031
0	8325	470323.355318722944	4820.6855504714
0	8334	471288.535165056899	5104.291142468
0	8342	471745.363408301481	3582.5359228293
0	8354	472275.494136703653	4015.8358284079
0	8367	472814.670087103595	3843.7250720151
0	8418	475900.250500767313	6319.6338184925
0	8447	477553.813034184903	5335.1620710165
0	8452	477825.806185384113	3726.1638222499
0	8467	478417.175376341299	3422.9267868628
0	8481	479072.369488122628	4963.9688391726
0	8492	479369.030017923134	5162.0767573
0	8530	480737.573781015872	5518.1900042825
0	8536	481058.568255854398	4415.3452922157
0	8551	482135.40060723665	5177.6760426314
0	8564	482733.036924433282	4495.4900286052
0	8570	483065.419538516492	3800.2216323516
0	8578	483581.297821457675	4164.2618982307
0	8589	483941.560787084038	4165.0029850435
0	8615	485543.467920888814	5573.1411585371
0	8644	487454.248926374062	5347.669953042
0	8663	488387.897688489926	4724.889805047
0	8674	488710.968369145693	3783.1059326419
0	8699	489620.76954133817	4274.2777822941
0	8719	490637.427997361583	4834.7532703264
0	8738	491584.831389676401	4350.5208668225
0	8750	492071.032557431717	3371.0643995951
0	8761	492380.242080934079	4955.2978599259
0	8780	493265.723646607478	4527.0207949769
0	8788	493648.205676951164	4202.0373131812
0	8797	494237.914654631051	3808.2116433695
0	8809	495811.719169084822	3676.3157946473
0	8815	496156.414443041607	5505.003209171
0	8851	500916.203171194106	8701.3014815307
0	8883	502795.700619206374	5268.8165937255
0	8894	503447.88752843392	4062.1447005337
0	8903	504382.167808847828	4821.0066385123
0	8912	505156.20685627203	3732.6054242387
0	8929	506221.196247181465	4740.7074666122
0	8947	508789.256232141279	6162.4176361766
0	8965	510082.267411407322	4631.8077808776
0	8999	512914.056425269264	6210.2645684485
0	9008	513430.728960979354	4548.8261233787
0	9037	515321.76568034491	4939.8634181652
0	9042	515604.941536023743	3559.9487884441
0	9051	516547.504964464122	4273.0123906352
0	9093	518496.891329785425	4955.0409555154
0	9157	520964.144302130203	6251.7645552015
0	9166	521294.492651788245	4235.6679741386
0	9194	522179.371325930688	4942.1059582289
0	9199	522467.990918860353	5100.7534658865
0	9213	522809.646715074607	4926.6489546401
0	9230	523368.634175202365	4646.4528960017
0	9235	523629.146769025314	4418.3761985484
0	9243	523966.331895405188	4669.1363748852
0	9252	524200.650133025652	4412.0946556158
0	9260	524469.77563697468	4987.5806384134
0	9271	525033.683611097737	3805.3020102257
0	9279	525366.857662359446	5294.4569203212
0	9301	526398.882368976474	4840.6757369469
0	9318	527832.025168639164	5155.3899461837
0	9335	528720.525813236877	4457.8650108545
0	9344	529177.026590287385	3927.306376993
0	9352	529877.093906646983	4082.4223918739
0	9370	531305.948400855443	4825.3415642449
0	9396	533255.206240217756	5223.647413866
0	9432	534811.651710744011	4920.9598802961
0	9497	537043.211149130941	5259.3757170893
0	9502	537363.855651744978	4739.4735293983
0	9510	537653.886935040629	4357.4187701313
0	9530	538182.36398420342	4550.6083219262
0	9538	538398.03177720478	4738.3300974086
0	9554	538970.769458587613	3704.1056539208
0	9630	541326.91068696042	6526.8813864093
0	9646	541934.510229528058	6665.0949000313
0	9652	542249.309489634692	6965.3761878955
0	9657	542520.496084318481	6683.3172963475
0	9665	542828.022002478159	6903.9258869021
0	9680	543142.649054951498	5566.3508448202
0	9696	543749.746282566352	4813.1326207435
0	9713	544338.483717495578	5988.4349122323
0	9726	544933.59240067776	5597.3891447499
0	9732	545228.178809598248	6146.0859461682
0	9740	545483.456339581851	5969.662923847
0	9751	546127.22100153099	6608.0572085637
0	9759	546422.014684306422	6714.5154634634
0	9767	546715.510176990351	6368.2438863302
0	9781	547339.036916251274	6109.4942653435
0	9789	547624.915923120518	4513.8779724991
0	9800	547886.70791783152	4323.4943100744
0	9836	549453.758389365068	5386.0366983971
0	9861	550515.793073237789	5068.6010468766
0	9892	551743.736019709688	5151.6126668046
0	9901	552044.840930437739	4255.1350746223
0	9909	552308.667905514859	4578.4981491891
0	9922	552861.603650859327	4890.4547658268
0	9934	553175.748232904334	3628.0974266735
0	9953	553772.672354526511	5114.6360906931
0	9964	554354.74588020504	3625.7387463154
0	9969	554599.452078413199	4954.871718367
0	9978	555749.341048644237	4588.4647948609
0	9995	556428.072700554413	4356.2874570439
0	10004	557094.082230323219	4170.0545208718
0	10014	559311.705865252192	5647.4831780167
0	10051	564013.250983380734	8155.5004342954
0	10059	564473.116849213207	3965.3846370586
0	10101	566146.455333760246	5279.3801592043
0	10134	567639.911307609941	5417.6239762606
0	10146	568167.354605827601	3549.2395350118
0	10157	568508.838432904193	3840.770983299
0	10171	569132.729089387737	4359.6602219262
0	10176	569401.595151442943	4258.963452408
0	10184	569733.069650224543	3094.9459667815
0	10196	570264.677407044293	3863.7688631204
0	10227	572576.313720899893	5827.8953283158
0	10247	573384.406481966921	5125.5097581178
0	10283	574944.093664201221	4950.1929001412
0	10300	575435.366361179982	3816.7997394779
0	10310	576009.14013065472	4143.6820159602
0	10319	576670.486369724916	3920.3461075075
0	10334	577053.26675078454	3975.0137725498
0	10344	577766.6490890363	3890.8199294091
0	10353	578122.674177982315	3823.0266635267
0	10361	578850.505069210431	4011.732387155
0	10387	580526.755681663177	5176.2206178898
0	10405	582184.122776181239	5391.2619637102
0	10425	583454.091030419973	4311.3668397048
0	10442	584588.724001166649	4926.5124306839
0	10457	586038.692315072633	4499.8209224127
0	10465	586362.840787228245	3556.5350862872
0	10478	588131.396842825103	4688.0092532045
0	10510	591339.789489480091	6816.2506564921
0	10519	592877.247757030656	4785.9612460137
0	10536	593735.955664143356	4245.1161968617
0	10587	596458.093823882841	5983.1215202294
0	10604	597566.114980119294	4397.6565690522
0	10619	598106.641879170862	3590.1468080949
0	10638	598658.895724953735	4178.3165240482
0	10657	599584.591193303203	4961.5783148419
0	10662	599872.940751619348	5236.5980414125
0	10679	600623.4792054382	5211.7846005253
0	10688	601116.114167688769	4280.9646125658
0	10702	601835.600878136701	3402.3812487512
0	10713	602424.590594865412	4404.2019647586
0	10730	603411.052492589612	4931.9121113125
0	10743	605456.264510175339	5529.2502110549
0	10757	606213.146699950666	4462.8412778738
0	10783	608351.423656285947	5486.9449911575
0	10807	610567.737234239006	5431.7257719109
0	10818	611159.00551678601	3822.7417573146
0	10836	613194.130615325225	5503.3764222725
0	10844	613892.54911092835	4409.1635595023
0	10856	614809.794318746245	4285.8527720556
0	10897	618285.108814383079	6868.4373685012
0	10911	618922.991789341531	4352.061265134
0	10922	619466.555236265461	3783.7476849627
0	10947	620594.49358348469	4755.1423318102
0	10981	622623.003110869109	5391.0395046085
0	10993	623057.852839543051	3388.6234822455
0	11001	623380.893045029633	4523.2628848863
0	11021	624252.002942123153	3314.188391714
0	11040	625158.741176091292	5221.747286529
0	11048	625655.361784136173	4005.0305428198
0	11080	627296.593804798004	5437.8193205403
0	11093	627898.678165504429	3895.078979886
0	11099	628179.594231731844	4890.0977340407
0	11110	628827.049743719036	4592.4233113313
0	11136	630071.825600908555	3656.7942216739
0	11141	630424.004830049798	3829.413210916
0	11151	632376.788810088094	5290.055470572
0	11159	632693.842817409574	3954.2901034465
0	11214	636303.382427150566	7464.3461164955
0	11219	636591.414435544999	3630.1026802507
0	11227	636923.752863309794	3828.7851468569
0	11245	638341.823176966585	4683.1398853266
0	11253	638763.775827409007	3942.2218598031
0	11279	640885.583192403657	5654.8514855525
0	11289	642442.672006150881	5153.765978477
0	11298	643613.507103180495	4837.4029023694
0	11353	647765.600728882397	7598.3231177864
0	11362	648049.176845011115	3988.1389833844
0	11367	648321.455144453554	3726.6663271531
0	11384	649804.984925705979	4603.6939663077
0	11393	650509.598062732997	3661.7875725395
0	11422	652567.848630370085	5468.7463750621
0	11444	653592.962267848204	4360.8950279946
0	11465	655511.904541334434	4691.9417954615
0	11470	655798.293957555169	3846.9186231906
0	11482	656452.241658883989	4051.7581168563
0	11508	658097.474324758205	5183.4389931757
0	11533	659725.785439960238	5212.7509789176
0	11539	660055.844869722847	3846.1182276295
0	11556	661417.449035593635	4492.7102031254
0	11581	662828.850753636414	4797.1455562103
0	11590	663347.885243443482	4556.4994365466
0	11624	665505.143482087167	4785.3937437163
0	11636	666144.911097415126	4234.2857017489
0	11653	667031.82474304769	3667.8068023342
0	11661	667334.474753592401	5183.9446343931
0	11674	667917.265712500151	4464.1812891391
0	11684	669531.60706565454	5131.5585249708
0	11693	670411.342925295449	4395.4559608161
0	11720	673943.384113739985	6653.2401743225
0	11746	675122.304359886067	4318.6991875977
0	11791	677578.823324636887	6036.7882329896
0	11796	677880.458197962995	3810.6602190103
0	11813	678482.594258618663	3995.8386777137
0	11822	679061.121665306688	3864.686558075
0	11830	679733.123112842543	3948.2610015419
0	11839	680108.210662903976	3483.1424122555
0	11848	681293.214451614779	4471.7983193269
0	11910	684962.28723986381	7056.1468970961
0	11922	685273.546088874663	3710.9605060636
0	11935	685870.955130128079	4305.3725335055
0	11944	686194.065949736991	3217.2414946264
0	11949	686519.20358873646	4524.7070187842
0	11986	688072.850570093381	4863.1881594934
0	12047	690297.659191054774	5936.5615449132
0	12072	691168.845596824376	5980.6798722846
0	12086	691481.982331451079	4601.4603159208
0	12094	691733.275259512838	4766.0478622776
0	12127	692902.980372191543	4984.2298675641
0	12139	693162.878295410584	6106.2179253714
0	12158	693769.787242163825	5209.5129119786
0	12180	694646.75578047668	6472.7540704646
0	12191	695172.453585004996	6431.3706201622
0	12205	695474.236826452868	6165.8168522938
0	12210	695724.304600878474	6067.5525517084
0	12216	696049.573934669456	5999.4973091171
0	12224	696345.197760282101	4431.7318022799
0	12232	696692.985582937029	5083.4233169781
0	12240	696999.859796120523	6551.4360825249
0	12246	697344.110415050863	5068.916771438
0	12251	697642.887238166708	4629.81533074
0	12259	697909.720600509733	4155.0676571916
0	12265	698209.168288643412	4303.2326696616
0	12336	702252.083866257386	7742.5728023609
0	12364	703114.49814860756	4343.6956234509
0	12375	703450.77463770033	3615.9289917232
0	12394	703980.100714263989	4290.0881420029
0	12405	704550.26734259527	4516.3950875961
0	12410	704871.771569276235	4743.1984266478
0	12416	705181.793813687676	4994.0329881226
0	12424	705760.643942805064	3670.6769661709
0	12439	706312.207030911573	5657.338367243
0	12444	706626.366490030666	4334.0146952392
0	12449	706913.891758872712	3580.4357171088
0	12493	710712.78505580646	6997.3109271301
0	12505	711356.915248600963	4069.5604443802
0	12530	712202.877330413682	4540.1049700264
0	12535	712463.649111101793	3963.4144131884
0	12583	714666.543919296578	5739.755833287
0	12594	715347.326516024758	4255.6252774386
0	12614	716626.546450685577	3515.6164790334
0	12622	716932.755660342359	5383.562184872
0	12631	717233.970294581976	3625.0924270351
0	12664	718464.071269281072	4777.3824253565
0	12669	718774.292735793278	4918.820375306
0	12678	719109.61199137375	4472.5801377227
0	12687	720261.859633827118	3291.117166445
0	12695	720589.345232621135	5226.2663109716
0	12712	721265.667275177798	4029.1384575747
0	12739	724212.168252289792	6931.6243467825
0	12764	725298.479367565973	4627.6928381758
0	12787	726578.991235415531	4866.197763394
0	12809	727755.629333088664	4776.7441551015
0	12815	728036.790857636589	3696.9566135628
0	12823	728434.693418609578	3909.9200211726
0	12832	729987.610877537058	3614.4203662794
0	12849	730692.254420085141	5203.3955434729
0	12868	733363.70404560109	6955.3114935296
0	12897	735398.896361205806	5347.2781634311
0	12931	737591.019998105823	3359.555445922
0	12936	737870.942120404698	6387.5100497761
0	12945	738831.939808138728	4090.3306069448
0	12957	739272.476452893262	3901.0077988886
0	12971	740424.348395718314	4463.0623455433
0	13021	742923.566381691984	5920.819719791
0	13034	744322.416037021793	5255.3931134279
0	13042	744595.630395646211	3190.1622238905
0	13050	744905.385948671849	4041.6646625367
0	13056	745226.310640264185	4281.8597771234
0	13064	745728.235365779576	3744.4426840459
0	13111	749328.112838731926	3314.88781266
0	13119	749637.234051067204	7609.1860508434
0	13127	749927.198873936478	3728.4949080763
0	13162	752059.357226218445	5783.5654180249
0	13192	753567.969592713098	4863.2210525049
0	13232	755138.550770360701	5241.8488297701
0	13240	755413.003200355711	4221.6536381117
0	13248	755699.124134307916	4390.480172125
0	13256	756005.234087759595	4197.1173412299
0	13270	756630.745505783233	4283.4789619232
0	13275	756940.39903200626	4174.0907843823
0	13293	757659.681681870871	4012.1365245099
0	13312	758596.952315089572	4329.1060251948
0	13326	759223.136400721581	4738.9844009668
0	13349	760605.308561970352	4843.7790748848
0	13360	761199.302528106422	3856.7062528834
0	13372	762309.956931452261	4780.397354405
0	13410	763839.777725299319	5250.9939060028
0	13422	764167.353012902815	4684.8096526636
0	13444	765468.851202432925	4924.7579001443
0	13467	766081.592871280446	3909.9696186873
0	13486	766656.635048228486	4218.5375664126
0	13505	767606.134032388649	5232.173523074
0	13510	767908.639046375626	5222.9991247069
0	13522	768448.08662605298	4395.2520491465
0	13527	768723.865946090923	3891.7898460798
0	13536	769345.831661302324	3850.6287180832
0	13548	770361.971117847146	4333.1630624341
0	13556	770709.393564498599	4068.8867644884
0	13588	773842.524673073182	7196.4467672649
0	13628	775613.542484275634	5122.5037139438
0	13642	776184.593046329476	4419.621492666
0	13678	777894.6970645943	5645.3975922306
0	13684	778232.367858703816	3852.0171614353
0	13692	778490.735955419005	3888.4591502938
0	13712	779136.386841015308	4395.4847032657
0	13734	780064.485311237077	3950.0329528238
0	13742	780354.386266107706	4853.1673759088
0	13747	780699.523316647543	3759.137471923
0	13771	782118.380462103421	5122.5004824092
0	13784	782783.998644467928	4474.9113355341
0	13790	783132.340598949698	4281.4335354094
0	13811	785080.83420722934	6037.3031714397
0	13816	785338.593547324898	3772.4436429244
0	13833	786671.919600872773	4791.2757388013
0	13859	788384.676976991448	5163.6036918869
0	13877	790181.115693357815	4651.1897099677
0	13897	791087.096744169756	4267.1018304917
0	13936	793331.133035676739	5970.5506423359
0	13951	794162.927652142395	3257.1822455596
0	13956	794512.846055432643	4941.3106430809
0	13967	794768.542974966632	4349.2203249388
0	13973	795044.223157780046	3325.2660809672
0	13978	795331.733739484806	4170.4710225585
0	14045	800821.226465151591	9009.5142023439
0	14062	801371.956565328042	4597.1864939757
0	14084	802268.822219821864	4811.2102113461
0	14095	802542.472961565522	3858.3349490466
0	14117	803417.506539558144	3490.5858166799
0	14122	803758.198070320772	4169.8136093309
0	14131	804201.569885757536	4271.3874698831
0	14151	805220.30375428331	4684.5780256775
0	14156	805558.490655000314	4245.018342318
0	14174	806065.763398510168	4716.0088119534
0	14198	807332.912320058219	4856.4178156713
0	14206	808014.880260798887	5502.0511878632
0	14227	809373.887493091602	4830.4733159752
0	14243	809947.280977901053	3997.7678467485
0	14249	810290.143689067763	4238.3720822692
0	14283	812470.716563120041	6050.9684078775
0	14300	813191.08345451417	4751.2185945497
0	14316	813959.590869351075	4710.3253842689
0	14333	814938.680307585928	4370.6751580428
0	14345	815869.328435710271	4279.6981569958
0	14354	816199.596401035992	4605.8826356666
0	14362	816474.39079604513	3893.9183837582
0	14392	817909.48956365579	4528.7535813895
0	14429	819440.033142956916	5173.5954435205
0	14443	820219.557173793515	3879.9904072654
0	14454	820650.791995711423	3721.8977188487
0	14468	821528.513474657751	4252.8478512951
0	14479	821791.562532643837	3727.7996887028
0	14485	822068.506893261484	4006.3240081209
0	14493	822609.0482405623	4148.2367443755
0	14519	824666.636850581377	5237.3132888594
0	14557	827247.403053453518	6920.0754156401
0	14562	827528.590075262415	4569.2957153767
0	14586	829346.023173084438	5295.1774918728
0	14591	829593.016211190857	3347.7057201974
0	14596	829818.162317592672	3795.3603299743
0	14614	831416.582003943242	5166.2067620259
0	14624	833203.56359443748	4819.8058985305
0	14660	837684.704265004785	7433.3703099627
0	14685	838940.12680126921	4179.2828955543
0	14694	839464.291951521154	3620.7299208873
0	14715	841435.54782832539	3635.0865904214
0	14720	841756.65722682598	5574.7771482999
0	14738	843425.263351774378	5452.8057789066
0	14747	845001.871682410723	4431.4345920974
0	14786	848948.97336963955	3462.6535603465
0	14795	849256.662842097072	7384.8216205631
0	14817	850273.112547206726	4680.2601956306
0	14851	852302.087082166741	5821.7985079868
0	14860	853134.32020720425	3895.839632392
0	14868	853847.508171692701	4412.6039491228
0	14877	854343.415807818131	3643.5059301129
0	14893	854957.214539862014	4134.931420272
0	14915	857918.807041385894	6210.4241857603
0	14921	858239.114010768503	3827.3165524699
0	14956	861576.839263851311	5947.0716997449
0	14965	862397.452963934326	4130.7198378923
0	14982	863652.298452328206	4478.4112270126
0	15028	866391.762797644145	6240.147389619
0	15050	867360.109973516389	4400.4365843924
0	15067	868773.934978282969	4153.4502316229
0	15082	869198.412747938576	3979.0589345768
0	15095	869750.641210194656	4461.0497517846
0	15106	869987.583321260503	4169.8179738495
0	15134	870938.713964765717	4762.7249811259
0	15178	872731.479455657175	6214.5796382456
0	15193	873034.332173525913	4811.6072386199
0	15206	873558.643782642058	4471.2139386682
0	15217	874123.736932434353	4267.6434183651
0	15225	874442.799249029739	4218.2067802156
0	15233	874758.644574984499	4056.7983762348
0	15245	875225.97703521764	4247.9582381385
0	15256	875532.536559415305	4461.5370012768
0	15278	876488.796954008851	5712.9917820033
0	15283	876768.004304850502	4980.152150768
0	15292	877096.432831035274	4139.4505156792
0	15304	878820.887898549498	5448.6336818346
0	15310	879141.547174459603	3672.6333582075
0	15364	882767.627434645453	6989.4275637626
0	15381	883374.073788538275	3924.0497169847
0	15389	883670.652588069881	3675.743954706
0	15397	883941.449800794993	4252.5645781531
0	15412	885332.956696002051	5174.6738158402
0	15420	885767.169088007328	4032.0391444533
0	15438	887450.387768335045	4771.7992645934
0	15459	889636.337603664338	5872.8868315721
0	15490	891709.234063432432	4901.9974754899
0	15499	892919.097332361473	4405.8426136785
0	15531	894294.349528263509	3820.0560112174
0	15541	894920.664881997729	5504.7172556203
0	15570	896722.630509779268	5850.217706885
0	15587	897330.64443154848	4379.678326573
0	15592	897648.983971196197	3923.3141851983
0	15604	898302.658833917452	4154.3388744799
0	15626	899894.39105075185	3809.067189881
0	15635	900193.618446343322	5021.7510101653
0	15644	901837.630289976416	5119.8036813364
0	15653	902122.11279210282	3860.4725603474
0	15688	905518.851715751932	6158.8289990369
0	15714	907419.964557189141	4998.149489595
0	15722	907798.635369431084	4056.1784735366
0	15756	909482.414888207001	5016.896859602
0	15764	909935.770418501842	4222.6411022988
0	15773	910919.515803357658	4326.7346277799
0	15802	912191.485045883838	4345.7392849962
0	15810	912494.711128998785	4148.0227311624
0	15828	914373.617207662969	3366.9083164541
0	15833	914691.292781690191	5794.9767951862
0	15842	915507.757644081138	4463.3108150022
0	15870	919687.124018976902	7331.1510769351
0	15900	922355.864787537232	6140.5881474259
0	15923	924354.381069393977	5215.2911747444
0	15931	924776.1334663366	3618.2102174608
0	15940	925473.087518523371	4290.8990857241
0	15957	926640.98540911534	4464.772865924
0	15983	928798.725585688605	5686.5886881612
0	15992	929549.608503322606	3685.4925305235
0	16000	929848.587192861013	3147.9149655833
0	16033	935183.242590413661	7871.7310165757
0	16058	936193.855373121005	4383.553097526
0	16116	938814.372206941913	6521.0625892752
0	16125	939096.586591916594	4134.4734434376
0	16130	939419.354020039778	3884.9541506553
0	16138	939832.131305825744	3658.8959015594
0	16184	941242.362743244493	4862.6241024293
0	16197	941825.576314457964	4602.6872223539
0	16208	942370.946376774641	4718.3090527434
0	16213	942641.930406570273	5177.1113719065
0	16222	943334.93193389216	5619.799575417
0	16233	943750.663858743984	3697.9988090665
0	16238	943995.074546542329	4004.761087056
0	16247	944453.677484603774	4325.2624873242
0	16259	945211.023189381917	4276.5530467172
0	16324	948223.015141000998	6695.6960089807
0	16346	949184.765922016729	3997.1311785465
0	16351	949468.980550826129	3972.7325445064
0	16365	949775.656945641922	3992.8321257586
0	16379	950357.09690955548	4416.8905628784
1	826	54425.131478654464	0
1	835	55316.096961874593	0
1	844	56378.041715384357	0
1	852	56835.034180379752	0
1	870	58412.935447597414	0
1	916	61790.233482182822	301.70152476776
1	928	62147.371721861471	589.82615134552
1	933	62435.217733697934	442.80279070471
1	938	62746.425011289968	681.95732398834
1	947	63741.95386371788	0
1	990	66496.94253276085	219.28577864574
1	1007	67073.942234979782	125.8828037091
1	1015	67344.037566573586	225.80646611497
1	1024	68937.917027098365	0
1	1068	72599.458726129782	0
1	1077	73298.294980310846	0
1	1105	77031.470856331859	0
1	1113	78000.870777133763	0
1	1122	78321.550584468199	64.777428281978
1	1130	78979.264690428984	0
1	1148	80237.249271174014	0
1	1165	81042.08368219249	0
1	1190	82383.82956686147	0
1	1198	82690.689019184134	205.61459017168
1	1207	83075.623913174383	0
1	1232	84582.269058557645	337.56651479417
1	1241	85832.229453527422	0
1	1262	86180.502332242315	220.23681823493
1	1267	86443.113027723019	378.53931967372
1	1280	86997.66491989937	206.56091953799
1	1342	90379.122114485165	89.501362304651
1	1351	91388.905206745978	0
1	1359	91995.811840784168	0
1	1377	93125.258406182823	97.840019216269
1	1385	93671.079484379073	0
1	1393	93940.112502063851	206.38683589961
1	1410	94869.741620756507	0
1	1436	96503.459170726503	0
1	1461	97796.735576520253	0
1	1473	98079.592872819007	163.58844161023
1	1486	98773.071471290956	0
1	1503	99930.08923246348	0
1	1529	101503.009509115608	0
1	1546	102533.039426623394	307.00216997276
1	1563	103311.051435344521	0
1	1572	104085.503159155849	0
1	1600	105721.386036225076	167.57286491726
1	1609	106039.870538861605	342.85922726658
1	1614	106374.617679363297	613.23925631005
1	1639	107271.645966756618	185.92581435557
1	1650	107614.555741410434	336.91918074861
1	1661	107916.573120088698	622.89106929598
1	1667	108222.305397926281	534.89961860822
1	1675	108521.052057532304	802.35405373903
1	1683	108814.250120584094	324.79577847111
1	1714	110238.493389558009	0
1	1745	111178.434138561994	182.6228995006
1	1753	111432.791447431232	372.40976678842
1	1770	111727.147672460402	401.97188687063
1	1775	111988.044101953959	476.83797959581
1	1789	112593.284786622462	85.827854419971
1	1863	115969.700506400698	83.897651940507
1	1873	117305.048157279578	0
1	1881	117602.984192241069	86.261798610532
1	1890	118153.085624994333	0
1	1901	118410.895222587188	153.29670088171
1	1915	119038.899927004725	236.52214482529
1	1923	119514.853048226284	0
1	1957	121445.004855156736	0
1	2001	125024.084341010877	0
1	2009	125359.066158840788	189.74204660373
1	2020	125698.283221982566	306.57711435397
1	2026	126038.787978423716	535.13222202651
1	2034	126420.945025338788	0
1	2060	128729.859800258384	0
1	2077	128990.980203462391	260.5256038761
1	2086	129301.095165771832	341.08762780313
1	2097	129581.758289053667	252.53960452976
1	2105	129855.698530352761	519.9620811476
1	2114	130168.832349267352	405.19444000429
1	2119	130519.675795888108	608.39871167763
1	2127	130823.797678733637	133.67208840844
1	2167	132093.757824992007	231.1397499444
1	2172	132428.387782903758	516.53737874475
1	2186	133067.989053083635	73.786178892244
1	2230	134486.712583591757	198.10294594014
1	2235	134803.541552630202	427.14584321444
1	2244	135105.877389062156	87.097527339775
1	2302	138026.955602935665	129.83328065024
1	2316	138316.368718176441	23.271578090614
1	2324	138642.267041302219	40.105307584192
1	2338	139292.259887466934	119.05103506685
1	2346	139597.428775097281	284.35662252206
1	2380	141935.798296344422	166.958376451
1	2397	142568.913038743635	78.284940483434
1	2414	143211.881523461391	197.57713631059
1	2422	143509.290942187716	210.70673736624
1	2437	145364.922172220701	0
1	2468	146297.809999427971	46.173674802151
1	2473	146602.85769941488	308.13322155412
1	2495	147592.79482366296	0
1	2503	147927.577248620965	334.47052044601
1	2512	148217.047337421594	142.86123807426
1	2520	148607.203141867734	0
1	2528	148852.656405946801	213.37873841704
1	2556	149752.398988529027	151.22279551419
1	2581	150696.985217198777	216.77341450987
1	2601	151325.678026567688	295.28302547961
1	2609	151617.644070919997	368.61981512185
1	2620	151953.454346093515	416.99510720418
1	2668	154102.950550092022	279.34063710054
1	2673	154354.740348912421	522.52482185569
1	2684	154589.744649189649	224.3281426737
1	2698	154901.84385624983	349.92654079932
1	2704	155184.430045982977	351.76024316684
1	2728	156687.762461064294	0
1	2740	157036.989255790221	238.67693862183
1	2759	157565.030779020695	185.54523477355
1	2776	158111.366396758779	220.75292635949
1	2839	163171.227842079071	0
1	2848	164772.132388613748	0
1	2860	165082.481957924113	240.88334992361
1	2868	165407.603147717189	562.91770534051
1	2873	165706.682908598048	567.97995051137
1	2890	166624.902448514189	60.840917921289
1	2916	168366.966360234256	17.513105982322
1	2924	168719.772136218055	239.08769440112
1	2939	169044.542242736836	319.90373499538
1	2966	170206.887237065984	0
1	2974	170771.414400185706	0
1	2983	171103.71328544111	102.58664598667
1	3008	172409.174543540173	98.753427151842
1	3025	173292.279829892512	0
1	3073	175721.957720851217	40.004986168137
1	3079	176014.194130327789	318.65561188377
1	3084	176342.667175826491	626.92954148509
1	3102	178589.246569657193	0
1	3122	179154.622078380294	196.67914499574
1	3130	179487.745572114011	472.15328965523
1	3152	180505.414666916608	2.387995591623
1	3160	180876.374010523275	0
1	3169	181189.82925097726	0.16266117019
1	3188	181881.023072898338	101.05904132621
1	3197	182201.939927722896	95.670727723548
1	3213	182865.293222071989	276.99094092694
1	3222	183194.998048383993	322.07792869731
1	3247	184045.74555278062	283.61681610874
1	3268	184861.608596098418	70.214784934316
1	3277	185101.8099823176	3.676091431613
1	3318	186854.033810187301	190.06782327036
1	3335	187343.396403628106	21.830156870666
1	3351	187925.683989632907	27.765873841148
1	3363	188277.035762243906	56.42975637617
1	3371	188612.778750269034	284.68067794803
1	3393	189837.651096219336	181.17931695035
1	3419	191280.125248082458	193.0278550437
1	3433	191601.204445936595	52.663185207847
1	3441	191944.092284234455	157.77406506726
1	3478	194297.744685928305	105.44196589181
1	3504	196724.12848066104	0
1	3524	197795.316777248631	117.49194469005
1	3530	198083.817830170315	366.46296561114
1	3539	199125.332821542121	0
1	3557	201021.853657377801	0
1	3571	201364.540120344579	32.606910318153
1	3579	201634.985140070007	51.122713955749
1	3616	204358.181767838283	0
1	3641	205222.484777587573	173.21019054236
1	3651	207106.899686699536	0
1	3676	208580.092461405221	0
1	3687	208887.52030696956	54.473167612065
1	3693	209201.790646695312	354.08572027047
1	3710	210531.844751530822	0
1	3753	213743.565589604283	0
1	3762	214063.406981322503	0
1	3770	214983.863241122667	0
1	3779	215846.452611632178	0
1	3796	216738.10583105465	0
1	3831	219172.679862196261	0
1	3849	221966.902543066141	0
1	3868	224435.720732944786	0
1	3876	224759.962376972427	232.1073660955
1	3893	225889.329758331363	0
1	3902	226269.851524976011	0
1	3911	227029.98492362353	0
1	3927	227799.828554533071	0
1	3947	228428.760213947336	227.94676936731
1	3952	228736.138431645488	464.37499603866
1	3961	229014.359733587049	29.609459427286
1	3985	229906.5949269804	0
1	4011	231166.306521010539	133.43663753086
1	4053	233497.710838875682	0
1	4062	234089.366027101	0
1	4078	234969.689698593851	0
1	4088	236087.968467126728	0
1	4122	238272.659933592956	0
1	4131	239047.945655651679	0
1	4139	239629.214387305203	0
1	4156	240199.963315574811	282.6700580073
1	4164	240873.760607524572	0
1	4173	241161.498726009401	189.02255144366
1	4206	242590.435089605638	201.80781784588
1	4214	242863.218140643127	111.19783327066
1	4231	243678.685755640141	0
1	4251	244447.118004774112	96.777818583662
1	4265	245336.495681288587	0
1	4279	245656.55572668085	128.54736108329
1	4293	246273.244962361183	274.1201022395
1	4323	247653.007298110013	0
1	4331	247957.15336275062	67.670132576893
1	4351	248490.058596567394	38.826740845893
1	4373	249559.531936600576	226.07596565843
1	4408	252554.673086114639	0
1	4419	252858.829273397672	176.4909142792
1	4433	253483.450164882685	132.82347003886
1	4442	254362.510667935115	0
1	4450	254636.759430514153	78.587750212982
1	4467	255763.950947432156	164.42540283893
1	4487	256350.538873844803	206.96619103582
1	4503	256982.776131030752	27.809323313151
1	4526	258018.20008987313	210.78201427744
1	4534	258347.332787452594	328.63465579847
1	4560	260044.821156036163	0
1	4568	260405.326451881094	48.030755086011
1	4579	260733.885460541652	260.0329917263
1	4599	261461.447710193392	353.12639794906
1	4618	262411.808506666354	93.413717166706
1	4626	262809.92842440293	0
1	4669	265214.728545199052	0
1	4685	265883.788455395773	240.2615280889
1	4722	270631.873580797806	0
1	4731	271239.388397762845	0
1	4739	271521.356778972405	0
1	4749	273493.105833113467	0
1	4783	275503.767696673329	0
1	4791	275843.938904371186	220.95412063897
1	4803	276106.582183225067	229.11840936913
1	4811	276424.639167868732	143.8184832482
1	4825	277894.889696011915	0
1	4834	278165.757601840813	1.132976718271
1	4845	278477.207786164648	281.488684564
1	4853	278774.492045086281	216.24426121476
1	4876	279471.657244888578	292.10329348631
1	4946	286451.54579309742	0
1	4965	289511.164437468115	171.76505061922
1	4974	290440.432500806917	0
1	4982	290836.426848099199	0
1	4991	291144.8072291671	202.3425605911
1	4999	291457.962567526641	306.24288641487
1	5007	291917.894635783647	0
1	5025	293098.63728197909	128.58533088
1	5033	293453.83534371518	0
1	5053	294148.274695479239	93.787168989853
1	5072	294728.455833072925	311.0660789427
1	5087	295046.561149403227	263.22197401945
1	5098	295356.120832752599	402.54987398703
1	5103	295656.203789167044	523.10659710472
1	5108	295960.691004650118	723.38196350632
1	5128	296646.139058794293	215.97482126884
1	5136	296922.040969975639	396.00723195886
1	5145	297223.031564324074	42.503177759373
1	5156	297412.235899312221	5.067129638636
1	5219	299816.953709416053	105.01874941261
1	5258	301361.930342734594	69.853191821138
1	5285	302522.094062166833	186.51481627974
1	5290	302856.882459660693	375.25212962322
1	5308	304316.935227116856	0
1	5327	304942.291583145293	273.36256908488
1	5336	305208.197044292352	419.98352463605
1	5349	305786.42907065971	200.25267820196
1	5366	306606.255596136431	33.624076899707
1	5375	307398.791206650488	0
1	5395	308038.925960716219	179.96554022801
1	5412	308392.239625612275	163.85807218299
1	5417	308657.096492930863	413.83736418515
1	5425	308895.991213765298	607.78524471316
1	5437	309153.454049662772	389.78914822751
1	5442	309497.78432438717	589.22234776488
1	5459	310127.444014505002	43.300176256755
1	5487	311030.805187100569	220.48342102072
1	5492	311341.18008789462	509.6668706706
1	5520	312210.343926359962	252.34369921078
1	5602	315809.823406777605	97.107717885501
1	5608	316057.339129983776	280.99301671551
1	5616	316460.392964297107	0
1	5624	316770.309590744983	220.26816060049
1	5651	319296.02781230762	37.241525829015
1	5676	320741.774157999215	0
1	5685	321510.161261291966	0
1	5703	323895.433358380323	0
1	5718	324207.273889184301	56.677477428649
1	5723	324486.25743986601	335.04413423233
1	5774	327909.005830024521	272.0485212707
1	5783	328186.299133787633	479.00707780111
1	5788	328456.992928553377	329.84671456627
1	5799	328762.450567687424	131.78508291845
1	5805	329078.183274521957	403.90682287999
1	5814	330101.09868228205	0
1	5859	332379.818958602268	78.386115719488
1	5873	332683.686350370791	143.23683388789
1	5878	332937.397825811526	344.95109512113
1	5887	333216.516796523963	539.90080600802
1	5900	333799.913446998679	65.948821814535
1	5914	334352.501895411181	176.6083084098
1	5923	335018.587418703884	0
1	5931	335353.130959492064	10.77410873468
1	5947	336005.046137776369	116.51678933996
1	5973	336602.11535828911	307.23895649575
1	5981	336876.446413810764	234.42981584002
1	6001	337455.570875077631	236.90837976313
1	6006	337756.249198174778	343.23555991325
1	6026	338338.016512395129	16.740149893681
1	6106	342997.030308957666	0
1	6115	343310.082589797394	225.00588426823
1	6123	343659.378239481591	119.47899499561
1	6147	345956.739447135382	256.94528680917
1	6156	346273.951545920505	573.89381972248
1	6167	346546.582227350005	682.56434413474
1	6175	346824.38617641605	864.84168680718
1	6181	347081.279193925371	287.45894551509
1	6194	347696.721129877476	177.56089178467
1	6217	349153.354313063496	0
1	6228	349507.002108270663	106.17666614043
1	6239	349762.608268991464	80.006649041165
1	6295	352517.225879439444	210.17203734033
1	6303	352761.966004731861	439.41170022574
1	6325	353758.319475293242	141.05242146458
1	6334	354698.18390556911	0
1	6345	354995.469741825088	44.017689603452
1	6359	355943.421080158087	0
1	6371	356260.092235835687	68.574722121376
1	6393	357275.805414042559	247.3319573363
1	6401	357564.814620689119	92.486092581476
1	6434	358777.192968273005	1.897428990847
1	6443	359394.508376558018	0
1	6460	360384.664812200835	0
1	6485	361283.433239172595	184.42555384115
1	6511	363033.071281034479	0
1	6519	363335.524787167739	289.04400013899
1	6536	364079.883547158268	0
1	6553	365206.003236941946	0
1	6561	365534.354464410164	0
1	6586	366684.653566964959	51.396930606399
1	6594	366973.698173939471	0
1	6603	367332.215317350342	24.574881035222
1	6628	368373.811890376593	0
1	6645	369449.669123130759	0
1	6662	370088.759045631947	21.634556623607
1	6681	370749.668278042839	128.85197221961
1	6703	371786.179305385363	0
1	6748	376315.323588577593	0
1	6758	378413.971646151997	0
1	6776	380958.699047663607	0
1	6788	381332.607049648656	32.198910937976
1	6820	384267.915430136306	74.042943493766
1	6828	384587.879706014866	286.17542010717
1	6837	385614.337479169448	0
1	6847	387272.135540842031	0
1	6866	387886.424289869967	90.160257500528
1	6878	388161.180343568407	117.17512438218
1	6883	388427.087449924061	335.7803768062
1	6905	389897.820589759159	0
1	6922	390495.77018221282	184.85859274878
1	6942	391094.499251475225	169.49167820042
1	6953	391401.280115675234	193.86606952975
1	6966	391977.284751033681	9.998903246187
1	6981	393039.099007274491	0
1	7017	394396.48358079227	116.85177677636
1	7025	394660.602293865994	318.97266778753
1	7047	395978.984728394515	0
1	7091	399686.856880751383	0
1	7100	400122.105799880223	0
1	7109	401900.966345451143	0
1	7136	404536.39831812612	0
1	7144	404832.674037724811	202.46291147425
1	7162	406107.374961767556	0
1	7170	406458.287571157164	22.808595324252
1	7178	406874.755471349756	0
1	7204	408507.174097877294	178.04298377076
1	7224	409536.48799188807	29.280279256896
1	7246	410879.577966071715	0
1	7258	411216.740419809991	8.786313320338
1	7280	412937.53651287766	0
1	7289	413430.220034374774	0
1	7309	414545.910111372731	81.972788667448
1	7332	416827.055099260261	0
1	7349	417722.828962772617	0
1	7366	418896.01465948101	0
1	7375	419983.493988014244	0
1	7400	420857.376007702195	260.13291304273
1	7417	421950.718430411345	0
1	7444	424681.630100135879	0
1	7462	426150.546146855125	0
1	7479	427443.02397567367	188.69001181334
1	7488	428470.239671994235	0
1	7496	428778.898712524676	230.63481761332
1	7511	429059.276375718553	137.50608842157
1	7516	429378.995687545759	419.80632809823
1	7527	429633.776565680833	597.812550162
1	7541	429925.460509428418	484.16561989164
1	7547	430217.800261048986	599.41343205
1	7552	430495.86361142918	812.56534601206
1	7560	430846.946243592835	338.17717914148
1	7594	432066.633721820366	17.312239961087
1	7613	432694.800698827368	210.3083008893
1	7641	433593.902585153919	157.20140925518
1	7649	433885.764339248328	437.21749131206
1	7669	434515.529843283127	284.06470160262
1	7674	434833.917857375519	557.77287616421
1	7708	436072.27169961918	245.60486177693
1	7716	436354.381360884511	303.72402144533
1	7721	436643.143568042887	339.59387664275
1	7754	437830.970355003017	226.5982604591
1	7763	438139.591903695899	136.26685066723
1	7837	441734.469238152967	252.62379388022
1	7846	442698.658134000388	0
1	7856	444153.632961020761	0
1	7873	445567.89478713454	0
1	7884	445866.155560558767	202.33498425017
1	7898	446908.284990512431	0
1	7943	451430.946237186903	0
1	7951	451677.846317264615	189.94729384284
1	7960	452634.629702413553	0
1	7971	452975.722338367119	166.27507952559
1	7977	453258.098722761917	433.55417282707
1	7985	453871.549828427949	0
1	8002	454435.334920914303	164.39958873448
1	8013	454698.673654655737	105.95545095386
1	8027	455259.744234211363	63.975900291863
1	8035	455935.087485450485	0
1	8047	456230.924745365414	55.055127212501
1	8069	456899.012643644726	221.09743237238
1	8078	457200.738344000828	271.4621836195
1	8092	457505.501088109296	266.4332619025
1	8100	457774.279434651801	363.46490865895
1	8130	458954.550259985904	271.73444393165
1	8202	462043.557151346191	0
1	8232	465098.499543200276	136.53882503115
1	8237	465406.198801578834	362.83661391552
1	8245	465723.355058901837	220.68529065029
1	8254	466184.244022588865	0
1	8272	468162.827485472206	0
1	8280	468524.662161155376	265.00385285961
1	8303	469162.735229762881	191.79021467436
1	8316	469751.097562766383	170.48088049155
1	8356	472275.494136703653	56.843173535242
1	8374	474099.642363134254	0
1	8385	474380.224258385046	271.82360943502
1	8390	474732.412752281279	525.45949165814
1	8402	475064.559641338306	70.311051859848
1	8410	475336.39578864955	117.0120119162
1	8424	476643.222963638688	0
1	8432	476957.724564605256	0
1	8469	478417.175376341299	179.62848051318
1	8494	479369.030017923134	103.83211175826
1	8502	479643.016905759148	225.98098253221
1	8516	479983.248871396127	206.69106935556
1	8522	480238.635382203485	268.30861985178
1	8553	482135.40060723665	28.821633904584
1	8591	483941.560787084038	278.55290364107
1	8600	484927.862436503802	0
1	8617	485543.467920888814	196.97616184476
1	8625	485834.538679571612	31.863952536413
1	8646	487454.248926374062	219.93840352017
1	8651	487747.762107932148	322.81788692395
1	8676	488710.968369145693	11.000211309089
1	8684	489006.935634003479	268.23278237286
1	8701	489620.76954133817	174.60117756822
1	8721	490637.427997361583	207.72498610006
1	8729	490957.081085340842	305.66985147019
1	8763	492380.242080934079	244.83870649654
1	8771	492691.067709069833	476.16601940641
1	8821	497526.884025480824	0
1	8831	499385.742827900206	0
1	8839	499726.450892628015	165.28972229247
1	8857	501423.601432033359	0
1	8865	501685.991560061899	205.50277949261
1	8885	502795.700619206374	168.86202324172
1	8917	505450.459630529708	0
1	8934	506703.791856820779	0
1	8952	508881.90283760069	0
1	8970	510381.902262179662	0
1	8980	512044.992747579608	0
1	8991	512332.41020087493	57.917627045965
1	9013	513541.850374270052	0
1	9022	514712.379746928664	0
1	9057	517058.824677649622	0
1	9065	517299.038909134438	61.773541432692
1	9073	517632.487674488295	265.25022151444
1	9081	517945.744317580882	62.746557146359
1	9098	518722.181279200687	0
1	9107	519210.770570476884	0
1	9118	519492.503189878313	195.30766935831
1	9126	519765.784130215736	283.58913165448
1	9135	520043.539593214113	254.9841158043
1	9146	520370.717353843211	298.31661180493
1	9168	521294.492651788245	66.111050916174
1	9179	521563.260953035844	5.054321006278
1	9215	522809.646715074607	133.01149261917
1	9262	524469.77563697468	207.11483459233
1	9281	525366.857662359446	117.13744906502
1	9289	525794.671514773127	0
1	9306	526480.606836610578	0
1	9324	528031.558826351797	0
1	9357	529890.691830447921	0
1	9375	531783.835432041656	0
1	9384	532624.382122346671	0
1	9401	533296.468164909377	0
1	9409	533631.75566227724	0
1	9417	533962.801384507065	303.09970471085
1	9434	534811.651710744011	11.622410192916
1	9443	535266.663804666857	0
1	9454	535564.08646877323	294.67113927646
1	9465	535862.625025299994	578.69172356076
1	9474	536202.884135464243	365.70534749328
1	9482	536465.152689424785	541.05657384869
1	9512	537653.886935040629	77.588724909292
1	9540	538398.03177720478	47.982971941536
1	9556	538970.769458587613	34.155796764804
1	9568	539268.510964629995	186.41810119996
1	9585	539562.394183198874	226.19092727106
1	9593	539887.576867961453	373.78345222659
1	9599	540169.337454773228	650.17366180596
1	9607	540442.45516070551	734.95593986249
1	9615	540768.411615398473	421.1453247383
1	9632	541326.91068696042	97.368036052623
1	9682	543142.649054951498	31.61110433005
1	9698	543749.746282566352	186.53267480922
1	9715	544338.483717495578	270.76202652764
1	9742	545483.456339581851	36.264313220667
1	9769	546715.510176990351	123.38682408527
1	9802	547886.70791783152	156.53816150577
1	9811	548178.923888261031	389.21803244556
1	9816	548493.131246536436	521.98236150386
1	9827	548838.970892713386	180.93462887998
1	9841	549547.650806230786	0
1	9852	549897.71112454479	253.1307644986
1	9866	550729.007133889686	0
1	9875	551160.876253783372	0
1	9911	552308.667905514859	236.88266200435
1	9936	553175.748232904334	251.72052345294
1	9955	553772.672354526511	108.44966729097
1	9983	555857.750549085303	0
1	10020	560507.732212154559	0
1	10028	560867.075174555977	0
1	10038	562222.287331349351	0
1	10064	564618.115070815815	0
1	10075	564944.217052371492	276.14960276626
1	10087	565251.215073934211	478.14620647264
1	10092	565543.9814741874	401.34977515246
1	10106	566400.908543923899	0
1	10114	566696.63705876693	58.513375323881
1	10125	566957.604586934073	209.18619435003
1	10159	568508.838432904193	249.94170905503
1	10198	570264.677407044293	270.77664298424
1	10207	571618.566621702127	0
1	10218	571905.39417854458	39.936063850045
1	10232	572750.140262217388	0
1	10249	573384.406481966921	306.15350373219
1	10257	573875.829159627228	0
1	10266	574299.647514455594	0
1	10285	574944.093664201221	105.3209821458
1	10302	575435.366361179982	84.83129740658
1	10336	577053.26675078454	260.40593831349
1	10367	579142.724190715184	0
1	10375	579662.211570482721	0
1	10393	581538.871392659962	0
1	10410	582806.305700941077	0
1	10427	583454.091030419973	10.703440799366
1	10444	584588.724001166649	65.185168178614
1	10480	588131.396842825103	40.110331808153
1	10489	589490.839467281624	0
1	10498	590474.972303653418	0
1	10525	593168.458411067104	0
1	10542	594480.579200905561	0
1	10556	594810.440585365778	293.94551428983
1	10562	595135.243044842489	512.23016638121
1	10570	595449.779079444929	813.43636923812
1	10575	595748.338135375993	336.64353046306
1	10592	596835.149555122939	0
1	10621	598106.641879170862	86.253249064074
1	10640	598658.895724953735	225.67609556822
1	10648	598958.233566177858	479.0931849007
1	10667	599927.014299120433	0
1	10704	601835.600878136701	85.295456059846
1	10718	602864.478665128491	0
1	10745	605456.264510175339	320.25304784726
1	10763	607336.263759471423	0
1	10771	607690.754193052678	0
1	10789	609483.385551426016	0
1	10809	610567.737234239006	43.795687548367
1	10823	611416.671445881866	0
1	10858	614809.794318746245	238.86379453871
1	10867	615682.807551302802	0
1	10875	615977.146001275633	137.79474960119
1	10885	617231.963606260619	0
1	10913	618922.991789341531	65.361629198219
1	10927	619669.229357297593	0
1	10936	620033.553875373594	96.559985811299
1	10952	620937.814550409132	0
1	10961	621650.331241316365	0
1	10972	621976.828052661741	118.05356840399
1	11003	623380.893045029633	91.396547338471
1	11023	624252.002942123153	248.40375650476
1	11031	624546.115543415222	311.48911102745
1	11054	626415.031379234651	0
1	11062	626702.086347495	107.49472836117
1	11082	627296.593804798004	209.86046528194
1	11112	628827.049743719036	87.497029755921
1	11121	629074.269836133005	235.23352547796
1	11164	632961.311755294338	0
1	11173	633273.530884511005	178.56316805806
1	11181	633658.683291639982	0
1	11190	634821.553967605945	0
1	11199	635230.731706851124	0
1	11233	637288.906027673868	0
1	11258	638776.104200811106	0
1	11268	640167.277611096037	0
1	11304	644061.03786162676	0
1	11312	644594.788817300463	0
1	11321	645201.290959398322	0
1	11330	646847.810490193492	0
1	11342	647144.385044494588	45.282789186573
1	11373	649232.067239853654	0
1	11398	650819.962745872942	0
1	11407	651951.375334364579	0
1	11424	652567.848630370085	167.36508834237
1	11432	652914.035331582539	0
1	11450	654513.034461042665	0
1	11484	656452.241658883989	242.51501679066
1	11492	656924.738832468258	0
1	11510	658097.474324758205	65.769127332089
1	11518	658791.385806896853	0
1	11544	660719.749738370835	0
1	11561	661910.625395666273	0
1	11573	662249.46451470369	98.934395504348
1	11595	663364.017940713493	0
1	11603	663668.129563079078	215.04513971808
1	11612	664400.048540683725	0
1	11638	666144.911097415126	129.0241329358
1	11663	667334.474753592401	44.330814174898
1	11698	670803.605172288341	0
1	11707	671542.035091647333	0
1	11726	674069.79797895267	0
1	11734	674486.755580905006	0
1	11751	675196.435107231707	0
1	11759	675784.862111300632	0
1	11768	676625.068250648499	0
1	11776	676920.607312404536	99.191180116609
1	11801	677906.140342767725	0
1	11853	681562.585582811106	0
1	11861	681873.75982247008	308.17722584749
1	11870	682156.590670380303	162.09410042801
1	11878	682976.824455110612	0
1	11887	683305.255205996416	95.592795396433
1	11896	684361.097646141582	0
1	11924	685273.546088874663	85.380364334891
1	11954	686880.522015530278	0
1	11966	687207.950745427225	240.72334819203
1	11971	687482.792998766725	426.13262872758
1	11988	688072.850570093381	154.10006546594
1	11999	688372.795343149753	198.79363313771
1	12007	688674.248700270222	113.97437008499
1	12015	688993.105670223501	252.02270538069
1	12024	689345.470554660118	37.050580501063
1	12035	689688.127488148146	31.375438978024
1	12049	690297.659191054774	247.58256550241
1	12057	690593.671874305044	145.2481607094
1	12096	691733.275259512838	123.71299355388
1	12105	692037.952490459197	124.48653245697
1	12116	692316.335496163	41.141852550162
1	12141	693162.878295410584	149.80638798388
1	12160	693769.787242163825	15.134298845696
1	12169	694030.05263040339	124.11701142161
1	12182	694646.75578047668	137.24471658023
1	12270	698770.802525156687	0
1	12279	699690.012572261044	0
1	12287	699974.807200924102	139.96155494695
1	12299	700182.105401377972	148.23314637883
1	12307	700463.084376584607	334.51123395621
1	12315	700773.315173804923	585.55434823989
1	12321	701096.310551320764	441.44188765217
1	12338	702252.083866257386	162.11688962321
1	12349	702566.136734923555	273.78494013207
1	12377	703450.77463770033	117.31859593646
1	12396	703980.100714263989	264.62658558759
1	12455	707287.354804220758	0
1	12463	707662.772360387289	0
1	12472	708500.234697913411	0
1	12480	708926.788086009607	0
1	12507	711356.915248600963	265.2140100148
1	12515	711648.74458954741	99.55111407701
1	12541	713110.929971652158	0
1	12549	713608.877867546846	0
1	12560	713876.040061552188	189.35121762765
1	12569	714164.398748031086	308.92638754377
1	12585	714666.543919296578	29.512065645508
1	12599	715363.078921649486	0
1	12633	717233.970294581976	263.22782719985
1	12647	717549.451569962678	312.92275235955
1	12655	717845.84408097896	565.30017547168
1	12700	720670.786529390148	0
1	12717	721712.793472021567	0
1	12726	722978.885177987185	0
1	12744	724339.834244073774	0
1	12752	724640.812405572583	116.03900813557
1	12769	725488.858876612283	0
1	12789	726578.991235415531	205.80072415782
1	12794	726899.270205290102	490.87765321859
1	12838	730051.618197774674	0
1	12855	731483.432070628556	0
1	12874	734231.464552183777	0
1	12882	734741.609201193945	0
1	12899	735398.896361205806	27.427707201122
1	12907	735961.286050174965	0
1	12916	737002.746661900979	0
1	12959	739272.476452893262	205.45352929935
1	12976	740863.721286135125	0
1	12985	741212.37115586536	267.92029272454
1	12993	741500.464815601729	94.996643845989
1	13001	741983.792681733633	0
1	13013	742291.178993610245	263.13099338639
1	13069	746013.225026071975	0
1	13078	746264.677477082315	65.973511222166
1	13086	746558.621563968494	282.82975577497
1	13096	748704.748540208149	0
1	13129	749927.198873936478	30.496933345867
1	13139	751191.349562243972	0
1	13147	751517.243635688614	208.59967350567
1	13164	752059.357226218445	251.24047968879
1	13172	752365.120053098002	17.853509237921
1	13180	752766.308247623935	0
1	13197	753647.545157360987	0
1	13206	754267.846289894731	0
1	13217	754565.076781229895	80.924781475152
1	13258	756005.234087759595	243.70460067406
1	13295	757659.681681870871	317.08540664781
1	13300	757947.14393626383	417.58435921657
1	13314	758596.952315089572	8.168495793078
1	13331	759482.543360239194	0
1	13351	760605.308561970352	61.215259681717
1	13374	762309.956931452261	138.33367885916
1	13388	762614.94064311822	240.98013380361
1	13396	762967.736231259288	529.63874944339
1	13402	763284.199643085886	598.5597214172
1	13424	764167.353012902815	114.51843599638
1	13432	764832.076100011126	0
1	13449	765495.202943219097	0
1	13469	766081.592871280446	52.784815867449
1	13488	766656.635048228486	16.128248218324
1	13493	766944.459103784105	298.38119797583
1	13558	770709.393564498599	218.35479416672
1	13567	771764.971553663426	0
1	13576	772249.299472363719	0
1	13594	774380.350697268466	0
1	13602	774667.944829742963	65.668024617715
1	13613	774968.456797302035	227.55465955242
1	13630	775613.542484275634	112.32359407672
1	13644	776184.593046329476	70.140687916213
1	13652	776940.385844724509	0
1	13664	777260.546855515731	264.6668758215
1	13694	778490.735955419005	181.64864648518
1	13714	779136.386841015308	285.47977747505
1	13719	779417.470630317016	373.93959452738
1	13753	781566.149904400543	0
1	13773	782118.380462103421	237.73660003195
1	13795	783221.07328510451	0
1	13821	785529.92598339008	0
1	13838	786819.994913678055	0
1	13847	787360.58239334079	0
1	13865	789571.535412351699	0
1	13882	790419.322650027804	0
1	13899	791087.096744169756	181.35133758696
1	13907	791405.993074611765	244.73035768549
1	13915	791718.957076812869	0
1	13924	792034.173488550502	222.46122574283
1	13984	796774.770071352338	0
1	13993	797457.612008475769	0
1	14002	798684.138012518892	0
1	14011	799588.384460989856	0
1	14019	799926.92072287824	0
1	14031	800220.902764420995	290.72034854652
1	14047	800821.226465151591	285.50073654583
1	14064	801371.956565328042	58.48425264574
1	14072	801690.761949313277	341.00736275651
1	14097	802542.472961565522	65.978457178568
1	14102	802785.863214781645	273.03414184592
1	14136	804543.414177116386	0
1	14176	806065.763398510168	116.25026735762
1	14181	806403.378213867611	351.60660706907
1	14189	806691.816991565751	272.06883632323
1	14212	808439.864859964519	0
1	14229	809373.887493091602	124.62200800941
1	14254	810568.005149543092	0
1	14263	811589.630278714494	0
1	14274	811839.853939634214	246.14017426481
1	14288	812580.472412286957	0
1	14305	813380.735982266261	0
1	14322	814266.437699436408	0
1	14364	816474.39079604513	134.82402951698
1	14372	816928.894276862753	0
1	14384	817295.236930540478	19.571307177782
1	14398	818062.182885140603	0
1	14406	818370.941234281678	307.17839034063
1	14414	818764.608308558427	303.7968123716
1	14431	819440.033142956916	10.70958123495
1	14456	820650.791995711423	323.46435789802
1	14498	822959.294359885747	0
1	14508	824050.845681211624	0
1	14526	826022.801987618409	0
1	14540	826352.001687404042	106.69119641059
1	14545	826668.087566266217	417.71232434891
1	14568	828383.757695907001	0
1	14602	830251.333955042129	0
1	14630	834760.843905714901	0
1	14639	835843.562030633885	0
1	14648	836181.880078526063	0
1	14665	837800.46123790399	0
1	14674	838076.849684529682	104.39211166192
1	14700	840570.437090313316	0
1	14725	841871.841221533945	0
1	14753	845486.31980929301	0
1	14761	845748.81689620549	155.96454462933
1	14770	846480.288574179974	0
1	14797	849256.662842097072	18.182267284817
1	14805	849561.629696334241	126.72547376438
1	14822	850699.909877705263	0
1	14831	851023.431829115593	201.14870952555
1	14839	851708.382855625631	0
1	14882	854411.797458298554	0
1	14899	855629.767564106364	0
1	14926	858266.733126041995	0
1	14935	859173.887225315616	0
1	14944	860151.615408025157	0
1	14970	862959.67338912399	0
1	14988	864620.484746660082	0
1	14997	865219.353813361731	0
1	15005	865532.017428505017	242.42597009497
1	15013	865817.765347411044	0
1	15030	866391.762797644145	215.77381400433
1	15038	866700.050115112406	183.15029770087
1	15056	868222.72493490604	0
1	15084	869198.412747938576	110.98290396467
1	15108	869987.583321260503	131.48980719129
1	15117	870304.758066516547	80.165597702423
1	15136	870938.713964765717	236.86776601605
1	15148	871259.23350380165	483.42833179612
1	15153	871524.846509067887	546.82771198872
1	15161	871827.721682797815	756.72212465926
1	15167	872166.398616197946	378.54646211544
1	15195	873034.332173525913	77.349858169857
1	15208	873558.643782642058	186.38956592712
1	15258	875532.536559415305	63.622743163218
1	15266	875868.766710166365	90.566839283477
1	15315	879450.024071553603	0
1	15323	879729.946697283654	41.061474641712
1	15332	880032.440576763633	37.531943399716
1	15340	880319.374243223959	161.09136306213
1	15349	881735.129943554011	0
1	15366	882767.627434645453	89.038930903856
1	15399	883941.449800794993	177.99902870275
1	15426	886807.23658794253	0
1	15444	888513.254718683011	0
1	15461	889636.337603664338	220.38997728689
1	15470	890474.293517046156	0
1	15478	890872.412802894304	0
1	15504	892950.96610497552	0
1	15513	893725.669785997862	0
1	15533	894294.349528263509	146.02956882595
1	15547	895171.867436178054	0
1	15556	896085.323860870836	0
1	15572	896722.630509779268	4.803901139227
1	15606	898302.658833917452	41.018602162011
1	15615	899360.022716715042	0
1	15658	902421.815067594176	0
1	15667	903742.456895894523	0
1	15676	904465.51802860496	0
1	15693	905713.12931620302	0
1	15702	906592.781175577721	0
1	15727	907845.745760887637	0
1	15736	908346.6883978364	0
1	15744	908896.315986503979	0
1	15778	911006.708891208911	0
1	15787	911329.71373930348	285.26691022453
1	15812	912494.711128998785	138.73818695696
1	15848	916215.276640111334	0
1	15859	919139.08989464954	0
1	15877	921157.923248875765	0
1	15885	921476.720797019995	294.53236422075
1	15902	922355.864787537232	179.65224434589
1	15911	923112.136897527381	0
1	15945	925864.115972799101	0
1	15962	926700.672227277746	0
1	15971	927311.511573837936	0
1	16007	931810.302275594978	0
1	16016	932293.309617666709	0
1	16035	935183.242590413661	221.12944193467
1	16043	935534.399869384523	0
1	16060	936193.855373121005	20.619968854692
1	16068	936449.508476610507	69.769835795312
1	16077	937222.889092104052	0
1	16085	937528.06929004141	63.250255377633
1	16096	937821.402279378035	168.76495534683
1	16102	938121.55285090168	406.42049242649
1	16143	939990.313459486346	0
1	16158	940344.277458119341	291.61240844188
1	16166	940662.998268711904	534.5832714323
1	16186	941242.362743244493	307.89260057981
1	16199	941825.576314457964	298.25718243766
1	16261	945211.023189381917	23.388445911706
1	16269	945533.800372213842	37.552365894143
1	16277	945825.644343719482	42.819523836181
1	16286	946137.231823219702	197.02547654257
1	16294	946491.51745761106	106.42812621918
1	16302	946813.858651426604	110.8813735383
1	16326	948223.015141000998	137.4903053277
1	16331	948487.403637153432	352.4865389353
1	16367	949775.656945641922	53.118270438876
1	16381	950357.09690955548	109.64977517276
2	824	54425.131478654464	1
2	826	54425.131478654464	0
2	833	55316.096961874593	1
2	835	55316.096961874593	0
2	842	56378.041715384357	1
2	844	56378.041715384357	0
2	850	56835.034180379752	1
2	852	56835.034180379752	0
2	868	58412.935447597414	1
2	870	58412.935447597414	0
2	908	61488.531957415061	1
2	911	61557.54557051595	2
2	916	61790.233482182822	1
2	919	61992.414942993219	2
2	923	62064.467687301633	3
2	928	62147.371721861471	2
2	933	62435.217733697934	1
2	938	62746.425011289968	0
2	945	63741.95386371788	1
2	947	63741.95386371788	0
2	985	66277.656754115115	1
2	990	66496.94253276085	0
2	1001	66948.059431270687	1
2	1007	67073.942234979782	0
2	1010	67118.231100458619	1
2	1015	67344.037566573586	0
2	1022	68937.917027098365	1
2	1024	68937.917027098365	0
2	1066	72599.458726129782	1
2	1068	72599.458726129782	0
2	1075	73298.294980310846	1
2	1077	73298.294980310846	0
2	1103	77031.470856331859	1
2	1105	77031.470856331859	0
2	1111	78000.870777133763	1
2	1113	78000.870777133763	0
2	1117	78256.773156186221	1
2	1122	78321.550584468199	0
2	1128	78979.264690428984	1
2	1130	78979.264690428984	0
2	1146	80237.249271174014	1
2	1148	80237.249271174014	0
2	1163	81042.08368219249	1
2	1165	81042.08368219249	0
2	1188	82383.82956686147	1
2	1190	82383.82956686147	0
2	1193	82485.074429012449	1
2	1198	82690.689019184134	0
2	1205	83075.623913174383	1
2	1207	83075.623913174383	0
2	1227	84244.702543763476	1
2	1232	84582.269058557645	0
2	1239	85832.229453527422	1
2	1241	85832.229453527422	0
2	1250	85960.265514007384	1
2	1257	86064.573708049298	2
2	1262	86180.502332242315	1
2	1267	86443.113027723019	0
2	1275	86791.104000361378	1
2	1280	86997.66491989937	0
2	1337	90289.620752180514	1
2	1342	90379.122114485165	0
2	1349	91388.905206745978	1
2	1351	91388.905206745978	0
2	1357	91995.811840784168	1
2	1359	91995.811840784168	0
2	1372	93027.418386966554	1
2	1377	93125.258406182823	0
2	1383	93671.079484379073	1
2	1385	93671.079484379073	0
2	1388	93733.725666164245	1
2	1393	93940.112502063851	0
2	1408	94869.741620756507	1
2	1410	94869.741620756507	0
2	1434	96503.459170726503	1
2	1436	96503.459170726503	0
2	1459	97796.735576520253	1
2	1461	97796.735576520253	0
2	1467	97916.00443120878	1
2	1473	98079.592872819007	0
2	1484	98773.071471290956	1
2	1486	98773.071471290956	0
2	1501	99930.08923246348	1
2	1503	99930.08923246348	0
2	1527	101503.009509115608	1
2	1529	101503.009509115608	0
2	1541	102226.037256650633	1
2	1546	102533.039426623394	0
2	1561	103311.051435344521	1
2	1563	103311.051435344521	0
2	1570	104085.503159155849	1
2	1572	104085.503159155849	0
2	1592	105553.813171307815	1
2	1595	105697.011311595021	2
2	1600	105721.386036225076	1
2	1603	105761.378423053242	2
2	1609	106039.870538861605	1
2	1614	106374.617679363297	0
2	1634	107085.720152401046	1
2	1639	107271.645966756618	0
2	1642	107277.636560661829	1
2	1645	107293.682050792721	2
2	1650	107614.555741410434	1
2	1653	107687.405779318056	2
2	1656	107718.698003793277	3
2	1661	107916.573120088698	2
2	1667	108222.305397926281	1
2	1670	108489.454342112981	2
2	1675	108521.052057532304	1
2	1683	108814.250120584094	0
2	1712	110238.493389558009	1
2	1714	110238.493389558009	0
2	1736	110995.811239061397	1
2	1740	111060.381680642813	2
2	1745	111178.434138561994	1
2	1748	111325.175785589768	2
2	1753	111432.791447431232	1
2	1756	111511.206122358145	2
2	1770	111727.147672460402	1
2	1775	111988.044101953959	0
2	1784	112507.456932202491	1
2	1789	112593.284786622462	0
2	1858	115885.802854460191	1
2	1863	115969.700506400698	0
2	1871	117305.048157279578	1
2	1873	117305.048157279578	0
2	1876	117516.722393630537	1
2	1881	117602.984192241069	0
2	1888	118153.085624994333	1
2	1890	118153.085624994333	0
2	1893	118257.598521705475	1
2	1901	118410.895222587188	0
2	1909	118802.377782179432	1
2	1915	119038.899927004725	0
2	1921	119514.853048226284	1
2	1923	119514.853048226284	0
2	1955	121445.004855156736	1
2	1957	121445.004855156736	0
2	1999	125024.084341010877	1
2	2001	125024.084341010877	0
2	2004	125169.324112237054	1
2	2009	125359.066158840788	0
2	2012	125391.706107628592	1
2	2015	125503.655756397207	2
2	2020	125698.283221982566	1
2	2026	126038.787978423716	0
2	2032	126420.945025338788	1
2	2034	126420.945025338788	0
2	2058	128729.859800258384	1
2	2060	128729.859800258384	0
2	2063	128730.454599586287	1
2	2072	128960.007537968699	2
2	2077	128990.980203462391	1
[...]
7	10681	600820.152063032826	3
7	10690	601515.571298194278	2
7	10698	601823.343817593336	1
7	10708	602082.55602288507	2
7	10720	602869.290643594349	1
7	10725	603142.928740915599	2
7	10734	605126.427173849005	1
7	10748	605766.293321508175	2
7	10750	605930.132200938626	1
7	10766	607617.074470029316	2
7	10774	607952.042552194345	3
7	10777	608058.883985553089	2
7	10792	609773.611147916654	3
7	10795	610281.796124537852	2
7	10800	610291.428729371851	1
7	10812	610890.426862533513	2
7	10826	611748.345714967004	3
7	10829	612853.603675175761	2
7	10838	613616.62187798524	1
7	10847	614545.15073094463	0
7	10862	615070.775339961003	1
7	10873	615977.146001275633	2
7	10879	616230.937964516093	3
7	10888	617547.887712029594	4
7	10890	617957.923215318169	3
7	10899	618615.669946997243	2
7	10904	618854.846149434279	1
7	10917	619212.871157181362	2
7	10934	620033.553875373594	3
7	10938	620259.13645315397	2
7	10942	620347.024319394525	3
7	10956	621246.001925468557	4
7	10963	621706.841341664623	3
7	10970	621976.828052661741	4
7	10976	622339.020834437538	5
7	10983	622705.192285597739	4
7	10988	622957.685609838699	3
7	11006	623649.764141950198	4
7	11008	623957.525001330428	3
7	11025	624516.416397493029	2
7	11029	624546.115543415222	3
7	11034	624893.21387946819	4
7	11042	625367.53355732819	3
7	11060	626702.086347495	4
7	11064	626780.050292164371	3
7	11068	627010.307558967799	4
7	11076	627210.971521388345	3
7	11084	627414.342796503127	2
7	11088	627638.194821050103	3
7	11101	628552.739204253762	2
7	11119	629074.269836133005	3
7	11124	629340.094236397689	4
7	11126	629760.370400153292	3
7	11132	630031.912830196191	2
7	11145	632045.185919041003	1
7	11153	632456.231211942561	0
7	11171	633273.530884511005	1
7	11176	633583.965496993552	2
7	11184	634012.159756357118	3
7	11194	635100.505706600546	4
7	11202	635538.787369275888	5
7	11204	635982.706133456901	4
7	11209	635984.623207749338	3
7	11221	636657.632187934611	2
7	11236	637621.157534049119	3
7	11239	638029.496405133869	2
7	11247	638442.958061293088	1
7	11262	639135.044524326023	2
7	11271	640475.505178256204	3
7	11273	640543.096186448326	2
7	11283	642141.363334897282	1
7	11292	643333.84382955598	0
7	11307	644326.754629126195	1
7	11315	644974.656352313028	2
7	11324	645516.014187390983	3
7	11333	647046.096842803855	2
7	11340	647144.385044494588	3
7	11345	647460.370970319703	4
7	11349	647742.059296981506	3
7	11358	648043.222866196886	2
7	11376	649512.273807634786	3
7	11378	649512.70674768783	2
7	11387	650193.155519494929	1
7	11402	651104.182860272398	2
7	11410	652081.096528706826	1
7	11414	652258.805172579976	2
7	11427	652882.373975140684	3
7	11436	653221.210403152399	4
7	11438	653290.139872410537	3
7	11453	654858.414739104044	4
7	11456	655227.831094723125	3
7	11461	655495.305987089489	2
7	11473	656113.316114738436	1
7	11487	656736.629679483479	2
7	11496	657249.678749430092	3
7	11498	657764.282000538691	2
7	11513	658343.814988006054	3
7	11522	659101.550885159694	4
7	11524	659398.616538609837	3
7	11529	659428.280016971404	2
7	11548	661043.469915264564	3
7	11550	661127.351685173567	2
7	11567	662172.26010822621	1
7	11571	662249.46451470369	2
7	11576	662521.929302538984	3
7	11584	663087.150687995376	2
7	11601	663668.129563079078	3
7	11606	663958.622597953989	4
7	11615	664713.279169784135	5
7	11618	665255.591016586658	4
7	11626	665874.277914330526	3
7	11641	666438.980361286648	4
7	11643	666684.536049131717	3
7	11648	666715.176185279626	2
7	11665	667594.44678978324	1
7	11669	667637.005975694788	2
7	11678	669284.942673531082	1
7	11687	670086.838356727542	0
7	11702	671125.334816826793	1
7	11710	671817.868592781128	2
7	11714	673631.511433836899	1
7	11729	674351.547698292045	2
7	11736	674724.373160093778	1
7	11740	674791.990441538756	2
7	11754	675509.82240101511	3
7	11763	676080.864255776857	4
7	11774	676920.607312404536	5
7	11780	677228.865547365299	6
7	11782	677274.433309385114	5
7	11787	677425.403896755939	4
7	11805	678201.875333446339	5
7	11807	678239.665600969421	4
7	11815	678724.386490493947	3
7	11824	679418.01678975034	2
7	11832	679746.298111557491	1
7	11842	681021.202004875928	0
7	11859	681873.75982247008	1
7	11868	682156.590670380303	2
7	11873	682474.679998610271	3
7	11885	683305.255205996416	4
7	11890	683607.450634388401	5
7	11898	684451.037545967844	4
7	11902	684677.114231108779	5
7	11906	684697.406803411271	4
7	11915	685110.759759044071	3
7	11927	685561.260676049479	4
7	11931	685689.090569026415	3
7	11940	686183.732795167377	2
7	11964	687207.950745427225	3
7	11969	687482.792998766725	4
7	11973	687680.847899730425	3
7	11977	687809.243673669211	4
7	11993	688262.010317502347	3
7	11997	688372.795343149753	4
7	12005	688674.248700270222	5
7	12013	688993.105670223501	6
7	12022	689345.470554660118	7
7	12029	689687.525737955264	6
7	12033	689688.127488148146	7
7	12039	690033.472200123776	8
7	12055	690593.671874305044	9
7	12059	690598.737405267103	8
7	12062	690697.949036666458	7
7	12066	690913.908314731305	8
7	12076	691174.364124407344	7
7	12079	691305.210313766835	6
7	12082	691435.136116968172	5
7	12103	692037.952490459197	6
7	12107	692080.804023879339	5
7	12114	692316.335496163	6
7	12118	692523.093350755769	5
7	12122	692646.722037092198	6
7	12131	692964.508771229693	5
7	12143	693169.587656511701	4
7	12147	693453.104194336862	5
7	12151	693722.059223046558	4
7	12167	694030.05263040339	5
7	12172	694319.664528708012	6
7	12185	694888.811086524584	7
7	12195	695198.156940781862	6
7	12198	695239.517254523979	5
7	12201	695322.282038242733	4
7	12220	696263.508305575238	3
7	12228	696531.498352640171	2
7	12236	696976.01107800804	1
7	12255	697765.705867352684	0
7	12274	699077.002922574971	1
7	12285	699974.807200924102	2
7	12297	700182.105401377972	3
7	12305	700463.084376584607	4
7	12313	700773.315173804923	5
7	12319	701096.310551320764	6
7	12324	701391.614137930516	7
7	12326	701913.888369045901	6
7	12343	702408.366574527649	5
7	12347	702566.136734923555	6
7	12351	702735.365919467667	5
7	12355	702817.077600906618	6
7	12360	703028.167410691308	5
7	12368	703303.056245420731	4
7	12380	703707.511770528604	5
7	12387	703754.941308315862	4
7	12390	703792.035734777944	3
7	12400	704244.523975972425	4
7	12418	705508.4586238339	3
7	12426	705993.846229197009	2
7	12432	706216.220611850236	1
7	12435	706307.656118224291	0
7	12458	707570.924482970438	1
7	12466	707969.853476277784	2
7	12475	708833.49166055634	3
7	12484	709214.09217817399	4
7	12487	710398.187708693067	3
7	12496	711054.48906517478	2
7	12513	711648.74458954741	3
7	12517	711775.066516793099	2
7	12520	711870.828327097656	1
7	12524	711905.694361842097	2
7	12544	713427.762886181119	3
7	12558	713876.040061552188	4
7	12563	714014.556226924333	3
7	12567	714164.398748031086	4
7	12571	714174.454247353661	3
7	12575	714417.876039918785	4
7	12588	715009.933893485187	5
7	12602	715644.209333216365	6
7	12605	716403.491760541968	5
7	12610	716558.573851796387	4
7	12618	716651.93962588813	3
7	12638	717246.800157687806	2
7	12645	717549.451569962678	3
7	12649	717714.82305189865	2
7	12653	717845.84408097896	3
7	12659	718116.779338839956	4
7	12671	718793.09431610242	3
7	12680	719991.637861114775	2
7	12689	720332.715782939448	1
7	12702	720702.399069082225	0
7	12706	720980.858200070425	1
7	12720	721999.617088648925	2
7	12730	723278.844287654897	3
7	12732	723888.897305880807	2
7	12750	724640.812405572583	3
7	12755	724972.365468827197	4
7	12757	725014.099534317791	3
7	12772	725766.845841574869	4
7	12775	726319.22421472039	3
7	12792	726899.270205290102	4
7	12798	727198.214129275325	5
7	12800	727452.488220020187	4
7	12805	727506.746677820532	3
7	12817	728111.113833147765	2
7	12826	729724.630476154823	1
7	12840	730084.450076230536	0
7	12844	730393.348983223441	1
7	12858	731784.804924399649	2
7	12862	733094.631962368939	1
7	12877	734546.022848316247	2
7	12885	734980.191833956301	3
7	12888	735089.105445438856	2
7	12902	735708.611883142403	3
7	12911	736300.069324590924	4
7	12919	737189.361740591689	3
7	12923	737290.934680869271	4
7	12927	737385.066221302737	3
7	12939	738523.469064499696	2
7	12947	738967.803972353003	1
7	12962	739612.422386620749	2
7	12965	740110.204914953129	1
7	12983	741212.37115586536	2
7	12991	741500.464815601729	3
7	12996	741791.603108978277	4
7	13007	742227.263554078387	3
7	13011	742291.178993610245	4
7	13016	742590.701900787088	5
7	13025	744090.345544097186	4
7	13030	744239.982033168939	3
7	13038	744368.864786135795	2
7	13046	744646.257986085218	1
7	13058	745408.496081635891	0
7	13076	746264.677477082315	1
7	13084	746558.621563968494	2
7	13089	746881.507513618185	3
7	13098	748846.96111855208	2
7	13103	749053.660747884594	3
7	13107	749090.652366150154	2
7	13115	749518.973219552002	1
7	13133	750243.639204349429	2
7	13145	751517.243635688614	3
7	13149	751714.178558717672	2
7	13153	751761.81419075787	3
7	13170	752365.120053098002	4
7	13175	752677.719896755546	5
7	13184	753036.817344790302	6
7	13186	753273.967671159062	5
7	13200	753993.826809914705	6
7	13208	754423.55930451537	5
7	13215	754565.076781229895	6
7	13220	754848.496866781424	7
7	13224	754966.271127750632	6
7	13228	755128.190661377333	5
7	13236	755314.696980514149	4
7	13244	755571.451922545423	3
7	13262	756336.475703783161	4
7	13266	756564.649260414244	3
7	13278	757322.127801662574	2
7	13286	757360.651701385939	1
7	13298	757947.14393626383	2
7	13304	758282.575866074949	3
7	13317	758888.105568500998	4
7	13319	758907.19537449193	3
7	13334	759742.132404944664	4
7	13337	760352.278550010848	3
7	13345	760588.074185086375	2
7	13354	760910.211203542519	3
7	13362	761995.003612428753	2
7	13382	762576.041038348491	1
7	13386	762614.94064311822	2
7	13394	762967.736231259288	3
7	13400	763284.199643085886	4
7	13405	763554.311657266087	5
7	13412	763902.43300441488	4
7	13427	764494.33776202983	5
7	13436	765117.028539140257	6
7	13438	765155.783334296626	5
7	13451	765566.343673023333	4
7	13455	765786.800392607983	5
7	13459	765955.429686128817	4
7	13472	766377.49917190367	5
7	13476	766484.353831010882	4
7	13491	766944.459103784105	5
7	13497	767253.329097998058	6
7	13501	767334.824530994572	5
7	13513	768137.073907906723	4
7	13518	768196.964924247839	3
7	13530	769069.414351557312	2
7	13539	770051.789720139335	1
7	13544	770164.807943989437	0
7	13561	770955.63060828864	1
7	13571	772024.866540146858	2
7	13579	772536.33314268143	3
7	13582	773526.681082145384	2
7	13600	774667.944829742963	3
7	13604	774711.839698006603	2
7	13611	774968.456797302035	3
7	13616	775236.376233347108	2
7	13620	775306.060615165489	3
7	13633	775899.643991744561	4
7	13647	776515.478478171187	5
7	13658	777229.233046245342	4
7	13662	777260.546855515731	5
7	13667	777614.633281404305	6
7	13671	777700.794972471848	5
7	13674	777724.748330821723	4
7	13696	778496.210178135412	3
7	13700	778807.442170148977	4
7	13717	779417.470630317016	5
7	13721	779620.146740421723	4
7	13724	779626.512117043529	3
7	13728	779742.14573366809	4
7	13738	780283.857923854971	3
7	13755	781659.177871582723	2
7	13758	781790.23728151886	1
7	13762	781851.267257599912	2
7	13775	782206.981240140723	1
7	13779	782432.31316559448	2
7	13798	783513.689502006093	3
7	13801	784726.72487762135	2
7	13807	785072.960220646527	1
7	13824	785832.613606078496	2
7	13827	786458.758306683131	1
7	13842	787064.636099129413	2
7	13850	787659.06979472183	3
7	13853	788125.84227375661	2
7	13867	789721.889537611547	1
7	13871	789855.417971296461	2
7	13884	790614.950232525519	1
7	13888	790733.973591591118	2
7	13905	791405.993074611765	3
7	13910	791666.557787984987	4
7	13922	792034.173488550502	5
7	13927	792336.750526761916	6
7	13930	793038.748353004612	5
7	13938	793846.808526515081	4
7	13943	793988.267726575196	3
7	13947	794110.773946453672	2
7	13960	794641.734980622841	1
7	13963	794712.650465712406	0
7	13987	797007.493514933815	1
7	13996	797762.313024625542	2
7	14005	798975.285230719888	3
7	14014	799904.364401428944	4
7	14025	800045.190883985181	3
7	14029	800220.902764420995	4
7	14034	800482.640076456611	5
7	14041	800725.129246401911	4
7	14051	801129.104549884274	5
7	14066	801393.691879514093	4
7	14070	801690.761949313277	5
7	14075	801986.63105562527	6
7	14080	802126.937407041042	5
7	14100	802785.863214781645	6
7	14105	803025.213442093742	5
7	14108	803052.411537428382	4
7	14112	803177.049962740672	5
7	14124	803865.708832020013	4
7	14139	804863.654830114217	5
7	14141	804911.636591670139	4
7	14146	804979.763799904479	3
7	14158	805717.336237855241	2
7	14163	805795.754439180598	1
7	14179	806403.378213867611	2
7	14187	806691.816991565751	3
7	14192	806975.669534863634	4
7	14200	807690.909204860094	3
7	14215	808776.970085817062	4
7	14218	809025.348762857184	3
7	14231	809594.593935584579	2
7	14235	809681.519422765036	3
7	14239	809727.773798673675	2
7	14257	810919.369942448875	3
7	14268	811728.302430423044	2
7	14272	811839.853939634214	3
7	14278	812178.092825244698	4
7	14290	812628.383269271706	3
7	14294	812844.31581590076	4
7	14307	813510.11456529825	3
7	14311	813645.45029974563	4
7	14325	814569.741790957015	5
7	14327	814626.28532048766	4
7	14336	815538.173382954238	3
7	14341	815554.38469592834	2
7	14350	816076.039484233028	1
7	14367	816814.415558481063	2
7	14374	816970.438100632583	1
7	14382	817295.236930540478	2
7	14387	817609.078804954116	3
7	14404	818370.941234281678	4
7	14412	818764.608308558427	5
7	14418	819037.850968128109	6
7	14420	819157.562212517502	5
7	14434	819759.286104177232	6
7	14436	819942.011581831077	5
7	14445	820326.991309211226	4
7	14459	821007.109101093441	5
7	14462	821213.921671417716	4
7	14470	821538.535788979932	3
7	14475	821787.267960394135	2
7	14487	822326.316916220451	1
7	14502	823197.547883827611	2
7	14510	824160.034078169666	1
7	14514	824353.073384430264	2
7	14528	826030.290425892918	1
7	14538	826352.001687404042	2
7	14543	826668.087566266217	3
7	14547	826795.696678305795	2
7	14551	826967.13106173573	3
7	14571	828700.353448259374	4
7	14573	828999.399804506002	3
7	14579	829134.920687407121	2
7	14582	829137.744568358352	1
7	14605	830554.675016421646	2
7	14608	831083.051307539181	1
7	14617	832909.657162470652	0
7	14634	835063.887935493082	1
7	14643	836146.500066313611	2
7	14651	836475.711467733873	3
7	14654	837394.766380709418	2
7	14672	838076.849684529682	3
7	14677	838359.852020742454	4
7	14679	838594.839390437054	3
7	14688	839181.701611030464	2
7	14703	840880.779542855586	3
7	14706	841096.704282665083	2
7	14711	841209.231365401321	1
7	14729	842153.500222452067	2
7	14732	843110.528624498078	1
7	14741	844684.502276667316	0
7	14759	845748.81689620549	1
7	14765	846032.345593389313	2
7	14773	846776.055341126939	3
7	14777	848653.023074508404	2
7	14782	848668.301562759661	1
7	14803	849561.629696334241	2
7	14807	849885.923716359246	1
7	14811	849914.103351789357	2
7	14829	851023.431829115593	3
7	14834	851306.114706266826	4
7	14842	851987.231832167159	5
7	14845	852027.88901441254	4
7	14853	852856.369238003939	3
7	14862	853551.514839417819	2
7	14871	854056.765113620762	1
7	14884	854644.712089292313	0
7	14888	854685.907104942665	1
7	14902	855929.717950426332	2
7	14906	857620.094329214811	1
7	14911	857904.7473028694	0
7	14929	858579.998379939293	1
7	14938	859492.910184559148	2
7	14947	860420.764611658897	3
7	14950	861205.990320661512	2
7	14959	862162.780384915523	1
7	14974	863253.209169342087	2
7	14976	863324.713781158672	1
7	14991	864937.745746120457	2
7	15003	865532.017428505017	3
7	15008	865794.706861569405	4
7	15015	865963.952786317454	3
7	15020	866117.661132774301	4
7	15036	866700.050115112406	5
7	15040	866999.992730638848	4
7	15045	867055.497738757501	5
7	15058	868510.526891920117	4
7	15062	868521.670017416646	5
7	15069	868861.648520582844	4
7	15074	868982.316834261344	3
7	15087	869493.10795373444	4
7	15091	869572.91402544412	3
7	15102	869862.618526481239	2
7	15115	870304.758066516547	3
7	15119	870603.267813975797	2
7	15123	870639.161187538709	3
7	15146	871259.23350380165	4
7	15151	871524.846509067887	5
7	15159	871827.721682797815	6
7	15165	872166.398616197946	7
7	15169	872187.910373876663	6
7	15173	872430.433010051288	7
7	15182	872788.113846829355	6
7	15185	872795.232213533859	5
7	15198	873312.31825369948	6
7	15211	873843.65184228025	7
7	15219	874161.984411665376	6
7	15227	874450.94522651748	5
7	15235	874926.566002185782	4
7	15241	875077.265200626654	3
7	15249	875301.87291389214	2
7	15264	875868.766710166365	3
7	15268	875922.896527742984	2
7	15273	876153.564968280648	3
7	15285	876855.876297699601	2
7	15295	878550.449591477013	1
7	15300	878595.201867064477	0
7	15321	879729.946697283654	1
7	15330	880032.440576763633	2
7	15338	880319.374243223959	3
7	15343	880669.210086759296	4
7	15353	882050.036808962415	5
7	15355	882456.262002263311	4
7	15369	883030.935850158515	3
7	15373	883050.139714213272	4
7	15377	883168.170474583271	3
7	15385	883390.782253878103	2
7	15403	884291.564655829336	3
7	15405	884968.172570663705	2
7	15414	885496.996445455726	1
7	15430	887103.561459017963	2
7	15432	887183.846553493989	1
7	15447	888799.670888839452	2
7	15450	889358.854892902085	1
7	15464	889888.335939911773	2
7	15473	890825.393271847345	3
7	15482	891141.039621954105	4
7	15484	891401.400841934925	3
7	15493	892610.010078240831	2
7	15508	893235.619717911596	3
7	15515	893864.78211033492	2
7	15520	894040.148293825044	3
7	15527	894184.819096044688	2
7	15536	894607.145939567107	3
7	15550	895458.595101556287	4
7	15558	896214.181968464742	3
7	15562	896404.82430691665	4
7	15574	896986.096967790284	3
7	15578	897006.784946010818	4
7	15583	897301.464813976665	3
7	15594	897987.693687984338	2
7	15609	898560.115057155396	3
7	15617	899606.564822367803	2
7	15621	899649.990767633761	3
7	15628	899958.271465848946	2
7	15638	901506.029405258379	1
7	15646	901857.332370938715	0
7	15661	902699.343436959767	1
7	15671	904121.969734836415	2
7	15679	904750.558951283966	3
7	15682	905208.546156154101	2
7	15697	906038.944358451958	3
7	15705	906888.017654678515	4
7	15708	907143.114537619369	3
7	15716	907499.61567342683	2
7	15731	908124.238980066101	3
7	15739	908670.81893017097	4
7	15747	909094.305677491434	3
7	15751	909221.063777515761	4
7	15758	909590.998419573578	3
7	15767	910609.301052298053	2
7	15785	911329.71373930348	3
7	15790	911673.755492396047	4
7	15792	911878.529491923669	3
7	15797	911905.660772647842	2
7	15815	912799.175062565425	3
7	15819	914059.081430814327	2
7	15824	914333.684086950564	1
7	15836	915221.384553842034	0
7	15851	916552.580456059195	1
7	15861	919425.723837433318	0
7	15865	919433.407964997409	1
7	15883	921476.720797019995	2
7	15888	921788.833631965687	3
7	15891	922049.835815057769	2
7	15905	922678.842646896533	3
7	15914	923349.940284823574	4
7	15917	924048.378327669646	3
7	15925	924497.302807589232	2
7	15934	925133.773026130151	1
7	15949	926186.112898574322	2
7	15951	926347.731936838014	1
7	15965	926975.203602875549	2
7	15974	927592.83702286966	3
7	15977	928523.157579404667	2
7	15986	929241.320144633789	1
7	15994	929616.616400118159	0
7	16011	932158.786462940347	1
7	16019	932612.307316122223	2
7	16023	934842.873522502135	1
7	16038	935452.924195039393	2
7	16045	935659.397477116961	1
7	16049	935851.703648876537	2
7	16066	936449.508476610507	3
7	16071	936719.331488614377	4
7	16083	937528.06929004141	5
7	16094	937821.402279378035	6
7	16100	938121.55285090168	7
7	16104	938294.941828433493	6
7	16107	938397.889490492063	5
7	16111	938453.013374577286	6
7	16120	938854.897076250749	5
7	16132	939565.769039088951	4
7	16152	940140.817073469536	3
7	16156	940344.277458119341	4
7	16160	940554.529107042166	3
7	16164	940662.998268711904	4
7	16168	940885.257521465221	3
7	16172	940920.233576820185	4
7	16179	940997.991159256034	3
7	16189	941525.943059936622	4
7	16203	942080.717287776914	5
7	16216	943028.578189343332	4
7	16224	943420.436039853869	3
7	16229	943515.95672084359	2
7	16241	944203.492588614251	1
7	16249	944932.074847772721	0
7	16267	945533.800372213842	1
7	16275	945825.644343719482	2
7	16284	946137.231823219702	3
7	16292	946491.51745761106	4
7	16300	946813.858651426604	5
7	16306	947113.9576519608	6
7	16308	947941.999567698434	5
7	16313	947976.142892492608	4
7	16329	948487.403637153432	5
7	16333	948573.856177535709	4
7	16337	948822.8509052477	5
7	16341	948996.855264448194	4
7	16355	949640.993512967121	3
7	16361	949766.913490133032	2
7	16371	950071.609697379209	3
