version 2
run ResponseMeasurement-81-20170110-19:44:53-22506
attr configname ResponseMeasurement
attr datetime 20170110-19:44:53
attr experiment ResponseMeasurement
attr inifile responseStudy.ini
attr iterationvars ""
attr iterationvars2 $repetition=81
attr measurement ""
attr network controltower.SimNetwork
attr processid 22506
attr repetition 81
attr replication #81
attr resultdir results
attr runnumber 81
attr seedset 81
param SimNetwork.a.parkingLot.parkingDelay "truncnormal(30min, 3min)"
param SimNetwork.a.runway.landingTime "truncnormal(15min, 1.5min)"
param SimNetwork.a.runway.takeoffTime "truncnormal(5min, 0.5min)"
param SimNetwork.a.runway.throughputCheckInterval 100min
param SimNetwork.wg.interArrivalTime exponential(100min)

statistic SimNetwork.wg 	responseTime:stats
field count 155
field mean 8840.6050787233
field stddev 5172.4256937693
field sum 1370293.7872021
field sqrsum 16234340298.347
field min 3682.3811382069
field max 37139.554818324
attr source  responseTimeSignal
scalar SimNetwork.a.landingQueue 	queueLength:timeavg 	0.021761832686229
attr source  queueLengthSignal
statistic SimNetwork.a.landingQueue 	queueLength:stats
field count 313
field mean 0.53354632587859
field stddev 0.54271918524494
field sum 167
field sqrsum 181
field min 0
field max 3
attr source  queueLengthSignal
statistic SimNetwork.a.landingQueue 	queueTime:stats
field count 156
field mean 116.99729665496
field stddev 308.78914204888
field sum 18251.578278174
field sqrsum 16914749.126562
field min 0
field max 2399.9241678616
attr source  queueTimeSignal
scalar SimNetwork.a.takeoffQueue 	queueLength:timeavg 	0.023039629310299
attr source  queueLengthSignal
statistic SimNetwork.a.takeoffQueue 	queueLength:stats
field count 310
field mean 0.55806451612903
field stddev 0.57582033423011
field sum 173
field sqrsum 199
field min 0
field max 3
attr source  queueLengthSignal
statistic SimNetwork.a.takeoffQueue 	queueTime:stats
field count 155
field mean 127.01048534325
field stddev 429.6938399786
field sum 19686.625228204
field sqrsum 30934474.426801
field min 0
field max 3424.0721308525
attr source  queueTimeSignal
scalar SimNetwork.a.parkingLot 	parkingOccupancy:timeavg 	0.32703263687334
attr source  parkingOccupancy
statistic SimNetwork.a.parkingLot 	parkingOccupancy:stats
field count 310
field mean 0.82258064516129
field stddev 0.72237010004324
field sum 255
field sqrsum 371
field min 0
field max 3
attr source  parkingOccupancy
