version 2
run ResponseMeasurement-42-20170110-19:44:37-22467
attr configname ResponseMeasurement
attr datetime 20170110-19:44:37
attr experiment ResponseMeasurement
attr inifile responseStudy.ini
attr iterationvars ""
attr iterationvars2 $repetition=42
attr measurement ""
attr network controltower.SimNetwork
attr processid 22467
attr repetition 42
attr replication #42
attr resultdir results
attr runnumber 42
attr seedset 42
param SimNetwork.a.parkingLot.parkingDelay "truncnormal(30min, 3min)"
param SimNetwork.a.runway.landingTime "truncnormal(15min, 1.5min)"
param SimNetwork.a.runway.takeoffTime "truncnormal(5min, 0.5min)"
param SimNetwork.a.runway.throughputCheckInterval 100min
param SimNetwork.wg.interArrivalTime exponential(100min)

statistic SimNetwork.wg 	responseTime:stats
field count 150
field mean 8992.6520873153
field stddev 5531.1970228974
field sum 1348897.8130973
field sqrsum 16688695669.935
field min 3540.710674889
field max 28518.721031629
attr source  responseTimeSignal
scalar SimNetwork.a.landingQueue 	queueLength:timeavg 	0.015737645879071
attr source  queueLengthSignal
statistic SimNetwork.a.landingQueue 	queueLength:stats
field count 302
field mean 0.51324503311258
field stddev 0.51375440397123
field sum 155
field sqrsum 159
field min 0
field max 2
attr source  queueLengthSignal
statistic SimNetwork.a.landingQueue 	queueTime:stats
field count 151
field mean 90.016075660598
field stddev 237.81467612769
field sum 13592.42742475
field sqrsum 9706910.0027349
field min 0
field max 1445.7521941624
attr source  queueTimeSignal
scalar SimNetwork.a.takeoffQueue 	queueLength:timeavg 	0.01432118110495
attr source  queueLengthSignal
statistic SimNetwork.a.takeoffQueue 	queueLength:stats
field count 300
field mean 0.50666666666667
field stddev 0.50742535463255
field sum 152
field sqrsum 154
field min 0
field max 2
attr source  queueLengthSignal
statistic SimNetwork.a.takeoffQueue 	queueTime:stats
field count 150
field mean 82.199982366722
field stddev 226.66810274586
field sum 12329.997355008
field sqrsum 8668911.4567219
field min 0
field max 1153.0855276331
attr source  queueTimeSignal
scalar SimNetwork.a.parkingLot 	parkingOccupancy:timeavg 	0.3116972673633
attr source  parkingOccupancy
statistic SimNetwork.a.parkingLot 	parkingOccupancy:stats
field count 301
field mean 0.77408637873754
field stddev 0.67979868038058
field sum 233
field sqrsum 319
field min 0
field max 3
attr source  parkingOccupancy
