file 45891 1484073917                                           
version 2
run ResponseMeasurement-148-20170110-19:45:17-22573
attr configname ResponseMeasurement
attr datetime 20170110-19:45:17
attr experiment ResponseMeasurement
attr inifile responseStudy.ini
attr iterationvars ""
attr iterationvars2 $repetition=148
attr measurement ""
attr network controltower.SimNetwork
attr processid 22573
attr repetition 148
attr replication #148
attr resultdir results
attr runnumber 148
attr seedset 148
param SimNetwork.a.parkingLot.parkingDelay "truncnormal(30min, 3min)"
param SimNetwork.a.runway.landingTime "truncnormal(15min, 1.5min)"
param SimNetwork.a.runway.takeoffTime "truncnormal(5min, 0.5min)"
param SimNetwork.a.runway.throughputCheckInterval 100min
param SimNetwork.wg.interArrivalTime exponential(100min)

vector 7  SimNetwork.a.parkingLot  parkingOccupancy:vector  ETV
attr source  parkingOccupancy
vector 4  SimNetwork.a.takeoffQueue  queueLength:vector  ETV
attr source  queueLengthSignal
vector 3  SimNetwork.a.takeoffQueue  queueTime:vector  ETV
attr source  queueTimeSignal
vector 0  SimNetwork.wg  responseTime:vector  ETV
attr source  responseTimeSignal
vector 2  SimNetwork.a.landingQueue  queueLength:vector  ETV
attr source  queueLengthSignal
vector 1  SimNetwork.a.landingQueue  queueTime:vector  ETV
attr source  queueTimeSignal
vector 5  SimNetwork.a.runway  landedThroughput:vector  ETV
attr source  landedThroughputSignal
vector 6  SimNetwork.a.runway  tookoffThroughput:vector  ETV
attr source  tookoffThroughputSignal
0	1482 6113 656 3071 200308.510083469547 1058638.094138807729 143 3423.7127248434 30276.012022826 1331812.5579558 17460400429.663
1	7595 4544 661 3077 203084.018924215666 1062401.224414428605 143 0 1263.8480048758 14706.202862681 10264047.69395
2	12139 8252 659 3077 203084.018924215666 1062401.224414428605 286 0 2 147 151
3	20391 4431 653 3068 200005.064437435424 1058290.061961159528 143 0 1914.6631360865 13189.323136196 12709385.881842
4	24822 8247 651 3068 200005.064437435424 1058290.061961159528 286 0 1 143 143
5	33069 2290 663 3073 204000 1062000 144 0 4 143 281
6	35359 2290 663 3073 204000 1062000 144 0 4 143 293
7	37649 8242 650 3080 200005.064437435424 1063198.588199466183 286 0 3 219 303
