version 2
run ParkingMeasurement-22-20170108-17:28:08-4418
attr configname ParkingMeasurement
attr datetime 20170108-17:28:08
attr experiment ParkingMeasurement
attr inifile parkingStudy.ini
attr iterationvars ""
attr iterationvars2 $repetition=22
attr measurement ""
attr network controltower.SimNetwork
attr processid 4418
attr repetition 22
attr replication #22
attr resultdir results
attr runnumber 22
attr seedset 22
param SimNetwork.a.parkingLot.parkingDelay exponential(60min)
param SimNetwork.a.runway.landingTime exponential(15min)
param SimNetwork.a.runway.takeoffTime exponential(5min)
param SimNetwork.a.runway.throughputCheckInterval 28.571min
param SimNetwork.wg.interArrivalTime exponential(28.571min)

statistic SimNetwork.wg 	responseTime:stats
field count 532
field mean 12020.497156158
field stddev 7412.9055663017
field sum 6394904.4870761
field sqrsum 106049001905.24
field min 1140.7372878621
field max 41810.290319469
attr source  responseTimeSignal
scalar SimNetwork.a.landingQueue 	queueLength:timeavg 	0.57836217674731
attr source  queueLengthSignal
statistic SimNetwork.a.landingQueue 	queueLength:stats
field count 1062
field mean 1.0819209039548
field stddev 1.1873797895824
field sum 1149
field sqrsum 2739
field min 0
field max 7
attr source  queueLengthSignal
statistic SimNetwork.a.landingQueue 	queueTime:stats
field count 531
field mean 1003.9430208681
field stddev 1383.3402044729
field sum 533093.74408096
field sqrsum 1549419708.1333
field min 0
field max 7851.8485409208
attr source  queueTimeSignal
scalar SimNetwork.a.takeoffQueue 	queueLength:timeavg 	2.4692015794016
attr source  queueLengthSignal
statistic SimNetwork.a.takeoffQueue 	queueLength:stats
field count 1065
field mean 3.6629107981221
field stddev 4.8169485568138
field sum 3901
field sqrsum 38977
field min 0
field max 22
attr source  queueLengthSignal
statistic SimNetwork.a.takeoffQueue 	queueTime:stats
field count 532
field mean 4279.4424835607
field stddev 5694.3468636211
field sum 2276663.4012543
field sqrsum 26960836354.011
field min 0
field max 27559.774626879
attr source  queueTimeSignal
scalar SimNetwork.a.parkingLot 	parkingOccupancy:timeavg 	2.1936325327447
attr source  parkingOccupancy
statistic SimNetwork.a.parkingLot 	parkingOccupancy:stats
field count 1063
field mean 2.6754468485419
field stddev 1.4941912521088
field sum 2844
field sqrsum 9980
field min 0
field max 8
attr source  parkingOccupancy
