<<<<<<< HEAD
file 191674 1483715171                                          
version 2
run ParkingMeasurement-7-20170106-02:04:18-11652
attr configname ParkingMeasurement
attr datetime 20170106-02:04:18
attr experiment ParkingMeasurement
attr inifile parkingStudy.ini
attr iterationvars ""
attr iterationvars2 $repetition=7
attr measurement ""
attr network SimNetwork
attr processid 11652
attr repetition 7
attr replication #7
attr resultdir results
attr runnumber 7
attr seedset 7
param SimNetwork.a.parkingLot.parkingDelay exponential(60min)
param SimNetwork.a.runway.landingTime exponential(15min)
param SimNetwork.a.runway.takeoffTime exponential(5min)
param SimNetwork.a.runway.throughputCheckInterval 28.571min
param SimNetwork.wg.interArrivalTime exponential(28.571min)
vector 5  SimNetwork.a.runway  landedThroughput:vector  ETV
attr source landedThroughputSignal
5	137734 10266 1914 11551 200568.42 1122840.3 539 0 4 575 1185
vector 6  SimNetwork.a.runway  tookoffThroughput:vector  ETV
attr source tookoffThroughputSignal
6	148000 10269 1914 11551 200568.42 1122840.3 539 0 11 562 2072
vector 2  SimNetwork.a.landingQueue  queueLength:vector  ETV
attr source queueLengthSignal
2	48367 33450 1916 11530 200759.177690285185 1121595.251332264704 1146 0 9 1483 4241
vector 7  SimNetwork.a.parkingLot  parkingOccupancy:vector  ETV
attr source parkingOccupancy
7	158269 33405 1919 11548 200966.534896246686 1122730.729083329444 1144 0 9 3206 12376
vector 1  SimNetwork.a.landingQueue  queueTime:vector  ETV
attr source queueTimeSignal
1	25628 22739 1921 11530 200966.534896246686 1121595.251332264704 573 0 9170.1795939212 673319.82180426 2204614903.1442
vector 4  SimNetwork.a.takeoffQueue  queueLength:vector  ETV
attr source queueLengthSignal
4	104409 33325 1927 11560 201374.212448492692 1123032.68745039781 1133 0 23 5777 68951
vector 3  SimNetwork.a.takeoffQueue  queueTime:vector  ETV
attr source queueTimeSignal
3	81817 22592 1929 11560 201374.212448492692 1123032.68745039781 563 0 28111.548889675 3303121.8876131 46293833204.883
vector 0  SimNetwork.wg  responseTime:vector  ETV
attr source responseTimeSignal
0	1431 24197 1932 11558 201465.160444986893 1123032.68745039781 562 829.65058702644 46458.518237592 7552019.9830364 140834179034.37
=======
file 191685 1483892886                                          
version 2
run ParkingMeasurement-7-20170108-17:28:06-4372
attr configname ParkingMeasurement
attr datetime 20170108-17:28:06
attr experiment ParkingMeasurement
attr inifile parkingStudy.ini
attr iterationvars ""
attr iterationvars2 $repetition=7
attr measurement ""
attr network controltower.SimNetwork
attr processid 4372
attr repetition 7
attr replication #7
attr resultdir results
attr runnumber 7
attr seedset 7
param SimNetwork.a.parkingLot.parkingDelay exponential(60min)
param SimNetwork.a.runway.landingTime exponential(15min)
param SimNetwork.a.runway.takeoffTime exponential(5min)
param SimNetwork.a.runway.throughputCheckInterval 28.571min
param SimNetwork.wg.interArrivalTime exponential(28.571min)

vector 5  SimNetwork.a.runway  landedThroughput:vector  ETV
attr source  landedThroughputSignal
vector 6  SimNetwork.a.runway  tookoffThroughput:vector  ETV
attr source  tookoffThroughputSignal
vector 2  SimNetwork.a.landingQueue  queueLength:vector  ETV
attr source  queueLengthSignal
vector 7  SimNetwork.a.parkingLot  parkingOccupancy:vector  ETV
attr source  parkingOccupancy
vector 1  SimNetwork.a.landingQueue  queueTime:vector  ETV
attr source  queueTimeSignal
vector 4  SimNetwork.a.takeoffQueue  queueLength:vector  ETV
attr source  queueLengthSignal
vector 3  SimNetwork.a.takeoffQueue  queueTime:vector  ETV
attr source  queueTimeSignal
vector 0  SimNetwork.wg  responseTime:vector  ETV
attr source  responseTimeSignal
0	1442 24197 1932 11558 201465.160444986893 1123032.68745039781 562 829.65058702644 46458.518237592 7552019.9830364 140834179034.37
1	25639 22739 1921 11530 200966.534896246686 1121595.251332264704 573 0 9170.1795939212 673319.82180426 2204614903.1442
2	48378 33450 1916 11530 200759.177690285185 1121595.251332264704 1146 0 9 1483 4241
3	81828 22592 1929 11560 201374.212448492692 1123032.68745039781 563 0 28111.548889675 3303121.8876131 46293833204.884
4	104420 33325 1927 11560 201374.212448492692 1123032.68745039781 1133 0 23 5777 68951
5	137745 10266 1914 11551 200568.42 1122840.3 539 0 4 575 1185
6	148011 10269 1914 11551 200568.42 1122840.3 539 0 11 562 2072
7	158280 33405 1919 11548 200966.534896246686 1122730.729083329444 1144 0 9 3206 12376
>>>>>>> branch 'develop' of git@github.com:enricomeloni/PESC_Control_Tower.git
