version 2
run ParkingMeasurement-33-20170108-17:28:09-4451
attr configname ParkingMeasurement
attr datetime 20170108-17:28:09
attr experiment ParkingMeasurement
attr inifile parkingStudy.ini
attr iterationvars ""
attr iterationvars2 $repetition=33
attr measurement ""
attr network controltower.SimNetwork
attr processid 4451
attr repetition 33
attr replication #33
attr resultdir results
attr runnumber 33
attr seedset 33
param SimNetwork.a.parkingLot.parkingDelay exponential(60min)
param SimNetwork.a.runway.landingTime exponential(15min)
param SimNetwork.a.runway.takeoffTime exponential(5min)
param SimNetwork.a.runway.throughputCheckInterval 28.571min
param SimNetwork.wg.interArrivalTime exponential(28.571min)

vector 5  SimNetwork.a.runway  landedThroughput:vector  ETV
attr source  landedThroughputSignal
vector 6  SimNetwork.a.runway  tookoffThroughput:vector  ETV
attr source  tookoffThroughputSignal
vector 7  SimNetwork.a.parkingLot  parkingOccupancy:vector  ETV
attr source  parkingOccupancy
vector 2  SimNetwork.a.landingQueue  queueLength:vector  ETV
attr source  queueLengthSignal
vector 1  SimNetwork.a.landingQueue  queueTime:vector  ETV
attr source  queueTimeSignal
vector 4  SimNetwork.a.takeoffQueue  queueLength:vector  ETV
attr source  queueLengthSignal
vector 3  SimNetwork.a.takeoffQueue  queueTime:vector  ETV
attr source  queueTimeSignal
vector 0  SimNetwork.wg  responseTime:vector  ETV
attr source  responseTimeSignal
0	1885	202158.356643871702	15940.938429575
0	1890	202241.951507498793	11351.263737594
0	1896	202350.00329540109	7648.4150481791
0	1901	202622.5404438028	9123.7770726049
0	1924	205405.230951293338	11901.88212494
0	1984	210650.129686801493	11706.353225745
0	1989	210664.964942189228	11804.551671112
0	1994	210815.381108194916	10560.18537604
0	2000	211365.025121986472	7773.7792514857
0	2005	211495.790035762928	6247.4709037805
0	2013	211810.3155009785	7149.6910873264
0	2033	214100.13532689072	6712.633293649
0	2044	215110.755538764022	8609.145477615
0	2062	217975.680974624854	11231.50729926
0	2077	220030.516616023104	7011.5674222854
0	2099	222522.366240327195	10827.811699753
0	2105	222948.456267247626	5899.6868638918
0	2122	225347.582478356721	5586.8867723569
0	2131	226575.978907613979	6940.6794579644
0	2158	232319.935795001082	4118.8913464583
0	2166	232354.45565225806	8441.5757086115
0	2190	240013.219761570547	9890.7230508973
0	2212	242939.926210965835	6834.7713450221
0	2247	248453.543125798502	3631.9849966725
0	2275	253464.989133272538	14416.983553101
0	2297	254006.042372830687	9148.1708811671
0	2302	254279.033429000268	7784.8012434326
0	2307	254754.498331182976	6047.2982627049
0	2333	258038.799648165467	5179.1552938176
0	2342	259004.447026407758	6060.9563623192
0	2376	262651.548843268336	20037.61173423
0	2384	263408.582728735394	4126.8946346872
0	2426	267098.865613743094	7571.8900098503
0	2438	267748.63032685813	7740.6324830733
0	2446	267798.472101678182	3416.0876950743
0	2462	268834.880881062756	4394.3016134882
0	2467	269130.453175670463	3411.8655552603
0	2513	273054.195216425011	17506.083903039
0	2518	273123.847948458901	8354.6339041729
0	2529	273668.56880104312	16642.044580264
0	2551	275429.559850197064	7655.5755737178
0	2566	276539.696620302246	5484.7524968429
0	2574	276613.802703954812	5504.5489445333
0	2585	277843.877605920128	5841.4400073216
0	2610	281117.485085179898	7592.1145639029
0	2633	282809.967492174226	7927.427126958
0	2639	283321.403125053021	13479.277856393
0	2644	283910.509585620596	3782.4770220146
0	2656	285886.56110306696	6884.7928089315
0	2662	286889.29212457328	10323.295128341
0	2699	291252.057840991273	3741.0572708802
0	2705	291538.846508328368	3306.2934630913
0	2722	294287.073141688884	12961.080843942
0	2790	304582.329704150915	11006.672189755
0	2798	304882.759313610739	15520.891649818
0	2803	304898.94237484065	4352.6513974658
0	2808	304968.784681211855	7420.9595634155
0	2828	306446.588327324508	5235.6697004853
0	2833	306471.234546507095	5602.1936478087
0	2852	310478.437715018386	4905.9519956952
0	2868	311168.562738017491	9050.4641034446
0	2876	311677.244994376784	13161.010215954
0	2887	316660.835962505308	7949.3414395084
0	2914	320768.893476370218	1478.8780930548
0	2967	327640.49496906408	16920.977474748
0	2972	327753.814062346895	8232.0895208986
0	2980	328192.915638538378	6378.2566644746
0	2985	328288.99790298989	5510.7441727255
0	2991	329284.167320478509	4754.3375377222
0	3025	332735.540517720969	6411.1714146528
0	3033	333525.159555424175	3830.3028645344
0	3065	337018.881791082064	3373.9382613424
0	3116	344783.043699690187	14609.043931897
0	3126	345300.653106014288	8427.0530957909
0	3131	345437.721750330812	15100.836200274
0	3136	345507.484897385791	10391.437334061
0	3144	345971.307349823908	8606.7379097974
0	3153	346389.266313671749	9478.732442012
0	3184	348377.121396413156	4209.3503843743
0	3203	350906.227923636646	4499.7187438992
0	3212	352667.761394133503	14644.677302455
0	3229	354698.902664815603	6414.2042251261
0	3246	356444.163280762354	9033.9766197954
0	3276	360808.1348790488	7063.4067660955
0	3305	364958.000567581729	6748.7025057979
0	3314	365735.878227734749	5876.4211399435
0	3333	368141.640655011158	19979.644717747
0	3351	370363.715242119225	5355.4050900263
0	3362	371863.050494675589	5768.6370667832
0	3371	372614.177058538147	11525.280551428
0	3393	374920.02682210307	20088.117032289
0	3401	375318.663164951236	2827.7263830523
0	3410	375818.854984184457	17263.649542147
0	3428	379252.52385174495	10626.0122129
0	3436	380248.770155711909	7297.1046865015
0	3464	386237.690676426101	7451.1626286822
0	3525	395606.957866453198	13049.087321471
0	3537	397073.736925834709	5105.2043956828
0	3542	397133.967452411605	9217.1532620191
0	3550	397388.189223185595	4501.5114893808
0	3559	397944.310705528477	4707.7960487838
0	3693	414012.594084969215	26451.01577575
0	3698	414152.274332865726	19944.961630462
0	3703	414161.497768313916	32990.66747053
0	3712	415349.85924241755	17263.149556635
0	3720	415379.184427895619	12566.034029822
0	3725	415918.025038649076	17045.841429914
0	3730	416078.52921940721	9752.2092752724
0	3735	416311.460114527341	6474.4077443325
0	3744	416872.543291861865	16123.794732619
0	3855	429683.423298954084	23064.786464808
0	3865	429834.999803340748	26488.014122637
0	3870	429888.166891928279	21405.44361428
0	3875	429904.745139371397	26036.735753703
0	3880	430076.236545928994	18381.688825228
0	3888	430169.375012548339	20732.565962644
0	3897	430368.404460255481	12827.379428067
0	3907	431195.795834364426	14641.945931773
0	3912	431407.642803101679	9020.7520879733
0	3920	431821.933921472045	13016.021944341
0	3926	432030.336360025819	14328.567152867
0	3931	432042.766562602408	5822.5379980514
0	3945	433447.92474448856	3973.0017064622
0	3956	433931.661280844682	9942.2022284979
0	3964	434332.901925623642	10801.276187427
0	3981	435743.490439688934	5388.1032366629
0	3992	436093.685647670898	2882.6713405422
0	3997	436102.113854316529	12381.225272453
0	4045	444366.723250606406	5774.346131659
0	4050	444707.303235119958	8444.9298884988
0	4153	457983.925480338465	15114.2837917
0	4161	458089.123813421289	19253.791324535
0	4174	459142.109151118485	24138.850554795
0	4183	459631.144805241941	10286.11863516
0	4191	459662.232430046614	10316.855720147
0	4216	461915.320543360827	10095.868256183
0	4221	461931.043485943459	13879.700869338
0	4236	463572.894552645863	11756.203718493
0	4276	467390.468000848993	13539.33852147
0	4286	467493.751417731595	9452.6354363887
0	4291	467607.978791774087	7960.5153614559
0	4297	468099.897977286313	21025.125780166
0	4302	468291.716946732203	11566.099148637
0	4307	468477.793492700616	6190.0250318806
0	4312	468517.908334196589	4885.2376038795
0	4320	469233.237092578541	8941.7156686376
0	4335	469907.810274126172	19697.959333195
0	4353	471024.890109108937	4059.7034048804
0	4362	472466.406055739823	8689.1352826579
0	4388	475195.009954807276	2276.755602827
0	4405	477524.790647127403	7809.1497007608
0	4426	480461.023758788004	3901.4549505222
0	4439	481614.558644229278	7929.139350639
0	4459	482315.326967927078	12538.709900744
0	4464	482437.594000948565	4877.5665100421
0	4510	487796.694574160452	4483.0811880826
0	4516	488614.453409240723	5086.0259537301
0	4524	489370.818298988325	7737.130895747
0	4544	490878.114062682464	8088.2651323414
0	4549	491505.30351496475	11415.828025855
0	4558	492972.175353424831	8433.9740202468
0	4699	510533.411106776633	21088.216463977
0	4714	510875.103411879444	16388.061487884
0	4732	511414.485004421484	15141.580974314
0	4737	511533.726996340706	15207.414365639
0	4745	512224.351839823002	16471.312180406
0	4750	512296.674341810558	14664.258328322
0	4755	512395.39278887044	14447.091379919
0	4760	512477.471461213101	15429.167087459
0	4769	513201.10416861233	14541.849053746
0	4779	513511.726110693672	8976.4129817646
0	4784	513540.973508874058	14593.936170984
0	4789	513753.550562415066	14882.895172115
0	4794	514088.33275781959	3447.1312173978
0	4803	514816.047306212501	10232.592934476
0	4812	516088.902105149864	5016.5175836142
0	4845	526811.762052100164	5981.5887884315
0	4860	529855.362913172314	6235.1874304215
0	4868	531418.221863995878	18779.455011577
0	4887	535233.13495827048	8471.7566904166
0	4913	539130.469824742463	3195.0867678523
0	4942	542991.80407072956	8278.371713978
0	4959	544789.740208681864	7128.039208977
0	4980	545116.911761297909	4436.2961567031
0	4989	545628.031469474761	1495.4557768157
0	4998	547277.350932267934	4664.0083593528
0	5006	548484.834468853867	9297.0484713822
0	5073	564198.505860852868	14495.215744994
0	5078	564565.356832402651	19691.227530199
0	5083	564703.429606649364	11231.83423609
0	5088	565091.435783887873	8531.9081084159
0	5097	566612.811587155905	9149.3528468664
0	5132	572413.36181451505	14491.553641212
0	5154	577421.327227787613	7538.9872816252
0	5176	578944.392902972289	1821.6607784456
0	5185	579885.237810420973	11044.13304459
0	5219	583384.27357282162	8262.5572747645
0	5268	586641.783339776934	8687.7459905915
0	5273	586734.190909658111	17826.830500763
0	5278	586782.885189264181	5612.5570990292
0	5286	587393.764938093457	6722.0308053636
0	5291	587619.204059053488	3810.1724359839
0	5297	588203.815316375767	4497.3463558706
0	5302	588324.540334874347	8152.0130932632
0	5417	603723.325965226909	18790.118962656
0	5425	604611.571232314885	15202.553131238
0	5430	605110.658597298143	12658.332044904
0	5436	605193.618592746646	16135.952784336
0	5441	605644.966929564223	15974.170957185
0	5446	606020.002108374201	13313.386349167
0	5454	606438.623023676408	11336.0634533
0	5474	607479.127057563554	17141.203190347
0	5484	607888.457044173245	14791.805243602
0	5492	608447.229145720818	7956.6706186261
0	5501	608686.240334768764	2266.6606781799
0	5514	609774.641061605456	2531.1580100375
0	5537	620991.304843460534	24141.962361044
0	5554	623779.708698599741	3832.6997680493
0	5577	629359.888475022531	20809.128984015
0	5718	648417.895341601085	19504.728733672
0	5723	648479.349251361332	18726.182750233
0	5728	648562.270414741414	26747.94426549
0	5736	649233.148868627521	18309.292328246
0	5816	655092.861926018916	24942.670639473
0	5821	655147.304113386766	28400.690699321
0	5826	655243.098292596083	23569.906742729
0	5831	655753.859431659364	22553.945109296
0	5842	656101.371059923081	20899.815442992
0	5851	657307.562286489257	8628.354259169
0	5856	657364.93101597401	10053.703035774
0	5861	657721.192310513446	14844.584855586
0	5866	658113.761270702155	16332.622326244
0	5871	658178.478670906729	8231.2174272125
0	5883	658798.753888140499	5283.8290894115
0	5904	659390.510505096285	10026.651044117
0	5912	659691.422130980698	10155.441728685
0	5917	659727.917218058484	26770.543657112
0	5922	659765.976549494419	6320.2076312795
0	5928	660268.758157907246	13392.651442026
0	5945	661104.852880264226	7103.3344840004
0	5959	662939.597132338118	4503.3984496746
0	5964	663017.456096012067	26485.128583368
0	5969	663030.194012473378	4352.6506785069
0	6020	667810.319933864636	7301.9326130324
0	6029	668595.649708776548	4171.3036916911
0	6046	670354.825164888803	5012.7741029452
0	6054	670669.115202126266	3453.2532381576
0	6071	673483.943210243034	10272.263774392
0	6083	673836.895374693392	5201.4549615573
0	6088	674650.372161397497	7976.5391726124
0	6312	698751.262959166931	27211.456949152
0	6317	699241.268986700697	22529.914380338
0	6322	699272.65298134665	22757.709235446
0	6330	699398.206346513543	21379.23791929
0	6335	699399.213323704313	22428.330270671
0	6341	699486.212743688272	21557.726413668
0	6346	699583.293302146756	20804.802348328
0	6351	699840.210326554529	19371.321452736
0	6359	700088.255663570952	15355.631517258
0	6364	700475.145554931882	18890.93064957
0	6369	700535.648913288798	15656.385171715
0	6374	700759.078608839697	12085.303079964
0	6380	701162.012581907987	13208.163026341
0	6391	701476.206574518125	8220.4530424074
0	6463	708710.313309763441	15175.195524876
0	6483	709887.206094738745	20552.793699746
0	6488	710041.971426791482	16828.926157119
0	6496	710506.59578236117	24167.63000201
0	6501	710531.902461676364	9314.6736590926
0	6506	710647.264269537379	19924.928637214
0	6517	711192.522085353451	16526.632756153
0	6542	714517.960981978637	13133.025303807
0	6548	715012.040808086	21100.416051138
0	6556	715389.357451403014	12792.015750791
0	6569	716044.155416478523	11284.067772087
0	6574	716070.725121394577	11232.295292513
0	6579	716298.314270508331	10355.363527286
0	6584	716370.274717052654	7784.5788359107
0	6593	717052.902249033447	5518.7701890751
0	6602	718315.912394945183	7582.7784900483
0	6630	725147.620237831881	9786.7731892063
0	6641	725713.460167163743	14647.125246458
0	6654	726567.592521537739	4144.8995947762
0	6665	731676.705681136976	9972.0073592406
0	6682	733451.536054511715	8068.19737878
0	6787	749448.255191658919	16598.151211756
0	6792	749621.282575943226	13100.09752103
0	6797	750087.044758124764	14566.569532036
0	6806	751099.661453102005	11759.400924245
0	6811	751602.872133946771	11442.643641883
0	6816	751744.549965263067	10587.379714383
0	6821	751892.533043180288	10302.293943078
0	6836	753500.207299013311	12682.234009631
0	6847	754585.691199721313	9160.1758743741
0	6855	754767.595351182158	7149.6556752559
0	6888	757483.646587205271	4208.3011179344
0	6897	757991.351143039766	1572.6661732828
0	6931	762239.769988665126	6927.8150765157
0	6971	765303.539787431951	6825.2456238906
0	6979	765597.780546245341	6350.2737078104
0	6984	765769.476354745419	6118.9491176689
0	6989	766023.09461707126	3211.9554025828
0	6998	767254.563688591431	10427.264615951
0	7007	769277.197121095711	6595.4830412334
0	7083	779183.216975443567	16267.951469657
0	7093	779480.455029775595	6843.5487093439
0	7102	780281.715005858403	5111.1064608067
0	7110	780726.121067818516	5760.8421105581
0	7121	781543.773258559988	3600.5505709947
0	7129	781599.42493363695	9027.7346915195
0	7155	784221.205336661031	6665.8268073402
0	7160	784495.37287271225	5797.9361041946
0	7203	788532.9178179654	3358.622861584
0	7217	789218.028942516318	6642.8692915723
0	7222	789488.948709018455	7900.3536564734
0	7227	789990.299448280605	5096.8901826101
0	7248	793644.696285299317	21533.876680385
0	7295	796387.76468769762	8771.8528222072
0	7312	797192.689617770812	2055.8182764589
0	7320	798435.533030936675	4763.6217359458
0	7329	798962.458518208245	5082.9032811409
0	7337	799692.321994348564	7436.6190196077
0	7349	800927.68090854817	15643.632741909
0	7363	802643.075677774818	9145.6498888449
0	7372	804119.049692126698	7280.3200272885
0	7406	808349.98854490978	7447.1938732531
0	7434	809963.141023764728	3050.4332665206
0	7439	810258.359729801725	2777.261425692
0	7448	811140.013361891159	2147.3526988497
0	7468	813479.974190772146	7915.6758531468
0	7507	817370.222040609074	8185.812840586
0	7515	817610.547290787031	5234.5106480186
0	7533	819866.963465555575	25554.224454156
0	7553	821341.781860137634	5321.0707918273
0	7561	821596.744304994103	2821.0681203631
0	7575	822944.809772298798	9014.2438045357
0	7597	824243.814872015978	9870.305594535
0	7627	826185.910905906588	2995.4911020217
0	7633	826410.769906696418	2650.1779902658
0	7656	828893.357937385362	7363.4230866183
0	7709	834863.693880493566	21486.049986761
0	7714	835389.756444400558	9757.9430464279
0	7719	835409.680617731448	11404.120120235
0	7727	835707.642891502913	15810.354828706
0	7737	836532.223174117448	7870.1917442759
0	7743	836726.053274647951	9529.810266099
0	7752	838623.99270257542	9533.7794582995
0	7793	844311.19065278454	9924.7742598102
0	7798	844328.959432269423	8797.8447483065
0	7803	844482.188340053553	12081.107493729
0	7815	845338.455842124877	3751.4996578251
0	7894	856216.568555875073	17007.488064634
0	7904	856479.324370665488	8053.2050418543
0	7916	857388.784246423659	7634.7145264073
0	7921	857545.57811030146	4260.0417733801
0	7926	857674.555226685187	2565.1628051649
0	7931	857707.463796689971	3551.0272302815
0	7939	858739.904705956496	16723.44795851
0	7985	863880.939813690548	19146.059577373
0	7991	864040.729212594194	2171.0090205375
0	8034	868861.417506356037	6898.8677648767
0	8040	869860.273494465496	9784.7142247669
0	8045	870177.402359173616	6919.8219400477
0	8050	870295.160531903314	4862.5835054524
0	8059	871699.902232385706	6321.9571527454
0	8067	872060.166486519243	16326.653335014
0	8235	888814.079113377653	39312.53174596
0	8246	889452.143880728692	21084.521180422
0	8259	889680.683029760335	16595.282458241
0	8268	890093.71652943969	16457.127634285
0	8273	890109.247911106737	14180.753882218
0	8278	890381.531768964554	15275.773136024
0	8283	890568.765808749083	13973.58831248
0	8288	890624.01155496617	15866.52836082
0	8293	890716.876761830573	13305.728025214
0	8298	890729.970492521634	14609.793791718
0	8303	890988.764086586973	3281.1439082233
0	8311	891067.5210302487	13432.418755825
0	8365	895706.489604914969	11652.979270594
0	8370	895751.683529483483	8024.4498224803
0	8375	895788.610650872943	14133.851920987
0	8380	895862.300491536143	6872.0532412777
0	8385	895987.711056595037	4989.1336439945
0	8405	897465.074885435774	4671.231349454
0	8413	897877.08680005271	3505.4649234137
0	8439	901235.915990001886	3516.5955273256
0	8453	902058.596672317703	8473.5718820016
0	8473	904434.489200828705	12664.580700118
0	8487	905174.36269409052	6513.9191653912
0	8501	906252.873279784041	2959.0042802232
0	8518	907533.782613404014	26083.715068852
0	8888	945405.032400921255	65076.247738373
0	8893	945563.637950006328	44386.324017282
0	8901	946122.07647827842	41804.168162656
0	8907	946470.971057675995	50045.054052359
0	8912	946515.432921749066	39216.90303376
0	8917	946583.120859299443	38678.649300875
0	8928	947411.640096272852	41173.361253308
0	8967	949845.740023063265	41660.22165863
0	8972	950173.530806398292	35851.128407764
0	8977	950223.075282645005	40576.15120574
0	8982	950636.851875956604	35001.110563976
0	8987	950685.506995775341	34976.990961731
0	8995	951103.631485293577	36429.122594041
0	9000	951153.234353398577	32521.097581659
0	9012	951881.258654816555	31878.581213252
0	9017	951920.966172165895	32554.462514686
0	9025	952317.45191883363	31117.885851062
0	9030	952533.086904309214	36526.671370419
0	9042	953932.336096139606	38231.669897975
0	9191	971735.581629294649	47943.706838277
0	9196	971905.359676326232	46961.493819723
0	9205	972304.518629053402	49710.838026845
0	9210	972334.389933246471	38192.973231338
0	9218	972585.571955227187	43065.303308602
0	9223	972630.06119816953	39750.54016863
0	9228	972680.870046294047	42286.576214054
0	9240	973851.338165797627	40777.114179464
0	9250	973933.473493199844	36568.798560131
0	9255	974634.618468828756	39804.869189343
0	9260	975031.917594046484	40581.098592777
0	9266	975844.484393737538	35227.433122164
0	9271	976451.613007488986	35954.187309023
0	9276	976807.100366395231	35289.782178045
0	9281	977066.811996032262	35039.464495977
0	9287	977133.401071193321	33019.904115024
0	9292	977419.27046195729	29234.481916449
0	9297	977425.76065519166	47438.770353559
0	9302	977746.525116680017	30583.509263635
0	9307	977906.622377473431	30699.47860059
0	9318	978505.740865968012	35338.002518834
0	9351	980004.911224237122	30490.828216332
0	9370	981301.311253128735	27085.711205655
0	9375	981400.679151448228	26850.277917634
0	9380	981444.84441608097	27975.956852777
0	9385	981528.129629743094	26504.982939977
0	9390	981598.139109755519	18431.680368465
0	9395	981745.393110032719	18416.135082164
0	9406	982244.466026671786	24567.618391155
0	9420	982754.752347949221	15928.714061545
0	9425	983244.404181454563	19730.813935918
0	9430	983711.037293185376	13512.359884168
0	9435	983930.090258778379	24848.69953477
0	9444	984349.382098923244	14064.615236275
0	9449	984486.26270083273	6402.2042528826
0	9457	985256.604610906763	5519.6414681482
0	9471	985744.402718034528	12476.570667567
0	9479	986015.195539693216	7669.7774886852
0	9489	986193.432187679366	6242.9877762362
0	9503	986403.126596905994	7870.2727357142
0	9638	998517.568430162315	27607.89137119
0	9643	998592.311177451822	16566.377861904
0	9651	998965.753168339226	13072.708840488
0	9656	999045.63955604828	14481.709302599
0	9662	999841.738693229665	13287.510897351
0	9667	1000224.341296467878	11692.118534254
0	9672	1000474.844727223746	11182.419882248
0	9677	1000479.482414405971	11708.141871518
0	9682	1000533.554631269007	11250.836846008
0	9687	1000553.636615011288	14237.145572908
0	9692	1000741.259872201071	9274.5800243194
0	9697	1000772.98788523186	5343.2590221426
0	9702	1000820.312166189778	5390.6885008282
0	9719	1002468.254070910662	5836.6109519946
0	9751	1004911.495026263482	14444.38156906
0	9787	1008805.261038437501	7791.9249271474
0	9798	1009153.02637325801	4612.7865740525
0	9806	1009550.735697317929	12625.504865665
0	9811	1009608.290421715672	5915.0222143122
0	9872	1015492.722208863814	9700.7684474485
0	9877	1015887.966733588635	3629.8401524238
0	9882	1016319.017464464431	11073.53900485
0	9887	1016344.511397003241	3552.9163003416
0	9908	1019512.628746110611	15002.288922901
0	9923	1020475.426006819622	16628.623783575
0	9938	1021496.20623368966	8390.3428626623
0	9966	1023290.346082603184	9894.7755254277
0	9971	1023329.172977768993	13263.350918777
0	9983	1024003.010303698592	6169.257739602
0	9996	1024552.94552979963	4431.3963604883
0	10004	1024813.556691715491	4361.2853755872
0	10030	1027176.814555806054	5033.4655625926
0	10051	1030863.349531341826	7136.886835684
0	10056	1030992.795274960633	4504.1905397148
0	10082	1033349.92734261017	8014.1825473634
0	10183	1043452.543093620532	21049.15162701
0	10188	1043536.977830104055	11643.457338019
0	10193	1043983.260476914792	10796.463078504
0	10199	1044006.372538133375	9355.3264641222
0	10204	1044263.558792697348	11229.055025958
0	10209	1044841.066988394295	16805.585969708
0	10214	1045203.734940219426	8350.9319524017
0	10232	1046055.78294974261	9776.0618594167
0	10332	1056635.879997995005	17156.576133172
0	10340	1057130.862791947463	21865.08371583
0	10352	1057826.626545207386	17558.659712453
0	10357	1057990.406163821695	12592.04240344
0	10362	1058079.397061393667	12135.849921974
0	10370	1058555.79503045493	13167.809083544
0	10409	1062606.635230151275	21528.465858126
0	10414	1062639.807719630005	13883.963989535
0	10423	1063000.423186192099	11460.367192654
0	10433	1063779.067289299446	10183.765452903
0	10438	1063975.824761890026	18111.829163597
0	10449	1064186.170762277137	17486.796656985
0	10455	1064852.575623408165	3895.9722359393
0	10460	1065310.785340858894	7058.8629487446
0	10468	1066172.235851288983	12276.211688207
0	10477	1066494.750619593146	6644.640088402
0	10494	1068836.805499548173	5944.8052949532
0	10502	1069508.838075284357	20808.356224007
0	10521	1074626.760422619812	6646.8058134576
0	10679	1091224.140893115431	16053.660206638
0	10684	1091364.192271697006	31459.685113659
0	10689	1091442.036058819701	19733.087248069
0	10694	1091542.108584985625	15876.242343237
0	10699	1091931.762384567721	14381.611685657
0	10704	1091966.585040877392	16018.234183591
0	10710	1092026.349162939624	16477.724518409
0	10715	1092174.92187171021	13868.402067167
0	10723	1092231.631816672482	11410.864372411
0	10733	1092512.199891742964	12143.295416008
0	10738	1092632.360406870109	9458.5047556013
0	10746	1092799.321309927084	8822.06761138
0	10756	1093451.226689640628	11812.773482864
0	10766	1095629.742310389006	6269.3219911568
0	10791	1098097.675367204669	2019.1094051574
0	10799	1098788.02872297781	13268.259806935
0	10826	1102365.069245474734	10160.921848396
0	10843	1104493.967142443297	11712.09879101
0	10851	1104718.944594575064	3649.1093882782
0	10881	1109984.659947835458	6624.247669754
0	10893	1110877.761196427415	13751.020215102
0	10903	1112020.299115712744	10479.585001379
0	10912	1112969.087495564073	4990.3239243571
0	10954	1117507.750929303428	6689.6971382821
0	10983	1120315.04561901415	6386.0470967529
0	10994	1120750.849209245151	15050.136865414
1	1866	200871.598712024626	1927.8222509683
1	1871	200945.175271569382	689.97953941457
1	1906	203591.245870500725	0
1	1926	205405.230951293338	744.60653764121
1	1935	206603.045128672275	1354.7259966898
1	1959	208981.539740675393	2479.9296795264
1	1965	209925.128044724354	3180.9543693592
1	1970	209984.875309457244	2597.3732762155
1	2015	211810.3155009785	115.7609604048
1	2035	214100.13532689072	1081.186133153
1	2050	217048.769403355796	0
1	2079	220030.516616023104	395.21716637356
1	2084	220446.937176120751	686.24147012097
1	2110	223912.879943646562	0
1	2137	228201.044448542782	0
1	2146	230122.49671067322	0
1	2173	236105.15486594377	0
1	2192	240013.219761570547	965.21418139866
1	2201	242613.937109037982	0
1	2218	244821.558129126002	0
1	2227	245495.235210725512	637.3637190619
1	2235	246494.232185567707	0
1	2253	248707.200068478119	0
1	2277	253464.989133272538	605.34477892463
1	2285	253498.949475439608	555.45881135108
1	2313	255548.111313386136	0
1	2321	257026.52422077899	0
1	2347	259281.688094048152	0
1	2358	259988.476060673467	461.50045678068
1	2367	261220.159629966958	1212.1617861822
1	2390	264382.384406603923	0
1	2401	264825.744898992264	385.16563141771
1	2410	266123.622532270411	1354.4084879845
1	2418	266581.015775193662	862.42815478349
1	2448	267798.472101678182	24.487825198957
1	2473	269842.125268659602	0
1	2488	271670.380472554889	615.43634909555
1	2493	271812.913981045573	703.66022162404
1	2501	272083.157834597928	80.720235999396
1	2531	273668.56880104312	143.19827976613
1	2540	274882.540365216258	0
1	2576	276613.802703954812	47.805707722948
1	2590	279001.768294135481	0
1	2602	280470.921210041973	342.88864643594
1	2616	281325.992297746407	0
1	2667	287511.000570111105	0
1	2676	289078.364739378792	845.81169414177
1	2685	290290.386643772578	928.51897997996
1	2711	293575.657514395999	0
1	2729	297547.82511779635	0
1	2738	299124.037021465712	607.80224304288
1	2747	300546.290977374827	0
1	2768	302435.121772750186	1566.0808740518
1	2773	302599.635852895787	1388.7172260566
1	2782	304233.350406374628	2115.2517718017
1	2814	305572.485719323219	0
1	2840	308711.494522996879	0
1	2857	310719.517494315671	0
1	2894	319290.015383315419	0
1	2902	319845.449116669139	323.7245752208
1	2919	321814.658974063735	0
1	2928	322778.253730264358	0
1	2943	324916.738401415715	386.90861865945
1	2955	326924.325969913375	599.95686684523
1	2996	329694.856690889776	0
1	3007	330784.289016118767	610.28924832573
1	3016	331692.691244024972	1355.8056939682
1	3038	333644.943529739623	0
1	3047	335116.047563324492	0
1	3067	337018.881791082064	145.28178085872
1	3084	341596.210716781072	4685.6768451213
1	3089	342144.201816613212	4779.6323765867
1	3104	343835.378516178044	5812.2944244997
1	3118	344783.043699690187	615.2726876513
1	3158	346406.509179737411	0
1	3166	347410.186660966957	0
1	3186	348377.121396413156	215.12545914884
1	3194	349181.919441481193	897.22100179172
1	3218	353744.72811295332	0
1	3234	354831.909789814373	0
1	3252	358209.298061783782	0
1	3264	358671.465737343055	116.2602953057
1	3278	360808.1348790488	948.67779125758
1	3286	361600.704749516377	511.80824240616
1	3316	365735.878227734749	727.56807564185
1	3325	367680.400413797052	1585.9869859046
1	3339	368626.511638844505	0
1	3373	372614.177058538147	123.24027663917
1	3381	372951.665469210425	0
1	3416	378786.528047743875	0
1	3442	381170.830297784413	0
1	3451	382953.383429055905	395.51288407359
1	3470	387561.5783092189	0
1	3478	387916.81419039253	0
1	3488	391968.532530151958	0
1	3497	392886.677733804842	0
1	3505	393536.172896919144	299.65824017443
1	3513	394207.312702403557	0
1	3564	398086.709685782372	0
1	3576	399837.457117917359	965.27350918203
1	3601	403902.455794278	3153.7072350355
1	3607	405538.895525591893	2725.7451275179
1	3619	406791.461973786732	3444.4762930825
1	3631	408876.838966591035	5008.8295809225
1	3642	409570.48046054444	3244.1605164096
1	3651	410191.668077618851	3573.0312434727
1	3659	411129.277636560795	2646.5543589125
1	3664	411145.890614307058	1709.0815644025
1	3676	412721.640066298614	2884.5876961037
1	3682	413322.366931109856	1627.8192104085
1	3746	416872.543291861865	318.69338927049
1	3761	418631.464501493017	1090.4394693047
1	3790	423668.624109494083	5966.854902335
1	3801	424406.135630814088	5600.2236536827
1	3806	424541.558385160758	2154.6676700324
1	3811	425079.078417559155	1547.4526793625
1	3817	425497.328169334933	1776.4395874717
1	3832	426925.520778390967	2936.0617260442
1	3841	428587.701008051197	2367.4724435002
1	3857	429683.423298954084	208.50026092768
1	3899	430368.404460255481	13.017257229403
1	3947	433447.92474448856	236.9104373599
1	3969	435003.258596323465	0
1	4002	436262.373346621142	0
1	4011	438592.377118947448	0
1	4019	438835.332488886529	0
1	4030	442869.641688638814	0
1	4056	447074.772197120208	0
1	4066	449312.693128607877	1261.3505120023
1	4080	450118.226955245093	773.20078516363
1	4091	450439.467909758584	1094.0911998592
1	4106	452553.626933993722	2343.7759930622
1	4112	453153.994563204777	1337.3037290515
1	4127	455041.20371028058	3221.7514231025
1	4132	455142.040040907628	1290.9105615282
1	4141	457186.963640436509	461.34584234109
1	4163	458089.123813421289	48.007832078391
1	4193	459662.232430046614	14.76899972841
1	4201	460490.555351075161	199.03392713427
1	4238	463572.894552645863	1285.1260918259
1	4249	464350.31597141916	717.64524110204
1	4258	465364.305957094577	1587.0351840127
1	4278	467390.468000848993	425.28129662049
1	4337	469907.810274126172	192.16932775953
1	4342	470036.910371740922	260.29330455797
1	4367	472918.254351980249	0
1	4376	473685.419293590228	0
1	4393	476559.568808265758	0
1	4410	477560.027490906442	0
1	4428	480461.023758788004	371.54826967832
1	4444	481633.687403241374	0
1	4469	482789.84893034106	0
1	4481	484378.258399509374	1064.6450134315
1	4490	485307.41129431786	1778.9838388073
1	4495	485508.468348847797	970.26701566973
1	4529	489445.194642799846	0
1	4564	494487.041923995884	0
1	4573	495753.039659417279	0
1	4581	496272.904030107589	0
1	4616	500958.285176458353	4631.9725457566
1	4621	501640.487988465582	4592.1836147111
1	4630	502309.862494938232	4677.4464814498
1	4635	502926.057674598437	4977.7562656473
1	4653	504644.756923552039	5985.5018086861
1	4661	505247.774232163161	6377.1188418634
1	4673	506881.057464442864	7934.0201265524
1	4682	508624.615012447424	4089.3018835183
1	4687	508702.846890298465	4119.3925185623
1	4716	510875.103411879444	233.90187145761
1	4724	511104.824772465543	32.440250929926
1	4771	513201.10416861233	562.33731619343
1	4819	520830.173263668689	0
1	4829	523620.175482750772	0
1	4847	526811.762052100164	50.383784246296
1	4875	534713.432356751606	0
1	4892	535935.383056890159	0
1	4901	537661.700999704845	0
1	4918	539187.785997471676	0
1	4931	542368.023720556548	1687.4081159618
1	4944	542991.80407072956	378.46149781443
1	4961	544789.740208681864	657.16451602285
1	4972	544950.716129127972	76.586826924169
1	5012	549703.290115858389	0
1	5022	553471.595370559281	0
1	5032	556559.527675471923	0
1	5047	558434.572825461996	971.11408517248
1	5060	561670.106257986044	3748.2980846829
1	5103	568841.104765831445	0
1	5111	568929.400655067161	22.040246171749
1	5120	569882.339946162424	0
1	5139	575121.716298057072	0
1	5156	577421.327227787613	298.59510326097
1	5165	578061.443785698529	107.40643651306
1	5190	580172.527241611175	0
1	5202	582316.642165292585	1644.9080325628
1	5210	582720.901336641146	1550.5732464062
1	5224	583706.468960505167	0
1	5235	584414.735948884173	605.70432581457
1	5250	586194.585732664961	1261.3787300943
1	5307	589057.665808410146	0
1	5315	589409.018101076433	0
1	5327	590966.747478115337	1295.9515057357
1	5333	591491.957410273812	1154.0335430576
1	5355	594917.573610123148	2465.2470577291
1	5360	594933.309092926741	2226.6933337196
1	5372	598209.419545571892	5112.7677450009
1	5391	601071.396466157496	5968.8368957814
1	5396	601309.386397583155	4460.0439151664
1	5405	603131.297660622892	2640.7391335282
1	5456	606438.623023676408	19.043367087533
1	5476	607479.127057563554	235.64400599564
1	5503	608686.240334768764	135.48084376144
1	5525	619947.008930550412	0
1	5542	621814.326149251468	0
1	5561	626746.61341406602	0
1	5579	629359.888475022531	446.72186709339
1	5597	631772.363489253398	2019.1969881248
1	5603	632648.326481397238	2498.135194851
1	5608	632721.713203727032	1797.8566633455
1	5613	632787.664897603237	1114.4733477364
1	5637	635299.517818103613	2342.1442571571
1	5657	639695.207598404766	6495.2932760417
1	5669	642244.599385402502	7043.0437684711
1	5678	643611.787428451563	7079.459915807
1	5683	643757.672489456359	1976.5335449979
1	5688	643827.061897379164	950.4544424513
1	5698	646911.408521804833	35.301805923164
1	5710	648156.303963700774	845.07598350071
1	5738	649233.148868627521	553.94084130724
1	5746	649408.293644077218	44.434183098417
1	5755	649765.979912382956	229.99951008726
1	5776	653109.774914303705	3162.5136706094
1	5785	653508.401568946512	62.632650731614
1	5793	653662.837658009675	147.91285928068
1	5801	654836.107836450967	834.58944018712
1	5885	658798.753888140499	362.55520547697
1	5893	658992.860093612027	315.31675964553
1	5947	661104.852880264226	596.46555943195
1	5974	663211.679435850622	0
1	5983	664424.346017085414	0
1	5992	666404.887314335066	1062.8362523915
1	6000	666673.832988785096	0
1	6012	667537.21585769305	321.35389372442
1	6034	668635.440413136061	0
1	6059	671539.806010015358	0
1	6094	676514.94374590099	0
1	6102	676886.805871197253	175.4512648348
1	6111	677251.566910679506	280.68385764646
1	6125	678271.237873364863	342.7515433449
1	6140	679806.413236328685	1787.4448091052
1	6154	684293.690912962745	5515.1999591443
1	6165	685297.871666447879	4828.9827926295
1	6180	687249.728978791172	5665.5140734295
1	6188	687361.667337451064	2629.0431911381
1	6207	689934.400519357312	5055.1367777834
1	6212	689979.803027217778	3640.8372468664
1	6224	691278.892332487024	3325.0427769204
1	6232	692353.696594565125	3679.9210656899
1	6253	693917.177972678121	4582.7655776859
1	6262	694434.108517890291	3711.7728855668
1	6273	695108.929464416429	1895.8841947441
1	6282	696245.843861464944	2990.0903293542
1	6287	697116.568214512179	3581.4504296245
1	6292	697146.455420853691	3234.8306639056
1	6301	698084.277640194445	3418.3883109937
1	6393	701476.206574518125	258.97777193437
1	6405	702944.878880771698	1559.9432025999
1	6410	703116.513529200822	519.17182858903
1	6431	704843.457852699201	83.370208307797
1	6446	707639.089980542524	2800.6601516606
1	6452	708183.850236799363	2240.8994935772
1	6465	708710.313309763441	124.61742862148
1	6519	711192.522085353451	459.38818045658
1	6528	712214.24041835642	1147.9054976503
1	6533	712942.267958359238	1408.1358984009
1	6558	715389.357451403014	28.510402777455
1	6609	721704.698321896379	0
1	6617	722422.692926761564	0
1	6643	725713.460167163743	330.12149143206
1	6671	732850.103979902521	0
1	6689	735520.475226088773	0
1	6697	736521.185054913529	0
1	6707	739340.260528856861	0
1	6728	742259.374447606419	2099.1459555428
1	6734	742746.933604721469	1928.9603153396
1	6753	746647.948097236472	5490.7778463562
1	6758	746854.513892275701	5264.2747921729
1	6766	747193.995423347189	1768.480098
1	6778	747765.824468285289	147.884792359
1	6838	753500.207299013311	224.86182974247
1	6860	755311.954912149379	0
1	6869	756418.684969756992	0
1	6877	756827.299072640561	0
1	6902	758478.294163541384	0
1	6911	759560.435822439584	312.92898400461
1	6923	761597.132113172358	1946.6048760959
1	6936	762681.714079862306	0
1	6948	764349.496967093329	1538.3577526049
1	6960	764909.439857389813	1994.1743516033
1	7014	772110.819604914403	0
1	7033	775491.385236824672	2919.6949947072
1	7045	777576.955230579202	4940.0489101475
1	7050	777633.898215568716	2668.6192583083
1	7055	777774.333514915658	2603.7249698639
1	7063	777952.276896312958	396.8983669921
1	7068	778026.499960441575	83.277272876307
1	7085	779183.216975443567	485.78020692596
1	7131	781599.42493363695	10.829881091872
1	7140	782575.159650943972	0
1	7165	784893.409265670496	0
1	7174	785232.01995749928	57.725001117851
1	7182	785354.728001560249	70.679834921198
1	7205	788532.9178179654	917.00595247499
1	7234	792255.702974740856	0
1	7250	793644.696285299317	147.27049636935
1	7268	794677.003424976455	1005.0921299856
1	7273	794876.499290673841	996.94405360648
1	7281	795366.365523194231	1053.6265117949
1	7287	795705.922906798087	569.05156548619
1	7300	796838.729664838155	0
1	7351	800927.68090854817	24.886236891474
1	7377	805564.298337625394	0
1	7386	807104.624233161918	191.91647591781
1	7398	807888.836260265749	407.73795615601
1	7411	808992.660663041453	0
1	7423	809758.826008273446	574.41680825039
1	7453	812376.036642768459	0
1	7470	813479.974190772146	102.33029703992
1	7479	814312.558430797861	381.99246303481
1	7487	815099.213607433223	725.7043299522
1	7496	816020.711068310379	0
1	7521	818775.676184631028	0
1	7538	819897.288062797146	0
1	7563	821596.744304994103	66.809454227053
1	7580	823190.419803884887	0
1	7599	824243.814872015978	483.2229555854
1	7604	824269.339418839261	263.77892134244
1	7613	825631.813397972643	0
1	7638	827196.243008548943	0
1	7658	828893.357937385362	231.32650754381
1	7667	830973.588640487983	1883.3753962121
1	7685	833076.248352983307	675.16750665863
1	7700	834603.02848582345	216.61209284916
1	7729	835707.642891502913	176.52820753998
1	7757	839209.080491240792	0
1	7770	841747.446272535506	160.49008823574
1	7781	842297.557768763706	281.10102131732
1	7817	845338.455842124877	603.57560580696
1	7826	848426.119328811232	0
1	7839	851394.775058773555	1893.2276913554
1	7848	853132.113520410812	3378.0438003944
1	7863	855065.014262766305	1779.477925845
1	7871	855162.546866107902	1006.1102996994
1	7880	855516.172092703979	406.77967118373
1	7896	856216.568555875073	483.05540437026
1	7945	860075.559269698583	0
1	7954	861869.720192056703	0
1	7963	862308.597663909485	346.04792243015
1	7971	863257.580419125917	0
1	7996	865377.945079640339	0
1	8008	866118.976681603732	686.39965515279
1	8023	868553.273190285852	185.65048997959
1	8073	873085.400571518975	0
1	8081	873636.588895154899	0
1	8090	874757.483194145767	0
1	8114	877491.062830068123	2385.3041971273
1	8133	880491.379896110156	4562.8858672209
1	8145	882025.353864829679	5905.177164026
1	8153	882715.568817731612	6120.3913214621
1	8162	883305.754320465091	5894.6055838485
1	8173	884426.56902742102	6791.4667529969
1	8185	885928.249029088872	5599.4643665409
1	8197	886968.189312075402	5518.1217675234
1	8208	887890.162497901339	6235.4037680158
1	8214	888149.679409176786	4096.1690748561
1	8219	888426.093369328582	718.47319096493
1	8224	888529.885961691948	802.65225468878
1	8248	889452.143880728692	461.89663047021
1	8313	891067.5210302487	68.943617648127
1	8326	893264.585626175596	1494.6771254647
1	8337	894117.760901497724	1323.917365516
1	8342	894237.873564067961	652.84877375181
1	8350	894512.587190157321	140.96531351835
1	8390	896425.917005316516	0
1	8415	897877.08680005271	157.76633737639
1	8424	898660.443528699273	0
1	8441	901235.915990001886	58.602057277959
1	8458	903293.868999560814	0
1	8475	904434.489200828705	116.58088520625
1	8503	906252.873279784041	14.594436819368
1	8520	907533.782613404014	235.25272541531
1	8538	908715.721722006028	811.25016358197
1	8550	911677.859448353854	3492.3410839205
1	8566	914844.686391779448	5197.7623148749
1	8574	915283.865007689453	961.46260905547
1	8579	915357.951070830635	683.44217957769
1	8604	917839.337541838516	2203.5962298578
1	8609	918099.427710524639	2398.7615123599
1	8634	921470.889189484692	5762.3731554399
1	8639	921723.090995241956	5716.6754613517
1	8651	922847.986428704068	4215.8496569646
1	8662	923940.400239961011	4573.8965824814
1	8668	924469.197746336756	4466.5203047718
1	8676	924730.623570437575	3531.0575026663
1	8681	924908.207664659225	2314.5270624508
1	8700	927652.899996696319	3861.0252056784
1	8708	928600.246984836123	3656.3811282325
1	8729	930502.052397613672	981.78375098891
1	8734	930718.259377188595	731.26907555617
1	8747	932782.127025015112	2387.8331927749
1	8758	933972.169577275633	1092.6485477364
1	8767	934355.942420360788	1281.7184340272
1	8781	935210.92839996685	1069.5116980582
1	8786	935451.516006476143	1000.6970052067
1	8791	935731.330057142172	901.5807776569
1	8811	939635.169081890932	2270.4941488226
1	8835	942092.658663335097	1595.2329648696
1	8841	943150.96427429042	2533.9130027172
1	8855	943853.621885438933	2336.3036970885
1	8860	943862.688785980205	1835.3412859246
1	8865	944020.025376688683	852.28702955507
1	8873	944179.469231080853	65.972274911274
1	8930	947411.640096272852	248.62424322744
1	8939	948122.016957153741	914.87318026997
1	8947	949332.764568382369	1147.9760228739
1	8959	949789.679621043677	275.59661313825
1	9044	953932.336096139606	463.44853283522
1	9062	955193.72028320723	978.12023573374
1	9067	955939.180102910001	1388.7788690955
1	9085	963090.594476469515	8067.4477867033
1	9093	963248.885893992321	5572.0382584753
1	9112	965498.690223278358	6417.2994992697
1	9117	966814.427252483325	3647.9685111932
1	9126	967135.722867755798	3806.4648398873
1	9131	967144.27679680068	3630.6865512645
1	9136	968048.998614854721	1222.9603284502
1	9158	970768.025725793331	569.34831677611
1	9172	971123.695450672123	838.92858802411
1	9180	971282.49591953983	372.81886056756
1	9242	973851.338165797627	583.50611533019
1	9320	978505.740865968012	421.68241801786
1	9328	978539.870468594889	194.45241758687
1	9334	979080.490620495979	547.6367593042
1	9353	980004.911224237122	267.94808147859
1	9358	980290.533963092703	340.08955164958
1	9408	982244.466026671786	218.53271112371
1	9459	985256.604610906763	692.674357457
1	9481	986015.195539693216	122.15121184149
1	9505	986403.126596905994	86.635554803087
1	9513	986750.069469678101	195.84167379897
1	9535	989906.470053514207	1374.2472913007
1	9540	989940.219620754432	1168.8790778669
1	9549	990845.306300929929	1562.5885156691
1	9554	991055.904912240514	1763.480067265
1	9559	991226.110872180424	758.99741497646
1	9574	994051.337765545718	2584.6579176641
1	9592	995967.092597776918	537.46893241534
1	9607	996635.956949604708	1206.2280865154
1	9622	997922.561304732267	1290.9181858162
1	9627	998075.155267666435	1149.9244360133
1	9707	1001013.336111290056	0
1	9725	1003693.268207403494	0
1	9733	1003846.802223244158	0
1	9753	1004911.495026263482	401.15520305392
1	9761	1005347.719959476414	807.48016027088
1	9772	1005934.772638612204	689.2941789982
1	9778	1006648.102142328501	856.14838091322
1	9817	1010065.822058991712	0
1	9826	1012258.126581164803	0
1	9834	1012791.595096661619	0
1	9849	1014489.231202930975	1383.3678319036
1	9861	1015130.035710782369	1734.4651536069
1	9893	1017833.75256409655	0
1	9925	1020475.426006819622	353.87683750831
1	9930	1020633.793861612845	181.52254548453
1	9944	1022143.348993213476	0
1	9955	1022844.366335294931	440.97486868419
1	9985	1024003.010303698592	276.54760804077
1	10010	1025335.744795246812	0
1	10018	1026488.604735245862	0
1	10035	1028035.481018686622	0
1	10061	1031893.520492084662	0
1	10084	1033349.92734261017	315.42357587036
1	10090	1034549.841578741185	1363.0441803303
1	10102	1035524.72087365189	873.67479964068
1	10107	1035997.210104626621	731.43102850945
1	10123	1038965.919893355418	2686.1988030295
1	10131	1039841.48739226958	2988.6844044518
1	10155	1041175.697205196575	1696.3933403738
1	10160	1041690.542739621187	1422.5759068668
1	10168	1042021.7072075404	943.53783551528
1	10234	1046055.78294974261	667.79700283138
1	10239	1046521.181585912833	1122.8178255315
1	10251	1048120.514739724082	2256.5191414307
1	10256	1048477.521939903801	2533.9748004843
1	10268	1049244.352888255077	2544.9787829626
1	10273	1050401.393940847269	1700.9120895699
1	10285	1050908.436848764241	2152.5931186696
1	10300	1053617.975932731675	2077.919939194
1	10316	1056007.957480502075	2412.6556441058
1	10321	1056229.292093528676	2333.2679304469
1	10372	1058555.79503045493	303.87263834061
1	10384	1060427.354524983026	577.24399379186
1	10389	1060605.590864260233	701.08370622232
1	10401	1061218.746410302524	262.14302283365
1	10425	1063000.423186192099	108.42298159708
1	10482	1067979.954609162211	0
1	10509	1071708.948810751106	0
1	10527	1075170.480686477319	0
1	10535	1075548.62464453103	0
1	10547	1076667.933905457354	1002.0676637086
1	10565	1078894.11443838712	2945.763581101
1	10570	1078946.32127413311	1396.1705752227
1	10582	1080196.241730010921	1889.7219254679
1	10597	1082618.092546416621	2249.1880706812
1	10609	1083600.228448921477	2779.4610046598
1	10627	1085865.651666170427	4227.1984593939
1	10632	1086048.387971317046	2874.5323200482
1	10644	1087487.811482276982	3510.5577837299
1	10653	1089298.769064579176	3779.0001485366
1	10661	1089838.130539167167	477.71021993501
1	10725	1092231.631816672482	27.484419594202
1	10748	1092799.321309927084	17.452958493487
1	10771	1096078.565962047284	0
1	10780	1097126.740981325598	0
1	10806	1101069.835206296866	0
1	10814	1101540.714114333501	0
1	10831	1103360.412278081455	0
1	10857	1105700.712343831598	0
1	10866	1107978.763571207002	0
1	10895	1110877.761196427415	59.707405406063
1	10917	1113054.167748271908	0
1	10932	1115123.202262839805	1817.9212920623
1	10937	1115584.248947181736	1655.2504249205
1	10943	1116479.449196369924	2283.3441463134
1	10959	1117663.143256829439	0
1	10971	1118587.040602685621	102.25126996914
1	10996	1120750.849209245151	88.562027359387
1	11008	1122614.914696563092	1815.4681301845
2	1866	200871.598712024626	1
2	1871	200945.175271569382	0
2	1904	203591.245870500725	1
2	1906	203591.245870500725	0
2	1918	204660.624413652133	1
2	1921	205248.319131982426	2
2	1926	205405.230951293338	1
2	1930	206501.61006114899	2
2	1935	206603.045128672275	1
2	1938	206744.173675365201	2
2	1947	207387.502033241724	3
2	1959	208981.539740675393	2
2	1965	209925.128044724354	1
2	1970	209984.875309457244	0
2	2010	211694.554540573701	1
2	2015	211810.3155009785	0
2	2030	213018.949193737715	1
2	2035	214100.13532689072	0
2	2048	217048.769403355796	1
2	2050	217048.769403355796	0
2	2071	219635.299449649547	1
2	2074	219760.695705999785	2
2	2079	220030.516616023104	1
2	2084	220446.937176120751	0
2	2108	223912.879943646562	1
2	2110	223912.879943646562	0
2	2135	228201.044448542782	1
2	2137	228201.044448542782	0
2	2144	230122.49671067322	1
2	2146	230122.49671067322	0
2	2171	236105.15486594377	1
2	2173	236105.15486594377	0
2	2186	239048.005580171887	1
2	2192	240013.219761570547	0
2	2199	242613.937109037982	1
2	2201	242613.937109037982	0
2	2216	244821.558129126002	1
2	2218	244821.558129126002	0
2	2221	244857.871491663607	1
2	2227	245495.235210725512	0
2	2233	246494.232185567707	1
2	2235	246494.232185567707	0
2	2251	248707.200068478119	1
2	2253	248707.200068478119	0
2	2269	252859.644354347912	1
2	2272	252943.490664088523	2
2	2277	253464.989133272538	1
2	2285	253498.949475439608	0
2	2311	255548.111313386136	1
2	2313	255548.111313386136	0
2	2319	257026.52422077899	1
2	2321	257026.52422077899	0
2	2345	259281.688094048152	1
2	2347	259281.688094048152	0
2	2350	259526.975603892785	1
2	2358	259988.476060673467	0
2	2361	260007.997843784798	1
2	2367	261220.159629966958	0
2	2388	264382.384406603923	1
2	2390	264382.384406603923	0
2	2393	264440.579267574555	1
2	2396	264769.214044285953	2
2	2401	264825.744898992264	1
2	2405	265718.587620410176	2
2	2410	266123.622532270411	1
2	2418	266581.015775193662	0
2	2443	267773.984276479225	1
2	2448	267798.472101678182	0
2	2471	269842.125268659602	1
2	2473	269842.125268659602	0
2	2480	271054.944123459334	1
2	2483	271109.25375942153	2
2	2488	271670.380472554889	1
2	2493	271812.913981045573	0
2	2496	272002.437598598532	1
2	2501	272083.157834597928	0
2	2526	273525.370521276992	1
2	2531	273668.56880104312	0
2	2538	274882.540365216258	1
2	2540	274882.540365216258	0
2	2571	276565.996996231864	1
2	2576	276613.802703954812	0
2	2588	279001.768294135481	1
2	2590	279001.768294135481	0
2	2597	280128.032563606035	1
2	2602	280470.921210041973	0
2	2614	281325.992297746407	1
2	2616	281325.992297746407	0
2	2665	287511.000570111105	1
2	2667	287511.000570111105	0
2	2671	288232.553045237026	1
2	2676	289078.364739378792	0
2	2679	289361.867663792617	1
2	2685	290290.386643772578	0
2	2709	293575.657514395999	1
2	2711	293575.657514395999	0
2	2727	297547.82511779635	1
2	2729	297547.82511779635	0
2	2733	298516.23477842283	1
2	2738	299124.037021465712	0
2	2745	300546.290977374827	1
2	2747	300546.290977374827	0
2	2756	300869.040898698362	1
2	2759	301210.918626839235	2
2	2763	302118.098634572906	3
2	2768	302435.121772750186	2
2	2773	302599.635852895787	1
2	2782	304233.350406374628	0
2	2812	305572.485719323219	1
2	2814	305572.485719323219	0
2	2838	308711.494522996879	1
2	2840	308711.494522996879	0
2	2855	310719.517494315671	1
2	2857	310719.517494315671	0
2	2892	319290.015383315419	1
2	2894	319290.015383315419	0
2	2897	319521.724541448334	1
2	2902	319845.449116669139	0
2	2917	321814.658974063735	1
2	2919	321814.658974063735	0
2	2926	322778.253730264358	1
2	2928	322778.253730264358	0
2	2935	324529.829782756262	1
2	2943	324916.738401415715	0
2	2950	326324.369103068141	1
2	2955	326924.325969913375	0
2	2994	329694.856690889776	1
2	2996	329694.856690889776	0
2	2999	330173.999767793038	1
2	3002	330336.885550056793	2
2	3007	330784.289016118767	1
2	3016	331692.691244024972	0
2	3036	333644.943529739623	1
2	3038	333644.943529739623	0
2	3045	335116.047563324492	1
2	3047	335116.047563324492	0
2	3059	336873.600010223346	1
2	3062	336910.533871659729	2
2	3067	337018.881791082064	1
2	3070	337364.569440026505	2
2	3074	338023.084091678368	3
2	3084	341596.210716781072	2
2	3089	342144.201816613212	1
2	3104	343835.378516178044	0
2	3112	344167.771012038886	1
2	3118	344783.043699690187	0
2	3156	346406.509179737411	1
2	3158	346406.509179737411	0
2	3164	347410.186660966957	1
2	3166	347410.186660966957	0
2	3178	348161.995937264318	1
2	3181	348284.698439689478	2
2	3186	348377.121396413156	1
2	3194	349181.919441481193	0
2	3216	353744.72811295332	1
2	3218	353744.72811295332	0
2	3232	354831.909789814373	1
2	3234	354831.909789814373	0
2	3250	358209.298061783782	1
2	3252	358209.298061783782	0
2	3259	358555.205442037351	1
2	3264	358671.465737343055	0
2	3272	359859.457087791219	1
2	3278	360808.1348790488	0
2	3281	361088.89650711022	1
2	3286	361600.704749516377	0
2	3310	365008.310152092896	1
2	3316	365735.878227734749	0
2	3319	366094.413427892421	1
2	3325	367680.400413797052	0
2	3337	368626.511638844505	1
2	3339	368626.511638844505	0
2	3368	372490.936781898978	1
2	3373	372614.177058538147	0
2	3379	372951.665469210425	1
2	3381	372951.665469210425	0
2	3414	378786.528047743875	1
2	3416	378786.528047743875	0
2	3440	381170.830297784413	1
2	3442	381170.830297784413	0
2	3446	382557.870544982312	1
2	3451	382953.383429055905	0
2	3468	387561.5783092189	1
2	3470	387561.5783092189	0
2	3476	387916.81419039253	1
2	3478	387916.81419039253	0
2	3486	391968.532530151958	1
2	3488	391968.532530151958	0
2	3495	392886.677733804842	1
2	3497	392886.677733804842	0
2	3500	393236.514656744716	1
2	3505	393536.172896919144	0
2	3511	394207.312702403557	1
2	3513	394207.312702403557	0
2	3562	398086.709685782372	1
2	3564	398086.709685782372	0
2	3567	398872.183608735334	1
2	3576	399837.457117917359	0
2	3579	400748.748559242527	1
2	3589	402813.150398073997	2
2	3593	403346.985680704199	3
2	3596	403868.009385668556	4
2	3601	403902.455794278	3
2	3607	405538.895525591893	2
2	3611	406326.319944134857	3
2	3614	406618.636834146165	4
2	3619	406791.461973786732	3
2	3626	408482.723277648315	4
2	3631	408876.838966591035	3
2	3634	409436.809049904587	4
2	3642	409570.48046054444	3
2	3646	409837.052370194885	4
2	3651	410191.668077618851	3
2	3659	411129.277636560795	2
2	3664	411145.890614307058	1
2	3668	411694.547720701354	2
2	3676	412721.640066298614	1
2	3682	413322.366931109856	0
2	3740	416553.849902591376	1
2	3746	416872.543291861865	0
2	3749	417541.025032188351	1
2	3752	417701.769207159111	2
2	3761	418631.464501493017	1
2	3764	418805.911977131421	2
2	3778	422386.890715128408	3
2	3785	423531.625738196696	4
2	3790	423668.624109494083	3
2	3793	423720.888581863233	4
2	3796	423989.459052346775	5
2	3801	424406.135630814088	4
2	3806	424541.558385160758	3
2	3811	425079.078417559155	2
2	3817	425497.328169334933	1
2	3826	426220.228564551019	2
2	3832	426925.520778390967	1
2	3841	428587.701008051197	0
2	3852	429474.923038026406	1
2	3857	429683.423298954084	0
2	3894	430355.387203026078	1
2	3899	430368.404460255481	0
2	3942	433211.014307128657	1
2	3947	433447.92474448856	0
2	3967	435003.258596323465	1
2	3969	435003.258596323465	0
2	4000	436262.373346621142	1
2	4002	436262.373346621142	0
2	4009	438592.377118947448	1
2	4011	438592.377118947448	0
2	4017	438835.332488886529	1
2	4019	438835.332488886529	0
2	4028	442869.641688638814	1
2	4030	442869.641688638814	0
2	4054	447074.772197120208	1
2	4056	447074.772197120208	0
2	4060	448051.342616605561	1
2	4066	449312.693128607877	0
2	4069	449345.026170081463	1
2	4072	449345.376709899414	2
2	4080	450118.226955245093	1
2	4083	450209.85094093149	2
2	4091	450439.467909758584	1
2	4095	451816.690834153239	2
2	4098	451819.452287178086	3
2	4106	452553.626933993722	2
2	4112	453153.994563204777	1
2	4118	453851.12947937943	2
2	4127	455041.20371028058	1
2	4132	455142.040040907628	0
2	4136	456725.617798095414	1
2	4141	457186.963640436509	0
2	4158	458041.115981342898	1
2	4163	458089.123813421289	0
2	4188	459647.463430318204	1
2	4193	459662.232430046614	0
2	4196	460291.521423940892	1
2	4201	460490.555351075161	0
2	4226	462287.768460819985	1
2	4238	463572.894552645863	0
2	4241	463632.670730317117	1
2	4244	463777.270773081918	2
2	4249	464350.31597141916	1
2	4258	465364.305957094577	0
2	4273	466965.186704228499	1
2	4278	467390.468000848993	0
2	4329	469715.640946366644	1
2	4332	469776.617067182954	2
2	4337	469907.810274126172	1
2	4342	470036.910371740922	0
2	4365	472918.254351980249	1
2	4367	472918.254351980249	0
2	4374	473685.419293590228	1
2	4376	473685.419293590228	0
2	4391	476559.568808265758	1
2	4393	476559.568808265758	0
2	4408	477560.027490906442	1
2	4410	477560.027490906442	0
2	4423	480089.475489109682	1
2	4428	480461.023758788004	0
2	4442	481633.687403241374	1
2	4444	481633.687403241374	0
2	4467	482789.84893034106	1
2	4469	482789.84893034106	0
2	4472	483313.613386077826	1
2	4476	483528.427455510602	2
2	4481	484378.258399509374	1
2	4484	484538.20133317807	2
2	4490	485307.41129431786	1
2	4495	485508.468348847797	0
2	4527	489445.194642799846	1
2	4529	489445.194642799846	0
2	4562	494487.041923995884	1
2	4564	494487.041923995884	0
2	4571	495753.039659417279	1
2	4573	495753.039659417279	0
2	4579	496272.904030107589	1
2	4581	496272.904030107589	0
2	4584	496326.312630701749	1
2	4590	497048.304373754445	2
2	4594	497632.416013488399	3
2	4597	497948.301408951096	4
2	4603	498659.255114865899	5
2	4607	498870.655390299777	6
2	4610	498947.03733789049	7
2	4616	500958.285176458353	6
2	4621	501640.487988465582	5
2	4630	502309.862494938232	4
2	4635	502926.057674598437	3
2	4645	504535.313128929084	4
2	4648	504583.454371736184	5
2	4653	504644.756923552039	4
2	4661	505247.774232163161	3
2	4673	506881.057464442864	2
2	4682	508624.615012447424	1
2	4687	508702.846890298465	0
2	4707	510641.201540421836	1
2	4716	510875.103411879444	0
2	4719	511072.384521535617	1
2	4724	511104.824772465543	0
2	4766	512638.766852418901	1
2	4771	513201.10416861233	0
2	4817	520830.173263668689	1
2	4819	520830.173263668689	0
2	4827	523620.175482750772	1
2	4829	523620.175482750772	0
2	4842	526761.378267853868	1
2	4847	526811.762052100164	0
2	4873	534713.432356751606	1
2	4875	534713.432356751606	0
2	4890	535935.383056890159	1
2	4892	535935.383056890159	0
2	4899	537661.700999704845	1
2	4901	537661.700999704845	0
2	4916	539187.785997471676	1
2	4918	539187.785997471676	0
2	4922	540680.615604594789	1
2	4931	542368.023720556548	0
2	4939	542613.342572915129	1
2	4944	542991.80407072956	0
2	4956	544132.575692659013	1
2	4961	544789.740208681864	0
2	4967	544874.129302203803	1
2	4972	544950.716129127972	0
2	5010	549703.290115858389	1
2	5012	549703.290115858389	0
2	5020	553471.595370559281	1
2	5022	553471.595370559281	0
2	5030	556559.527675471923	1
2	5032	556559.527675471923	0
2	5036	557463.45874028952	1
2	5039	557921.808173303189	2
2	5047	558434.572825461996	1
2	5060	561670.106257986044	0
2	5101	568841.104765831445	1
2	5103	568841.104765831445	0
2	5106	568907.360408895412	1
2	5111	568929.400655067161	0
2	5118	569882.339946162424	1
2	5120	569882.339946162424	0
2	5137	575121.716298057072	1
2	5139	575121.716298057072	0
2	5151	577122.73212452664	1
2	5156	577421.327227787613	0
2	5160	577954.037349185469	1
2	5165	578061.443785698529	0
2	5188	580172.527241611175	1
2	5190	580172.527241611175	0
2	5193	580671.734132729807	1
2	5197	581170.328090234941	2
2	5202	582316.642165292585	1
2	5210	582720.901336641146	0
2	5222	583706.468960505167	1
2	5224	583706.468960505167	0
2	5230	583809.031623069602	1
2	5235	584414.735948884173	0
2	5242	584933.207002570683	1
2	5250	586194.585732664961	0
2	5305	589057.665808410146	1
2	5307	589057.665808410146	0
2	5313	589409.018101076433	1
2	5315	589409.018101076433	0
2	5318	589670.795972379613	1
2	5322	590337.923867216227	2
2	5327	590966.747478115337	1
2	5333	591491.957410273812	0
2	5336	592452.326552394096	1
2	5339	592706.615759207159	2
2	5342	593096.651800570959	3
2	5355	594917.573610123148	2
2	5360	594933.309092926741	1
2	5363	595102.559570376143	2
2	5367	596849.342482416773	3
2	5372	598209.419545571892	2
2	5383	600490.558527094699	3
2	5391	601071.396466157496	2
2	5396	601309.386397583155	1
2	5405	603131.297660622892	0
2	5451	606419.579656588875	1
2	5456	606438.623023676408	0
2	5471	607243.483051567915	1
2	5476	607479.127057563554	0
2	5497	608550.759491007322	1
2	5503	608686.240334768764	0
2	5523	619947.008930550412	1
2	5525	619947.008930550412	0
2	5540	621814.326149251468	1
2	5542	621814.326149251468	0
2	5559	626746.61341406602	1
2	5561	626746.61341406602	0
2	5573	628913.166607929138	1
2	5579	629359.888475022531	0
2	5582	629753.16650112862	1
2	5585	630150.191286546242	2
2	5589	630923.856540381575	3
2	5592	631673.191549866817	4
2	5597	631772.363489253398	3
2	5603	632648.326481397238	2
2	5608	632721.713203727032	1
2	5613	632787.664897603237	0
2	5616	632957.373560946516	1
2	5619	633199.914322363096	2
2	5632	635201.555616931353	3
2	5637	635299.517818103613	2
2	5644	636532.327512644533	3
2	5657	639695.207598404766	2
2	5664	641781.138944458505	3
2	5669	642244.599385402502	2
2	5673	642876.607454927862	3
2	5678	643611.787428451563	2
2	5683	643757.672489456359	1
2	5688	643827.061897379164	0
2	5693	646876.106715881669	1
2	5698	646911.408521804833	0
2	5701	647311.227980200068	1
2	5710	648156.303963700774	0
2	5733	648679.208027320286	1
2	5738	649233.148868627521	0
2	5741	649363.859460978801	1
2	5746	649408.293644077218	0
2	5749	649535.980402295696	1
2	5755	649765.979912382956	0
2	5758	649947.261243694279	1
2	5776	653109.774914303705	0
2	5780	653445.768918214898	1
2	5785	653508.401568946512	0
2	5788	653514.924798728996	1
2	5793	653662.837658009675	0
2	5796	654001.518396263845	1
2	5801	654836.107836450967	0
2	5877	658436.198682663532	1
2	5880	658677.543333966499	2
2	5885	658798.753888140499	1
2	5893	658992.860093612027	0
2	5936	660508.38732083228	1
2	5947	661104.852880264226	0
2	5972	663211.679435850622	1
2	5974	663211.679435850622	0
2	5981	664424.346017085414	1
2	5983	664424.346017085414	0
2	5987	665342.051061943609	1
2	5992	666404.887314335066	0
2	5998	666673.832988785096	1
2	6000	666673.832988785096	0
2	6007	667215.861963968629	1
2	6012	667537.21585769305	0
2	6032	668635.440413136061	1
2	6034	668635.440413136061	0
2	6057	671539.806010015358	1
2	6059	671539.806010015358	0
2	6092	676514.94374590099	1
2	6094	676514.94374590099	0
2	6097	676711.354606362457	1
2	6102	676886.805871197253	0
2	6105	676970.88305303305	1
2	6111	677251.566910679506	0
2	6117	677928.48633001996	1
2	6120	678018.968427223516	2
2	6125	678271.237873364863	1
2	6134	678778.490953818479	2
2	6140	679806.413236328685	1
2	6143	680468.888873818357	2
2	6147	681584.214905361705	3
2	6154	684293.690912962745	2
2	6157	684732.624146312929	3
2	6160	684879.263741573866	4
2	6165	685297.871666447879	3
2	6169	686338.96578035138	4
2	6180	687249.728978791172	3
2	6188	687361.667337451064	2
2	6192	687953.849555566655	3
2	6195	688673.775528875227	4
2	6202	689334.412394992257	5
2	6207	689934.400519357312	4
2	6212	689979.803027217778	3
2	6218	690722.335632323482	4
2	6224	691278.892332487024	3
2	6232	692353.696594565125	2
2	6239	693213.045269672299	3
2	6242	693255.75353211071	4
2	6245	693535.117784887708	5
2	6248	693911.62475694806	6
2	6253	693917.177972678121	5
2	6262	694434.108517890291	4
2	6265	694665.889329200728	5
2	6273	695108.929464416429	4
2	6282	696245.843861464944	3
2	6287	697116.568214512179	2
2	6292	697146.455420853691	1
2	6301	698084.277640194445	0
2	6385	701217.228802583758	1
2	6388	701384.935678171757	2
2	6393	701476.206574518125	1
2	6399	702597.341700611789	2
2	6405	702944.878880771698	1
2	6410	703116.513529200822	0
2	6420	704760.087644391404	1
2	6426	704838.429828881924	2
2	6431	704843.457852699201	1
2	6434	705942.950743222197	2
2	6446	707639.089980542524	1
2	6452	708183.850236799363	0
2	6460	708585.695881141957	1
2	6465	708710.313309763441	0
2	6511	710733.133904896867	1
2	6514	711066.334920706098	2
2	6519	711192.522085353451	1
2	6523	711534.132059958352	2
2	6528	712214.24041835642	1
2	6533	712942.267958359238	0
2	6553	715360.847048625559	1
2	6558	715389.357451403014	0
2	6607	721704.698321896379	1
2	6609	721704.698321896379	0
2	6615	722422.692926761564	1
2	6617	722422.692926761564	0
2	6638	725383.338675731687	1
2	6643	725713.460167163743	0
2	6669	732850.103979902521	1
2	6671	732850.103979902521	0
2	6687	735520.475226088773	1
2	6689	735520.475226088773	0
2	6695	736521.185054913529	1
2	6697	736521.185054913529	0
2	6705	739340.260528856861	1
2	6707	739340.260528856861	0
2	6713	740160.228492063611	1
2	6717	740817.973289381879	2
2	6720	741157.170250880275	3
2	6723	741590.239100102754	4
2	6728	742259.374447606419	3
2	6734	742746.933604721469	2
2	6747	745425.515325347178	3
2	6753	746647.948097236472	2
2	6758	746854.513892275701	1
2	6766	747193.995423347189	0
2	6773	747617.939675926291	1
2	6778	747765.824468285289	0
2	6830	753275.345469270843	1
2	6838	753500.207299013311	0
2	6858	755311.954912149379	1
2	6860	755311.954912149379	0
2	6867	756418.684969756992	1
2	6869	756418.684969756992	0
2	6875	756827.299072640561	1
2	6877	756827.299072640561	0
2	6900	758478.294163541384	1
2	6902	758478.294163541384	0
2	6905	759247.506838434974	1
2	6911	759560.435822439584	0
2	6914	759650.527237076505	1
2	6923	761597.132113172358	0
2	6934	762681.714079862306	1
2	6936	762681.714079862306	0
2	6939	762811.139214488437	1
2	6943	762915.265505786523	2
2	6948	764349.496967093329	1
2	6960	764909.439857389813	0
2	7012	772110.819604914403	1
2	7014	772110.819604914403	0
2	7017	772571.690242117425	1
2	7020	772636.906320431707	2
2	7025	774965.278957260443	3
2	7028	775170.60854505171	4
2	7033	775491.385236824672	3
2	7040	777555.378529320854	4
2	7045	777576.955230579202	3
2	7050	777633.898215568716	2
2	7055	777774.333514915658	1
2	7058	777943.222687565268	2
2	7063	777952.276896312958	1
2	7068	778026.499960441575	0
2	7080	778697.436768517605	1
2	7085	779183.216975443567	0
2	7126	781588.595052545078	1
2	7131	781599.42493363695	0
2	7138	782575.159650943972	1
2	7140	782575.159650943972	0
2	7163	784893.409265670496	1
2	7165	784893.409265670496	0
2	7169	785174.294956381429	1
2	7174	785232.01995749928	0
2	7177	785284.048166639051	1
2	7182	785354.728001560249	0
2	7197	787615.911865490406	1
2	7205	788532.9178179654	0
2	7232	792255.702974740856	1
2	7234	792255.702974740856	0
2	7245	793497.425788929962	1
2	7250	793644.696285299317	0
2	7253	793671.911294990834	1
2	7257	793879.55523706736	2
2	7263	794312.739011399335	3
2	7268	794677.003424976455	2
2	7273	794876.499290673841	1
2	7276	795136.871341311902	2
2	7281	795366.365523194231	1
2	7287	795705.922906798087	0
2	7298	796838.729664838155	1
2	7300	796838.729664838155	0
2	7346	800902.794671656696	1
2	7351	800927.68090854817	0
2	7375	805564.298337625394	1
2	7377	805564.298337625394	0
2	7381	806912.707757244104	1
2	7386	807104.624233161918	0
2	7393	807481.098304109741	1
2	7398	807888.836260265749	0
2	7409	808992.660663041453	1
2	7411	808992.660663041453	0
2	7415	809184.409200023056	1
2	7423	809758.826008273446	0
2	7451	812376.036642768459	1
2	7453	812376.036642768459	0
2	7465	813377.643893732222	1
2	7470	813479.974190772146	0
2	7473	813930.56596776305	1
2	7479	814312.558430797861	0
2	7482	814373.509277481018	1
2	7487	815099.213607433223	0
2	7494	816020.711068310379	1
2	7496	816020.711068310379	0
2	7519	818775.676184631028	1
2	7521	818775.676184631028	0
2	7536	819897.288062797146	1
2	7538	819897.288062797146	0
2	7558	821529.93485076705	1
2	7563	821596.744304994103	0
2	7578	823190.419803884887	1
2	7580	823190.419803884887	0
2	7591	823760.591916430577	1
2	7594	824005.560497496822	2
2	7599	824243.814872015978	1
2	7604	824269.339418839261	0
2	7611	825631.813397972643	1
2	7613	825631.813397972643	0
2	7636	827196.243008548943	1
2	7638	827196.243008548943	0
2	7653	828662.031429841557	1
2	7658	828893.357937385362	0
2	7661	829090.213244275906	1
2	7667	830973.588640487983	0
2	7677	832401.080846324678	1
2	7685	833076.248352983307	0
2	7695	834386.416392974294	1
2	7700	834603.02848582345	0
2	7724	835531.114683962934	1
2	7729	835707.642891502913	0
2	7755	839209.080491240792	1
2	7757	839209.080491240792	0
2	7764	841586.956184299767	1
2	7770	841747.446272535506	0
2	7776	842016.456747446387	1
2	7781	842297.557768763706	0
2	7811	844734.880236317919	1
2	7817	845338.455842124877	0
2	7824	848426.119328811232	1
2	7826	848426.119328811232	0
2	7830	849501.547367418122	1
2	7833	849754.06972001638	2
2	7839	851394.775058773555	1
2	7848	853132.113520410812	0
2	7851	853285.536336921346	1
2	7855	854156.436566408469	2
2	7863	855065.014262766305	1
2	7866	855109.392421520248	2
2	7871	855162.546866107902	1
2	7880	855516.172092703979	0
2	7888	855733.513151504816	1
2	7896	856216.568555875073	0
2	7943	860075.559269698583	1
2	7945	860075.559269698583	0
2	7952	861869.720192056703	1
2	7954	861869.720192056703	0
2	7957	861962.549741479336	1
2	7963	862308.597663909485	0
2	7969	863257.580419125917	1
2	7971	863257.580419125917	0
2	7994	865377.945079640339	1
2	7996	865377.945079640339	0
2	8002	865432.577026450939	1
2	8008	866118.976681603732	0
2	8018	868367.622700306259	1
2	8023	868553.273190285852	0
2	8071	873085.400571518975	1
2	8073	873085.400571518975	0
2	8079	873636.588895154899	1
2	8081	873636.588895154899	0
2	8088	874757.483194145767	1
2	8090	874757.483194145767	0
2	8093	875105.758632940792	1
2	8099	875928.494028889226	2
2	8103	876120.176700803662	3
2	8106	876595.177496269513	4
2	8109	877411.148736616616	5
2	8114	877491.062830068123	4
2	8117	877635.102274424073	5
2	8128	880328.784662547993	6
2	8133	880491.379896110156	5
2	8137	881450.067544552034	6
2	8140	881654.758729885575	7
2	8145	882025.353864829679	6
2	8153	882715.568817731612	5
2	8162	883305.754320465091	4
2	8168	884053.510334320691	5
2	8173	884426.56902742102	4
2	8185	885928.249029088872	3
2	8197	886968.189312075402	2
2	8200	887707.620178363654	3
2	8203	887727.233707003172	4
2	8208	887890.162497901339	3
2	8214	888149.679409176786	2
2	8219	888426.093369328582	1
2	8224	888529.885961691948	0
2	8240	888990.247250258477	1
2	8248	889452.143880728692	0
2	8308	890998.577412600573	1
2	8313	891067.5210302487	0
2	8317	891769.908500710882	1
2	8320	892793.843535981728	2
2	8326	893264.585626175596	1
2	8332	893585.024790316148	2
2	8337	894117.760901497724	1
2	8342	894237.873564067961	0
2	8345	894371.621876638969	1
2	8350	894512.587190157321	0
2	8388	896425.917005316516	1
2	8390	896425.917005316516	0
2	8410	897719.320462676318	1
2	8415	897877.08680005271	0
2	8422	898660.443528699273	1
2	8424	898660.443528699273	0
2	8436	901177.313932723927	1
2	8441	901235.915990001886	0
2	8456	903293.868999560814	1
2	8458	903293.868999560814	0
2	8470	904317.908315622455	1
2	8475	904434.489200828705	0
2	8498	906238.278842964673	1
2	8503	906252.873279784041	0
2	8515	907298.529887988699	1
2	8520	907533.782613404014	0
2	8526	907904.471558424061	1
2	8532	908185.518364433392	2
2	8538	908715.721722006028	1
2	8541	909646.924076904594	2
2	8550	911677.859448353854	1
2	8555	914322.402398633984	2
2	8558	914674.508891252945	3
2	8566	914844.686391779448	2
2	8574	915283.865007689453	1
2	8579	915357.951070830635	0
2	8586	915635.741311980704	1
2	8589	915700.66619816473	2
2	8592	915708.516034044812	3
2	8598	916006.415533890272	4
2	8604	917839.337541838516	3
2	8609	918099.427710524639	2
2	8615	918632.136771739503	3
2	8622	919366.503657479573	4
2	8625	920002.677441564923	5
2	8629	921199.566067771267	6
2	8634	921470.889189484692	5
2	8639	921723.090995241956	4
2	8646	922593.68060220844	5
2	8651	922847.986428704068	4
2	8654	923791.874791017899	5
2	8662	923940.400239961011	4
2	8668	924469.197746336756	3
2	8676	924730.623570437575	2
2	8681	924908.207664659225	1
2	8684	924943.865856603593	2
2	8700	927652.899996696319	1
2	8708	928600.246984836123	0
2	8715	929520.268646624765	1
2	8721	929986.990301632424	2
2	8724	930394.293832240192	3
2	8729	930502.052397613672	2
2	8734	930718.259377188595	1
2	8747	932782.127025015112	0
2	8750	932879.521029539233	1
2	8753	933074.223986333594	2
2	8758	933972.169577275633	1
2	8761	934141.416701908647	2
2	8767	934355.942420360788	1
2	8770	934450.81900126946	2
2	8773	934829.749279485268	3
2	8781	935210.92839996685	2
2	8786	935451.516006476143	1
2	8791	935731.330057142172	0
2	8798	937364.67493306835	1
2	8811	939635.169081890932	0
2	8814	940497.425698465533	1
2	8817	940617.051271573259	2
2	8824	941517.318188350406	3
2	8830	942027.347500055592	4
2	8835	942092.658663335097	3
2	8841	943150.96427429042	2
2	8844	943167.738347133613	3
2	8855	943853.621885438933	2
2	8860	943862.688785980205	1
2	8865	944020.025376688683	0
2	8868	944113.496956169579	1
2	8873	944179.469231080853	0
2	8922	947163.015853045415	1
2	8925	947207.143776883776	2
2	8930	947411.640096272852	1
2	8939	948122.016957153741	0
2	8942	948184.788545508503	1
2	8947	949332.764568382369	0
2	8950	949514.083007905429	1
2	8959	949789.679621043677	0
2	9036	953468.887563304382	1
2	9044	953932.336096139606	0
2	9050	954215.600047473486	1
2	9053	954550.40123381446	2
2	9057	955023.14668976619	3
2	9062	955193.72028320723	2
2	9067	955939.180102910001	1
2	9071	957676.847635517048	2
2	9078	959081.390724008647	3
2	9085	963090.594476469515	2
2	9088	963166.458741290088	3
2	9093	963248.885893992321	2
2	9096	963329.258027868458	3
2	9100	963513.590245536195	4
2	9112	965498.690223278358	3
2	9117	966814.427252483325	2
2	9120	966826.038286404541	3
2	9126	967135.722867755798	2
2	9131	967144.27679680068	1
2	9136	968048.998614854721	0
2	9143	970198.677409017222	1
2	9147	970284.766862648018	2
2	9158	970768.025725793331	1
2	9164	970909.677058972266	2
2	9172	971123.695450672123	1
2	9180	971282.49591953983	0
2	9233	973267.832050467433	1
2	9242	973851.338165797627	0
2	9312	978084.058447950149	1
2	9315	978345.418051008016	2
2	9320	978505.740865968012	1
2	9323	978532.853861191777	2
2	9328	978539.870468594889	1
2	9334	979080.490620495979	0
2	9342	979736.963142758532	1
2	9348	979950.444411443127	2
2	9353	980004.911224237122	1
2	9358	980290.533963092703	0
2	9400	982025.933315548075	1
2	9408	982244.466026671786	0
2	9454	984563.930253449762	1
2	9459	985256.604610906763	0
2	9476	985893.044327851723	1
2	9481	986015.195539693216	0
2	9497	986316.491042102907	1
2	9505	986403.126596905994	0
2	9508	986554.227795879127	1
2	9513	986750.069469678101	0
2	9520	988532.222762213473	1
2	9523	988771.340542887554	2
2	9527	989282.717785260822	3
2	9530	989292.424844975491	4
2	9535	989906.470053514207	3
2	9540	989940.219620754432	2
2	9543	990467.113457203959	3
2	9549	990845.306300929929	2
2	9554	991055.904912240514	1
2	9559	991226.110872180424	0
2	9562	991466.679847881645	1
2	9574	994051.337765545718	0
2	9584	995429.623665361576	1
2	9587	995429.728863089273	2
2	9592	995967.092597776918	1
2	9602	996631.643118916082	2
2	9607	996635.956949604708	1
2	9616	996925.230831653169	2
2	9622	997922.561304732267	1
2	9627	998075.155267666435	0
2	9705	1001013.336111290056	1
2	9707	1001013.336111290056	0
2	9723	1003693.268207403494	1
2	9725	1003693.268207403494	0
2	9731	1003846.802223244158	1
2	9733	1003846.802223244158	0
2	9744	1004510.339823209565	1
2	9747	1004540.239799205531	2
2	9753	1004911.495026263482	1
2	9756	1005245.478459614006	2
2	9761	1005347.719959476414	1
2	9767	1005791.953761415285	2
2	9772	1005934.772638612204	1
2	9778	1006648.102142328501	0
2	9815	1010065.822058991712	1
2	9817	1010065.822058991712	0
2	9824	1012258.126581164803	1
2	9826	1012258.126581164803	0
2	9832	1012791.595096661619	1
2	9834	1012791.595096661619	0
2	9837	1013105.863371027384	1
2	9841	1013395.570557175465	2
2	9849	1014489.231202930975	1
2	9861	1015130.035710782369	0
2	9891	1017833.75256409655	1
2	9893	1017833.75256409655	0
2	9917	1020121.549169311309	1
2	9920	1020452.271316128318	2
2	9925	1020475.426006819622	1
2	9930	1020633.793861612845	0
2	9942	1022143.348993213476	1
2	9944	1022143.348993213476	0
2	9947	1022403.391466610743	1
2	9955	1022844.366335294931	0
2	9980	1023726.462695657818	1
2	9985	1024003.010303698592	0
2	10008	1025335.744795246812	1
2	10010	1025335.744795246812	0
2	10016	1026488.604735245862	1
2	10018	1026488.604735245862	0
2	10033	1028035.481018686622	1
2	10035	1028035.481018686622	0
2	10059	1031893.520492084662	1
2	10061	1031893.520492084662	0
2	10076	1033034.503766739813	1
2	10079	1033186.797398410907	2
2	10084	1033349.92734261017	1
2	10090	1034549.841578741185	0
2	10093	1034651.046074011209	1
2	10096	1035265.779076117176	2
2	10102	1035524.72087365189	1
2	10107	1035997.210104626621	0
2	10113	1036279.721090325891	1
2	10116	1036852.80298781775	2
2	10123	1038965.919893355418	1
2	10126	1039479.303864822768	2
2	10131	1039841.48739226958	1
2	10143	1040267.966832754347	2
2	10150	1041078.169372025117	3
2	10155	1041175.697205196575	2
2	10160	1041690.542739621187	1
2	10168	1042021.7072075404	0
2	10219	1045387.985946911227	1
2	10222	1045398.3637603813	2
2	10226	1045863.995598293385	3
2	10229	1045943.547139419511	4
2	10234	1046055.78294974261	3
2	10239	1046521.181585912833	2
2	10242	1046699.374105292427	3
2	10251	1048120.514739724082	2
2	10256	1048477.521939903801	1
2	10259	1048700.481851277349	2
2	10262	1048755.843730094629	3
2	10268	1049244.352888255077	2
2	10273	1050401.393940847269	1
2	10285	1050908.436848764241	0
2	10288	1051540.055993537652	1
2	10295	1053595.301836396281	2
2	10300	1053617.975932731675	1
2	10303	1053896.024163081784	2
2	10316	1056007.957480502075	1
2	10321	1056229.292093528676	0
2	10367	1058251.92239211432	1
2	10372	1058555.79503045493	0
2	10376	1059850.110531191166	1
2	10379	1059904.50715803791	2
2	10384	1060427.354524983026	1
2	10389	1060605.590864260233	0
2	10395	1060956.603387468869	1
2	10401	1061218.746410302524	0
2	10420	1062892.000204595021	1
2	10425	1063000.423186192099	0
2	10480	1067979.954609162211	1
2	10482	1067979.954609162211	0
2	10507	1071708.948810751106	1
2	10509	1071708.948810751106	0
2	10525	1075170.480686477319	1
2	10527	1075170.480686477319	0
2	10533	1075548.62464453103	1
2	10535	1075548.62464453103	0
2	10538	1075665.86624174871	1
2	10541	1075948.350857286119	2
2	10547	1076667.933905457354	1
2	10553	1077550.150698910383	2
2	10560	1078306.519804542992	3
2	10565	1078894.11443838712	2
2	10570	1078946.32127413311	1
2	10582	1080196.241730010921	0
2	10585	1080368.904475735402	1
2	10588	1080820.767444261711	2
2	10591	1081638.45320677657	3
2	10597	1082618.092546416621	2
2	10603	1083173.855651268821	3
2	10609	1083600.228448921477	2
2	10612	1083977.253698547099	3
2	10622	1085519.76891604254	4
2	10627	1085865.651666170427	3
2	10632	1086048.387971317046	2
2	10644	1087487.811482276982	1
2	10653	1089298.769064579176	0
2	10656	1089360.420319232162	1
2	10661	1089838.130539167167	0
2	10720	1092204.14739707828	1
2	10725	1092231.631816672482	0
2	10743	1092781.868351433597	1
2	10748	1092799.321309927084	0
2	10769	1096078.565962047284	1
2	10771	1096078.565962047284	0
2	10778	1097126.740981325598	1
2	10780	1097126.740981325598	0
2	10804	1101069.835206296866	1
2	10806	1101069.835206296866	0
2	10812	1101540.714114333501	1
2	10814	1101540.714114333501	0
2	10829	1103360.412278081455	1
2	10831	1103360.412278081455	0
2	10855	1105700.712343831598	1
2	10857	1105700.712343831598	0
2	10864	1107978.763571207002	1
2	10866	1107978.763571207002	0
2	10889	1110818.053791021352	1
2	10895	1110877.761196427415	0
2	10915	1113054.167748271908	1
2	10917	1113054.167748271908	0
2	10920	1113305.280970777521	1
2	10923	1113928.998522261232	2
2	10926	1114196.105050056568	3
2	10932	1115123.202262839805	2
2	10937	1115584.248947181736	1
2	10943	1116479.449196369924	0
2	10957	1117663.143256829439	1
2	10959	1117663.143256829439	0
2	10966	1118484.789332716485	1
2	10971	1118587.040602685621	0
2	10991	1120662.287181885764	1
2	10996	1120750.849209245151	0
2	10999	1120799.446566378555	1
2	11008	1122614.914696563092	0
3	1882	201416.230006953678	6273.406733368
3	1887	202158.356643871702	3087.1379545204
3	1892	202241.951507498793	1052.4113790249
3	1898	202350.00329540109	1019.4327424964
3	1915	204286.253150932179	0
3	1975	210483.472772991669	3470.7964561222
3	1986	210650.129686801493	3535.9528701967
3	1991	210664.964942189228	2313.4448565965
3	1996	210815.381108194916	2371.9288495551
3	2002	211365.025121986472	868.48315997772
3	2007	211495.790035762928	860.53112905901
3	2024	212986.119554981482	0
3	2041	215053.511494292362	2050.3682182592
3	2058	217311.400094361451	231.13740047178
3	2067	219007.422834694172	0
3	2093	221277.237106411369	290.6182041846
3	2101	222522.366240327195	208.15428395182
3	2119	225240.256176212954	0
3	2128	226569.812313184191	0
3	2155	232032.196776138613	0
3	2163	232352.284928347296	0
3	2183	238730.668709714575	0
3	2209	242650.818019086504	15.82549840041
3	2244	247997.589954102833	221.27909982604
3	2266	252329.022011847013	2035.1145470457
3	2293	253687.690390482758	2996.2652301172
3	2299	254006.042372830687	517.84323518151
3	2304	254279.033429000268	632.30297694155
3	2330	257983.934485762895	0
3	2338	258811.113672958036	0
3	2372	262029.150187195797	2344.5869267113
3	2381	263170.638439115762	0
3	2423	267083.382980562081	764.93622679374
3	2432	267518.710120723834	0
3	2440	267748.63032685813	41.814649700879
3	2456	268232.917988685377	0
3	2464	268834.880881062756	182.53878622451
3	2507	272895.235898872118	2632.6047725405
3	2515	273054.195216425011	68.956842931454
3	2523	273405.830737856319	0
3	2548	275016.97495981333	20.902514538585
3	2557	276224.283493717826	0
3	2568	276539.696620302246	261.22982949174
3	2581	277641.605302626046	1239.5550862309
3	2607	281117.357390655642	1827.1200753603
3	2627	282360.905341325579	1007.6015149965
3	2635	282809.967492174226	550.78764481261
3	2641	283321.403125053021	607.68251423944
3	2650	284935.789532568845	0
3	2658	285886.56110306696	288.38365521797
3	2693	290770.863112334978	60.359005792811
3	2701	291252.057840991273	457.99876916891
3	2719	293924.486661780332	0
3	2787	304554.409020271264	3862.8621334619
3	2792	304582.329704150915	3804.6874212664
3	2800	304882.759313610739	1834.3170519297
3	2805	304898.94237484065	64.9729038845
3	2822	305897.487108275906	0
3	2830	306446.588327324508	460.07018983915
3	2849	310400.217692189834	0
3	2865	311098.271085330809	0
3	2873	311533.631930840588	0
3	2884	316554.850616013481	0
3	2911	320690.595977184299	0
3	2964	327601.094435322246	4441.8721462842
3	2969	327640.49496906408	2758.0451247519
3	2974	327753.814062346895	1708.6319399927
3	2982	328192.915638538378	819.04007608131
3	2987	328288.99790298989	452.87018390165
3	3021	332295.442313188445	1010.7147027353
3	3030	333396.204733286141	0
3	3056	336846.292824177548	0
3	3109	344149.367519156652	5960.8196703467
3	3123	345161.822964541291	2987.2296319366
3	3128	345300.653106014288	3020.0024924785
[...]
7	5248	586194.585732664961	3
7	5253	586361.292010994594	2
7	5257	586445.70950891495	3
7	5261	586562.113455825784	2
7	5264	586634.086396612268	1
7	5282	587131.226120732231	0
7	5310	589375.486016863853	1
7	5325	590966.747478115337	2
7	5331	591491.957410273812	3
7	5345	593195.439363138508	2
7	5348	593579.580229042017	1
7	5353	594917.573610123148	2
7	5358	594933.309092926741	3
7	5370	598209.419545571892	4
7	5375	598301.376728493061	3
7	5378	598893.158237710723	2
7	5385	600840.633525476326	1
7	5389	601071.396466157496	2
7	5394	601309.386397583155	3
7	5399	602244.907950551138	2
7	5403	603131.297660622892	3
7	5407	603402.106974215186	2
7	5412	603651.872853266043	3
7	5421	603833.858805558853	2
7	5459	606724.198238162832	3
7	5464	607203.944817582209	2
7	5467	607228.623553510763	1
7	5479	607881.525665909806	2
7	5488	608067.074279257359	1
7	5506	608751.243541496725	2
7	5508	609322.647112441498	1
7	5528	619993.532433648553	2
7	5530	620478.559869034387	1
7	5546	623314.647929034729	2
7	5548	623619.994381566693	1
7	5563	627325.596728908467	0
7	5568	628680.918539471571	1
7	5595	631772.363489253398	2
7	5601	632648.326481397238	3
7	5606	632721.713203727032	4
7	5611	632787.664897603237	5
7	5621	633316.133264078346	4
7	5624	633747.58170461657	3
7	5628	635154.863548519971	2
7	5635	635299.517818103613	3
7	5639	635834.238862743322	2
7	5646	636813.778545367113	1
7	5649	636857.946520432454	0
7	5655	639695.207598404766	1
7	5659	639890.883121760588	0
7	5667	642244.599385402502	1
7	5676	643611.787428451563	2
7	5681	643757.672489456359	3
7	5686	643827.061897379164	4
7	5696	646911.408521804833	5
7	5703	647333.437699183375	4
7	5708	648156.303963700774	5
7	5713	648195.935985671845	6
7	5744	649408.293644077218	7
7	5753	649765.979912382956	8
7	5760	650599.594284683965	7
7	5763	651208.637217210912	6
7	5766	651345.217303355876	5
7	5770	651849.515025044842	4
7	5774	653109.774914303705	5
7	5783	653508.401568946512	6
7	5791	653662.837658009675	7
7	5799	654836.107836450967	8
7	5804	654891.257499409831	7
7	5807	655060.874421457563	6
7	5811	655070.407321839849	7
7	5835	655937.316513097987	6
7	5838	656026.601733837471	5
7	5846	656424.535441651727	4
7	5887	658800.78752491069	3
7	5891	658992.860093612027	4
7	5895	659210.096900497302	3
7	5899	659243.954218417453	4
7	5908	659603.680606376459	3
7	5930	660472.120582627263	2
7	5938	660551.10934396963	1
7	5941	661052.31743521287	0
7	5951	662767.612587830292	1
7	5955	662804.597011710389	0
7	5978	664326.401231705189	1
7	5990	666404.887314335066	2
7	5995	666586.72850396526	3
7	6003	667131.056831656502	2
7	6010	667537.21585769305	3
7	6015	667559.276783210546	4
7	6023	668565.050465509257	3
7	6036	669714.499144675671	2
7	6040	669910.834109573198	3
7	6048	670368.502478262072	2
7	6063	672472.155706284336	3
7	6065	672788.26420491581	2
7	6073	673571.81557932503	1
7	6078	673579.329750789924	0
7	6100	676886.805871197253	1
7	6109	677251.566910679506	2
7	6113	677751.342274719668	1
7	6123	678271.237873364863	2
7	6127	678413.158461569247	1
7	6130	678544.482999043419	0
7	6138	679806.413236328685	1
7	6152	684293.690912962745	2
7	6163	685297.871666447879	3
7	6171	686500.099221007452	2
7	6174	686925.039651007609	1
7	6178	687249.728978791172	2
7	6182	687354.197168292325	1
7	6186	687361.667337451064	2
7	6198	689265.983377746432	1
7	6205	689934.400519357312	2
7	6210	689979.803027217778	3
7	6214	690205.300083325502	2
7	6222	691278.892332487024	3
7	6226	691853.473540164473	2
7	6230	692353.696594565125	3
7	6235	692598.091445353057	2
7	6251	693917.177972678121	3
7	6255	694051.042331269493	2
7	6260	694434.108517890291	3
7	6267	695037.955700754915	2
7	6271	695108.929464416429	3
7	6275	695756.174434473588	2
7	6280	696245.843861464944	3
7	6285	697116.568214512179	4
7	6290	697146.455420853691	5
7	6294	697281.885705413273	4
7	6299	698084.277640194445	5
7	6304	698241.15076016077	6
7	6308	698513.985174333678	5
7	6326	699307.472258898413	4
7	6355	699985.462681374163	3
7	6395	702561.444131560873	2
7	6403	702944.878880771698	3
7	6408	703116.513529200822	4
7	6412	703333.811875356448	3
7	6416	704570.624383357358	2
7	6422	704776.370130445683	1
7	6429	704843.457852699201	2
7	6436	706056.491741815839	1
7	6440	707374.81148318182	0
7	6444	707639.089980542524	1
7	6450	708183.850236799363	2
7	6455	708467.737893582357	3
7	6467	708882.391093540405	2
7	6470	709194.992509535365	1
7	6473	709398.980258573085	0
7	6477	709629.944241312541	1
7	6492	710154.839331548097	0
7	6526	712214.24041835642	1
7	6531	712942.267958359238	2
7	6537	714432.698627828507	3
7	6561	715811.694811040234	4
7	6565	715913.783487706513	3
7	6586	716370.948268997094	2
7	6595	718244.518066298188	1
7	6612	721716.789373226988	2
7	6620	722704.50528243563	3
7	6623	724949.416209549025	2
7	6632	725176.396406140011	1
7	6646	725765.012360165676	2
7	6648	725935.003061434861	1
7	6659	731640.071405164588	0
7	6674	733139.389917886488	1
7	6676	733329.718840109655	0
7	6692	735975.520546880581	1
7	6701	738032.073778636474	2
7	6709	739636.176517052262	1
7	6726	742259.374447606419	2
7	6732	742746.933604721469	3
7	6736	742972.594284417291	2
7	6739	743064.08087222768	1
7	6742	743354.466432248241	0
7	6751	746647.948097236472	1
7	6756	746854.513892275701	2
7	6760	746977.857577737081	1
7	6764	747193.995423347189	2
7	6768	747200.168642249373	1
7	6776	747765.824468285289	2
7	6782	749416.913667045134	3
7	6802	750850.365317801264	2
7	6824	753076.275401173411	1
7	6832	753465.963828703058	0
7	6842	754411.113384523523	1
7	6849	754747.776914505584	0
7	6863	755883.282499169383	1
7	6872	756592.865539018618	2
7	6879	756986.90517075702	1
7	6883	757266.387734031397	2
7	6891	757860.643799420956	1
7	6909	759560.435822439584	2
7	6916	760038.698496949972	1
7	6921	761597.132113172358	2
7	6926	762233.467326742363	3
7	6946	764349.496967093329	4
7	6951	764614.683619825208	3
7	6954	764856.654955620474	2
7	6958	764909.439857389813	3
7	6962	765070.123533518547	2
7	6966	765250.54452347279	3
7	6975	765550.40656819927	2
7	6991	766253.096734775362	1
7	7001	768819.628397013127	0
7	7031	775491.385236824672	1
7	7036	777455.923083480428	0
7	7043	777576.955230579202	1
7	7048	777633.898215568716	2
7	7053	777774.333514915658	3
7	7061	777952.276896312958	4
7	7066	778026.499960441575	5
7	7071	778421.149241587572	4
7	7075	778602.20999585436	5
7	7088	779348.786899217579	6
7	7095	779648.595485809697	5
7	7104	780684.707546239157	4
7	7112	780788.280616455307	3
7	7117	780887.288590911395	2
7	7135	782046.882169076817	3
7	7142	782957.401084902944	2
7	7146	783424.906301342431	1
7	7150	784039.460398552911	2
7	7172	785232.01995749928	3
7	7180	785354.728001560249	4
7	7185	785886.220261515858	5
7	7188	787403.327935242254	4
7	7193	787484.648640059392	3
7	7199	788240.415477854521	2
7	7208	788804.554324474873	1
7	7212	788981.751566742835	2
7	7237	792966.040169750167	3
7	7239	793472.857440203056	2
7	7259	794169.895643651557	1
7	7266	794677.003424976455	2
7	7271	794876.499290673841	3
7	7279	795366.365523194231	4
7	7285	795705.922906798087	5
7	7290	796184.805070824286	6
7	7303	797063.374595254419	7
7	7305	797104.864809877359	6
7	7314	797893.251295697131	5
7	7323	798878.663554425904	4
7	7331	799479.181298732905	3
7	7340	800671.623453672829	2
7	7354	800970.075311345948	3
7	7356	801859.164685836593	2
7	7365	803026.792075819568	1
7	7384	807104.624233161918	2
7	7388	807110.678258644433	1
7	7396	807888.836260265749	2
7	7401	808249.303955426406	3
7	7417	809491.294728160384	2
7	7421	809758.826008273446	3
7	7425	809826.644384343114	2
7	7429	809896.311233438774	3
7	7441	810262.22142949378	2
7	7457	812694.547189589844	3
7	7459	813044.440555775145	2
7	7477	814312.558430797861	3
7	7485	815099.213607433223	4
7	7490	815748.848769229157	5
7	7498	816036.884785239559	4
7	7502	817095.167757539105	5
7	7509	817424.402056947895	4
7	7524	819570.868090434966	3
7	7528	819684.969621091406	4
7	7540	820580.091770849529	3
7	7544	820800.704822790099	4
7	7549	821186.913950574973	3
7	7566	821749.593188026483	4
7	7568	822688.378025768969	3
7	7583	823737.581637264223	4
7	7585	823747.646734127375	3
7	7602	824269.339418839261	4
7	7608	825561.427904789175	5
7	7615	825735.135650827018	4
7	7619	825795.59420785972	5
7	7623	826147.242784017328	4
7	7640	827291.202410791256	3
7	7644	828349.829989019329	2
7	7648	828652.091297155331	3
7	7665	830973.588640487983	4
7	7670	831579.05579710801	3
7	7673	832092.96410596402	2
7	7679	832437.017831519351	1
7	7683	833076.248352983307	2
7	7688	833170.252085444424	1
7	7691	833271.132142609995	0
7	7698	834603.02848582345	1
7	7703	834687.774070877046	2
7	7732	836156.863829790129	3
7	7745	838075.495710335726	2
7	7760	840387.000945026639	1
7	7768	841747.446272535506	2
7	7772	841840.489994334147	1
7	7779	842297.557768763706	2
7	7783	843287.779804622592	1
7	7787	843411.527976448178	2
7	7805	844675.95085509536	1
7	7820	845556.971193283877	2
7	7837	851394.775058773555	3
7	7842	853070.47347380942	2
7	7846	853132.113520410812	3
7	7857	854563.412390552247	2
7	7861	855065.014262766305	3
7	7869	855162.546866107902	4
7	7873	855284.521880502326	3
7	7878	855516.172092703979	4
7	7883	855597.784751135836	5
7	7890	855832.924760865278	4
7	7899	856476.051905389172	5
7	7908	856734.853594802843	4
7	7912	857285.870229782364	3
7	7933	858302.719798780591	2
7	7949	861721.34439679087	3
7	7961	862308.597663909485	4
7	7966	862349.369815912426	5
7	7974	863445.686342558425	6
7	7976	863776.904970883585	5
7	7981	863806.083074690705	4
7	7998	865418.70458915606	3
7	8006	866118.976681603732	4
7	8010	866177.819326703755	3
7	8014	868315.472409491918	2
7	8021	868553.273190285852	3
7	8026	868602.45701344836	4
7	8030	868795.91812436769	3
7	8053	870933.151191870901	2
7	8061	871989.810455522178	1
7	8076	873188.15972081668	2
7	8084	874103.501821643132	3
7	8095	875803.238765185201	2
7	8112	877491.062830068123	3
7	8120	878530.396867179014	2
7	8123	878970.211547113448	1
7	8131	880491.379896110156	2
7	8143	882025.353864829679	3
7	8147	882051.815097438573	2
7	8151	882715.568817731612	3
7	8155	882723.470462271222	2
7	8160	883305.754320465091	3
7	8164	883360.085937509998	2
7	8171	884426.56902742102	3
7	8176	884827.038707730226	2
7	8179	885444.835634204026	1
7	8183	885928.249029088872	2
7	8187	886114.135558364402	1
7	8191	886451.469926970339	0
7	8195	886968.189312075402	1
7	8206	887890.162497901339	2
7	8212	888149.679409176786	3
7	8217	888426.093369328582	4
7	8222	888529.885961691948	5
7	8227	888531.237124639363	6
7	8231	888619.410503599897	5
7	8242	889259.832500451989	4
7	8251	889454.258653895039	5
7	8255	889473.748348769196	4
7	8264	889854.052143119219	3
7	8324	893264.585626175596	4
7	8328	893483.93195346645	3
7	8335	894117.760901497724	4
7	8340	894237.873564067961	5
7	8348	894512.587190157321	6
7	8353	895028.788108757698	5
7	8356	895349.507814780053	4
7	8360	895660.455865795916	5
7	8394	896712.027505334319	6
7	8396	897187.960902400075	5
7	8401	897242.525758771152	4
7	8418	897936.77835680386	5
7	8427	899974.196578601339	6
7	8430	900114.195572539919	5
7	8444	901358.621197572381	6
7	8447	901873.611693731586	5
7	8461	903329.608386403592	6
7	8464	904215.303877675111	5
7	8478	904609.788490882887	6
7	8480	904936.762102065455	5
7	8489	905370.425278587755	4
7	8494	905409.396970485	3
7	8505	906740.617540598119	2
7	8510	907214.321610144442	3
7	8522	907805.289035463718	2
7	8528	908015.732153725519	1
7	8536	908715.721722006028	2
7	8544	910417.004794993682	1
7	8548	911677.859448353854	2
7	8560	914842.108575868421	1
7	8564	914844.686391779448	2
7	8568	915221.532739714783	1
7	8572	915283.865007689453	2
7	8577	915357.951070830635	3
7	8581	915398.711334522902	2
7	8594	915773.627131106917	1
7	8602	917839.337541838516	2
7	8607	918099.427710524639	3
7	8611	918343.784228194671	2
7	8617	918693.436057023647	1
7	8632	921470.889189484692	2
7	8637	921723.090995241956	3
7	8641	922057.457338841718	2
7	8649	922847.986428704068	3
7	8656	923855.944450215819	2
7	8660	923940.400239961011	3
7	8666	924469.197746336756	4
7	8670	924632.961294937159	3
7	8674	924730.623570437575	4
7	8679	924908.207664659225	5
7	8687	925773.901518701579	4
7	8690	926231.124347299402	3
7	8693	926402.376749180965	2
7	8698	927652.899996696319	3
7	8702	928530.380127241856	2
7	8706	928600.246984836123	3
7	8711	929275.705735939983	2
7	8717	929613.456072297508	1
7	8727	930502.052397613672	2
7	8732	930718.259377188595	3
7	8737	930926.576028723567	2
7	8740	931220.015976243496	1
7	8745	932782.127025015112	2
7	8756	933972.169577275633	3
7	8765	934355.942420360788	4
7	8775	934910.794690230179	3
7	8779	935210.92839996685	4
7	8784	935451.516006476143	5
7	8789	935731.330057142172	6
7	8794	936101.511769819705	5
7	8801	937858.761952301606	4
7	8804	939397.248715445767	3
7	8809	939635.169081890932	4
7	8819	941033.851409801556	3
7	8826	942013.159498036259	2
7	8833	942092.658663335097	3
7	8839	943150.96427429042	4
7	8846	943338.338628132949	3
7	8849	943424.984385419594	2
7	8853	943853.621885438933	3
7	8858	943862.688785980205	4
7	8863	944020.025376688683	5
7	8871	944179.469231080853	6
7	8875	944315.443138435994	5
7	8878	944414.90504322792	4
7	8883	944862.33652736582	5
7	8897	945834.244818333329	4
7	8933	948070.340879361986	3
7	8937	948122.016957153741	4
7	8945	949332.764568382369	5
7	8952	949558.334610440329	4
7	8957	949789.679621043677	5
7	8962	949827.508624011346	6
7	8991	950789.387787011083	5
7	9004	951330.294769635046	4
7	9008	951765.337655065135	3
7	9021	952255.784198183796	2
7	9038	953901.482999615617	1
7	9046	954200.078048551276	0
7	9060	955193.72028320723	1
7	9065	955939.180102910001	2
7	9073	957918.505913336748	1
7	9083	963090.594476469515	2
7	9091	963248.885893992321	3
7	9102	963539.611541925203	2
7	9105	964323.974397891308	1
7	9110	965498.690223278358	2
7	9115	966814.427252483325	3
7	9124	967135.722867755798	4
7	9129	967144.27679680068	5
7	9134	968048.998614854721	6
7	9138	968164.402632953077	5
7	9149	970422.06514731158	4
7	9152	970459.488180821623	3
7	9156	970768.025725793331	4
7	9160	970848.59115723138	3
7	9166	970960.054272856212	2
7	9170	971123.695450672123	3
7	9174	971147.741301763903	2
7	9178	971282.49591953983	3
7	9183	971463.192058295467	4
7	9187	971478.931612356042	3
7	9200	971923.983428165006	2
7	9214	972363.59838807771	1
7	9235	973640.932435371837	0
7	9245	973862.517566966513	1
7	9326	978539.870468594889	2
7	9332	979080.490620495979	3
7	9337	979598.021291274152	4
7	9344	979891.233835082586	3
7	9356	980290.533963092703	4
7	9362	981129.831658104971	5
7	9366	981137.466758572016	4
7	9402	982162.297221265017	3
7	9412	982685.359329675557	4
7	9416	982689.740492210414	3
7	9440	984074.767580361808	2
7	9462	985278.75711393082	3
7	9466	985665.591545754671	2
7	9484	986049.391782514423	3
7	9493	986294.634354982071	2
7	9499	986384.552567990641	1
7	9511	986750.069469678101	2
7	9516	987901.232127376487	1
7	9533	989906.470053514207	2
7	9538	989940.219620754432	3
7	9547	990845.306300929929	4
7	9552	991055.904912240514	5
7	9557	991226.110872180424	6
7	9564	991762.969954168303	5
7	9568	993459.698667213892	4
7	9572	994051.337765545718	5
7	9577	994366.209151396016	4
7	9580	994866.36021641869	3
7	9590	995967.092597776918	4
7	9595	996033.005554579924	3
7	9598	996410.5383247268	2
7	9605	996635.956949604708	3
7	9609	996698.996970047013	2
7	9612	996907.467509336769	1
7	9620	997922.561304732267	2
7	9625	998075.155267666435	3
7	9629	998232.609473705626	2
7	9633	998320.418050490131	3
7	9647	998652.121247373527	2
7	9710	1001294.206010875781	1
7	9714	1002331.62942600352	2
7	9728	1003804.107654174491	3
7	9736	1004112.464068649657	4
7	9738	1004356.39819240563	3
7	9759	1005347.719959476414	4
7	9763	1005699.927284415711	3
7	9770	1005934.772638612204	4
7	9776	1006648.102142328501	5
7	9782	1008242.452678427503	6
7	9789	1009023.702235248538	5
7	9794	1009107.266012863944	4
7	9802	1009356.526277275651	3
7	9821	1011704.649663015825	4
7	9829	1012713.113519658885	5
7	9843	1014076.512726976578	4
7	9847	1014489.231202930975	5
7	9851	1014695.865462280743	4
7	9855	1014867.709206922085	3
7	9859	1015130.035710782369	4
7	9864	1015169.981530082936	5
7	9868	1015479.470872565445	4
7	9895	1018070.1430674935	3
7	9900	1018847.06865030767	4
7	9904	1019170.027560960916	3
7	9912	1019555.172342261578	2
7	9928	1020633.793861612845	3
7	9933	1021403.291820372994	4
7	9949	1022670.01674204964	3
7	9953	1022844.366335294931	4
7	9957	1023057.190847173119	3
7	9961	1023244.288696519376	4
7	9973	1023386.383438885683	3
7	9988	1024026.356386276931	4
7	9990	1024335.063175114899	3
7	9998	1024789.287388981948	2
7	10013	1025556.317462385856	3
7	10020	1026768.180101068086	2
7	10025	1026964.739390424249	3
7	10038	1030251.82099319019	2
7	10043	1030462.215995949352	3
7	10047	1030480.688099242053	2
7	10064	1032024.530360495277	1
7	10067	1032360.016227014215	0
7	10071	1033001.589160735214	1
7	10088	1034549.841578741185	2
7	10100	1035524.72087365189	3
7	10105	1035997.210104626621	4
7	10109	1036094.873097632436	3
7	10121	1038965.919893355418	4
7	10129	1039841.48739226958	5
7	10133	1040031.208234834554	4
7	10136	1040088.685638998394	3
7	10139	1040170.04474241268	2
7	10146	1040620.433921562424	1
7	10153	1041175.697205196575	2
7	10158	1041690.542739621187	3
7	10162	1041720.45212072008	2
7	10166	1042021.7072075404	3
7	10171	1042284.940935150045	2
7	10174	1042821.330455132923	1
7	10178	1043274.204478124257	2
7	10237	1046521.181585912833	3
7	10244	1046804.936066486838	2
7	10249	1048120.514739724082	3
7	10254	1048477.521939903801	4
7	10266	1049244.352888255077	5
7	10271	1050401.393940847269	6
7	10275	1050755.435073891139	5
7	10279	1050879.493430447963	4
7	10283	1050908.436848764241	5
7	10291	1053460.33601417649	4
7	10298	1053617.975932731675	5
7	10305	1054153.015804059768	4
7	10308	1054186.606992279173	3
7	10314	1056007.957480502075	4
7	10319	1056229.292093528676	5
7	10324	1056506.820109430353	6
7	10328	1056576.644205819623	5
7	10336	1057027.32256598483	4
7	10344	1057630.099399173122	3
7	10348	1057770.100242451843	2
7	10382	1060427.354524983026	3
7	10387	1060605.590864260233	4
7	10391	1060677.472543939621	3
7	10399	1061218.746410302524	4
7	10404	1062502.772462440235	5
7	10428	1063454.792558082558	6
7	10442	1064119.895351706533	5
7	10445	1064157.745840245617	4
7	10462	1065997.660333344478	3
7	10471	1066372.06384251361	2
7	10486	1068012.238404709564	3
7	10488	1068314.554539226075	2
7	10496	1069048.639146543227	1
7	10512	1072129.312922736265	2
7	10515	1074391.144650541068	1
7	10530	1075196.489872184029	2
7	10545	1076667.933905457354	3
7	10549	1077418.485162063874	2
7	10555	1078070.186268232463	1
7	10563	1078894.11443838712	2
7	10568	1078946.32127413311	3
7	10572	1079025.157761794737	2
7	10575	1079669.4023337028	1
7	10580	1080196.241730010921	2
7	10595	1082618.092546416621	3
7	10599	1083171.777679242551	2
7	10607	1083600.228448921477	3
7	10614	1084267.667922607861	2
7	10618	1085464.202939334794	1
7	10625	1085865.651666170427	2
7	10630	1086048.387971317046	3
7	10634	1086436.410334840097	2
7	10638	1087160.763869215682	1
7	10642	1087487.811482276982	2
7	10646	1088489.532766094325	1
7	10651	1089298.769064579176	2
7	10659	1089838.130539167167	3
7	10665	1090751.602079223142	4
7	10669	1090800.743502445696	3
7	10672	1090800.824277515189	2
7	10675	1091061.324230043703	1
7	10728	1092450.514288948059	2
7	10751	1093214.487837208159	3
7	10759	1095043.920262125367	2
7	10774	1096290.460627035478	3
7	10783	1097135.224770538938	4
7	10785	1098076.047369617785	3
7	10793	1098341.764168955156	2
7	10809	1101284.54329928267	3
7	10816	1101772.933557685723	2
7	10820	1102253.189987378475	3
7	10834	1103363.846452673219	4
7	10836	1103409.48162599514	3
7	10845	1104709.271877683086	2
7	10860	1106829.770318797652	3
7	10869	1109314.537232642138	2
7	10872	1109336.920180940478	1
7	10876	1109494.412037939388	2
7	10885	1110212.699683632779	1
7	10898	1111905.684861000207	2
7	10906	1112630.343959725709	1
7	10930	1115123.202262839805	2
7	10935	1115584.248947181736	3
7	10941	1116479.449196369924	4
7	10946	1116871.205639175157	5
7	10948	1117322.000275413184	4
7	10962	1118270.070289753869	3
7	10969	1118587.040602685621	4
7	10975	1119806.306172862666	5
7	10979	1119885.0717702347	4
7	10987	1120604.185613031306	3
7	11002	1122013.5763450828	2
7	11006	1122614.914696563092	3
7	11012	1123105.257360856282	4
