version 2
run ParkingMeasurement-121-20170108-17:28:23-4685
attr configname ParkingMeasurement
attr datetime 20170108-17:28:23
attr experiment ParkingMeasurement
attr inifile parkingStudy.ini
attr iterationvars ""
attr iterationvars2 $repetition=121
attr measurement ""
attr network controltower.SimNetwork
attr processid 4685
attr repetition 121
attr replication #121
attr resultdir results
attr runnumber 121
attr seedset 121
param SimNetwork.a.parkingLot.parkingDelay exponential(60min)
param SimNetwork.a.runway.landingTime exponential(15min)
param SimNetwork.a.runway.takeoffTime exponential(5min)
param SimNetwork.a.runway.throughputCheckInterval 28.571min
param SimNetwork.wg.interArrivalTime exponential(28.571min)

vector 5  SimNetwork.a.runway  landedThroughput:vector  ETV
attr source  landedThroughputSignal
vector 6  SimNetwork.a.runway  tookoffThroughput:vector  ETV
attr source  tookoffThroughputSignal
vector 7  SimNetwork.a.parkingLot  parkingOccupancy:vector  ETV
attr source  parkingOccupancy
vector 4  SimNetwork.a.takeoffQueue  queueLength:vector  ETV
attr source  queueLengthSignal
vector 3  SimNetwork.a.takeoffQueue  queueTime:vector  ETV
attr source  queueTimeSignal
vector 0  SimNetwork.wg  responseTime:vector  ETV
attr source  responseTimeSignal
vector 2  SimNetwork.a.landingQueue  queueLength:vector  ETV
attr source  queueLengthSignal
vector 1  SimNetwork.a.landingQueue  queueTime:vector  ETV
attr source  queueTimeSignal
0	1836	200924.049270741617	2944.4396609926
0	1855	201633.986971727059	2091.2960879075
0	1860	201957.060784043693	12292.63928813
0	1869	202444.879419734618	4941.4142068541
0	1885	203849.37763020167	23027.647594344
0	1920	208080.952292704233	3017.4983489918
0	1933	211393.536803136782	7354.0108251267
0	1959	214441.198678087277	13494.126975585
0	1964	214601.329692675752	8895.1841978147
0	1992	216598.653572231267	1179.56242629
0	2008	216994.984000424846	14191.411584529
0	2116	225468.564014531155	9714.8691154295
0	2130	226044.045526901343	9623.0270541641
0	2141	226362.49402659759	13027.171360669
0	2161	227840.944322870382	10941.357262626
0	2243	237987.8321137527	19873.526068258
0	2249	239118.231127285255	20248.355426338
0	2254	239265.264978562984	20208.225400388
0	2259	239284.43969677299	20766.884499934
0	2264	239343.784678814839	18558.026135432
0	2272	239735.343734190345	18823.062521092
0	2280	239951.736649740068	17653.11776561
0	2291	240698.110622261544	29462.155482004
0	2296	240827.438554664861	19453.209120241
0	2301	241021.313122905901	13875.970915864
0	2307	241980.666191484032	12580.270489006
0	2312	242046.153435227551	15277.415300953
0	2317	242260.232401544996	16770.072984487
0	2322	242563.694317146818	18404.301658616
0	2334	243659.095826476059	16731.18663477
0	2344	244212.652646127243	13701.892620999
0	2349	244311.445310272664	13564.966926231
0	2357	244854.495771244979	5083.4814823528
0	2367	247305.940465612561	16144.453924735
0	2384	249697.373763153974	6306.4908859456
0	2454	257999.214725382916	8047.2329796346
0	2467	258430.233980367688	7952.0131461315
0	2473	259061.973793917684	5110.9063058247
0	2478	259153.634351705318	4623.5133045348
0	2486	259680.168770335391	3314.0903347823
0	2495	260739.772852295956	12896.107249828
0	2540	264316.860189890802	3268.8139050313
0	2545	264353.346817085266	6588.5202711079
0	2561	265651.621410810058	4041.4656720014
0	2570	266052.880480621519	14460.266433794
0	2594	267271.393038131716	2231.1239636142
0	2606	268486.222334590972	6040.2012520339
0	2628	269622.348052910511	3366.6830856315
0	2655	272220.121989487103	3816.8153548141
0	2825	290503.888753734762	24176.331840228
0	2830	290567.974715837892	28134.293593409
0	2835	290620.618097015084	21970.553438989
0	2841	291611.109408441378	21277.291265987
0	2852	292193.900241538913	21079.020062079
0	2988	300856.026596826504	30426.618180306
0	2993	300935.63296120241	29800.925894115
0	2999	301721.836406999018	29962.557073462
0	3004	301755.817447296171	25893.813248875
0	3009	301868.510397468154	25794.503698709
0	3014	302106.892548065698	25196.569390663
0	3019	302558.394302707799	22622.471600393
0	3024	302685.957924757265	23813.831841448
0	3032	302955.77531745291	26445.169913754
0	3046	304022.970465957427	25068.487197955
0	3051	304349.773603487782	14905.991725593
0	3059	304670.724538247967	27734.681356979
0	3064	304676.518034482611	25148.977815793
0	3079	305475.444491898366	13550.43820509
0	3084	305533.793286676849	12833.026403443
0	3092	305826.899816550375	13019.541149381
0	3110	309921.114468294143	17013.205527873
0	3115	309993.629685161975	28250.849034035
0	3120	310012.865051486233	14692.364721288
0	3129	310414.479332740816	12416.803157722
0	3134	310672.212960977639	12161.116600981
0	3139	310743.711853501249	16867.534965567
0	3144	310946.771812534817	17931.860434233
0	3149	311214.0740932952	14861.392070273
0	3161	312155.780967117204	18657.06792
0	3176	313249.989000897301	20553.825890532
0	3185	314053.14936707434	11111.795061086
0	3190	314470.40704532926	8897.6142336567
0	3207	317051.714644070731	38638.894112057
0	3224	318390.168263480026	6749.9484627001
0	3250	321359.691724964333	2911.7561274483
0	3270	323167.664649876121	7683.1719183693
0	3275	323233.977150721666	11529.792067286
0	3283	323739.33812832058	6294.7909393128
0	3303	329646.835850559838	10200.162225804
0	3313	333067.8555387439	11158.376763602
0	3347	337127.317668642249	3633.1295404047
0	3356	338241.059984562582	12832.076382419
0	3391	344376.071953607293	5653.9095499401
0	3488	353049.012924236606	6999.2781993566
0	3500	354304.260974770361	9769.12433754
0	3512	354949.314971787735	14623.899970777
0	3531	356215.767370927326	11763.295792596
0	3640	366148.807659663091	30949.637971855
0	3648	366179.34084084349	18459.346459169
0	3653	366368.567538981336	19371.847339573
0	3658	366685.313221979009	26447.507279429
0	3667	367249.094389089333	21068.058071832
0	3675	367305.535724336726	19306.345000103
0	3685	367779.391193945801	20432.747291829
0	3690	368102.499584105913	17185.827211724
0	3698	368544.698460547259	13993.835419054
0	3752	371345.64057840055	14948.401743462
0	3757	371646.744475544307	13231.046018026
0	3763	372009.747382901239	15283.869451882
0	3768	372235.03184724911	37098.444072749
0	3773	372438.593191102011	9303.1244734945
0	3787	373571.891630794317	11474.769206323
0	3826	375969.623208224136	18712.827315503
0	3831	376162.169447957269	18940.099796473
0	3836	376506.327325362648	12956.776602291
0	3841	376565.325949845038	12524.525648352
0	3846	376803.672352222476	7966.5007668073
0	3851	376863.193792836003	7168.1469387269
0	3860	377168.697913755965	9899.1725892594
0	3868	377955.833326783553	9414.7807881784
0	3905	381448.104874729392	10923.521267731
0	3913	381787.389503613399	8695.5022269149
0	3918	381927.188416205192	26081.98681911
0	3923	381940.346594456734	6819.1265117771
0	3928	382016.019202410133	7355.1641658163
0	3939	382253.935144155524	7479.7926094808
0	3950	383248.040344280104	5073.3120888136
0	3958	383831.668654927505	5340.4522629854
0	3967	384045.484003258947	6678.4306297061
0	3997	395202.255759733683	5743.7563421009
0	4032	399958.119457683205	17923.311885392
0	4049	402689.586073575449	5219.9980581779
0	4061	403495.421260987187	11844.77311498
0	4108	405849.244971620394	7162.1182477659
0	4113	405869.594641920021	2045.630906593
0	4118	406040.31601412519	5007.4269936286
0	4123	406047.544756899112	8567.7299019697
0	4131	406140.457641072373	3078.6841593916
0	4146	407612.6853395272	3252.07283222
0	4198	413900.656614234066	9313.4062620496
0	4208	414158.164398629609	6601.4726757792
0	4223	415605.794825221636	8302.9863528935
0	4228	415621.823388284896	5416.0433506132
0	4233	416253.759315100872	6140.2954857573
0	4261	422235.285024483238	13065.5561046
0	4296	427000.677021811792	1792.7858440477
0	4304	427357.041864114638	4736.0464831714
0	4321	428858.950390524802	8791.4004776942
0	4350	433664.077892059399	13673.618131491
0	4359	434021.021084972293	7816.9193362873
0	4364	434220.928671759816	20529.773232885
0	4372	434560.863539400715	3000.8757509533
0	4380	434685.5061700735	7204.5808150657
0	4468	446254.631298296996	7454.6102571365
0	4476	446499.889497645216	7452.0780877136
0	4490	447879.033914367067	8658.4255464292
0	4503	448796.989706994949	16538.177141297
0	4509	449165.485047319431	8582.1967367304
0	4517	449609.252294152302	9373.7600849201
0	4525	450168.749568783639	11112.818461291
0	4550	452128.02412376825	6756.466117545
0	4562	454028.894645448788	11141.020004445
0	4570	454272.629206914268	6711.642705938
0	4576	454304.283419389766	3651.570129685
0	4592	455662.453624691199	4009.180351868
0	4604	456690.148115966557	10193.326952539
0	4647	462276.512246168267	5783.110022037
0	4656	463124.738728072119	4965.8938643928
0	4661	463733.198617478693	8878.9053627014
0	4670	464758.930214723348	3589.6317891968
0	4699	468415.862059948932	6963.5800897217
0	4758	474497.860542735337	9603.2645006033
0	4763	474776.470835342063	5683.0968833942
0	4775	476113.214705485235	5627.9921656783
0	4781	476568.990788689307	8285.0125671188
0	4801	478399.501035823252	10925.077730435
0	4823	480414.081067056951	11584.039662652
0	4831	480701.841570586205	4104.6482510481
0	4840	482038.405873512178	8092.3940784467
0	4849	483763.016959650422	14853.235933605
0	4858	486015.750981315052	8392.9589261567
0	4888	495864.736456635529	17317.811031427
0	4907	497120.279770046523	7872.1407903547
0	4967	504023.028770780757	6975.8755910741
0	5051	510685.37585506817	14298.356949915
0	5056	510815.062727619138	12138.003575994
0	5065	511078.535443319303	19376.701686699
0	5162	523981.01795014016	25874.946499145
0	5167	524320.618264147657	21925.198878337
0	5176	525408.147442097681	26324.056263852
0	5181	525637.77021304288	22782.801223157
0	5186	525997.78500212644	18415.092599123
0	5191	526108.110596950287	23590.151688402
0	5196	526122.721220813355	19765.893618117
0	5205	526369.404030573683	23183.935907463
0	5213	526959.402307362667	19361.811711463
0	5223	527886.095680781345	16523.142901261
0	5229	528181.323949177885	19539.09224085
0	5234	528250.88774263012	17204.699397096
0	5242	528578.251960594804	15314.455355941
0	5250	529659.610066304375	15808.544175542
0	5261	529751.455742528321	14361.902325152
0	5266	530259.502208143257	11110.112276243
0	5274	530779.445436989818	14055.547382515
0	5288	532945.854254674183	13351.06931787
0	5294	533256.569990684752	6758.0541259272
0	5358	542814.649864251076	13373.315553656
0	5363	543328.742637574995	9964.2771618771
0	5383	544475.670338280692	14195.625496992
0	5388	544815.875791628137	3228.5722714221
0	5421	549337.305525528434	15037.18530397
0	5426	549470.961678539102	15268.76422641
0	5431	549556.867112969962	2491.3419643685
0	5458	552002.159195399007	12211.2065198
0	5471	552698.111983621299	13664.851845205
0	5485	554406.945568407925	10721.507926329
0	5490	555059.549580224379	7274.240304626
0	5500	557342.683858547261	5428.5060517024
0	5525	559380.918741577363	1995.1218026698
0	5534	560643.331662041688	11062.430027975
0	5543	562705.740747597362	10022.54305111
0	5578	568954.256822263891	10375.140510905
0	5595	570161.994145441139	2753.4907684506
0	5604	571250.825906448244	4435.706801063
0	5643	578243.311620058328	8602.2091173717
0	5651	578413.075256326755	3488.5681256714
0	5990	614792.210281115342	39352.213990716
0	6007	615491.913093235804	49275.665475591
0	6012	615697.223287458381	37446.074299751
0	6017	615739.435640792492	36193.829120739
0	6022	615895.902362351786	40519.084851187
0	6027	615980.992687264333	36167.937009717
0	6035	616623.830194361679	36893.098169216
0	6040	616642.054301573733	36780.027634473
0	6045	616678.472101107553	34070.374728942
0	6060	617612.918460994644	36656.573153256
0	6082	619963.755891649079	39288.647956998
0	6087	620391.665201036786	38592.100867816
0	6092	620519.213603036957	40453.655432317
0	6101	620632.786437018438	37851.524063698
0	6114	621178.608403249817	36999.52925573
0	6264	639587.95023525623	55759.167385748
0	6272	640475.019799603872	48431.710267671
0	6277	640556.549348070406	53202.038649013
0	6282	640640.651569343436	50730.874374193
0	6287	640770.761353666637	52760.684007427
0	6292	640858.675314931471	47714.008113892
0	6301	641813.505375614265	54426.656757378
0	6316	644644.770259931328	51074.429590626
0	6324	645019.128497570018	52465.694813303
0	6335	645316.453576199514	49361.443387635
0	6340	645470.014204730382	53192.23644144
0	6345	645587.843524208097	49179.11087744
0	6350	645840.034278758374	48670.606394474
0	6355	645873.607256562	43511.548249594
0	6361	646350.573403581829	45923.631316793
0	6366	646443.15584453442	42810.248518868
0	6371	647284.220338339812	36297.265285905
0	6376	647320.319698694033	32996.309404922
0	6381	647511.625248256075	30473.469136839
0	6386	647569.139621520342	30877.314232248
0	6395	648170.694372935123	27268.467736089
0	6408	649165.128348585279	27020.820663045
0	6413	649222.459839750691	28645.208145612
0	6418	649510.74227027224	23686.303692833
0	6424	650880.93424556103	27943.531821413
0	6429	651195.334125119574	24854.772224496
0	6438	652082.301495421135	25757.521032089
0	6457	653863.828029139185	21456.042225069
0	6462	654391.796051326578	26937.878215428
0	6471	655298.750161427929	21505.572512364
0	6476	655304.482770285351	23193.53630623
0	6481	655446.558305683879	19902.306368385
0	6486	655560.438800303054	25408.023272233
0	6494	655884.841471354065	19391.16949595
0	6505	656961.185383935935	15221.808672273
0	6513	657207.015018123988	5615.3931365234
0	6527	658317.965817761857	10173.623461236
0	6535	658669.257156729035	5001.3580827202
0	6554	663947.024351368563	8333.9856703563
0	6583	667774.990466670977	5494.3221874578
0	6588	667999.758807895741	11013.520206073
0	6617	670871.715353534921	5320.7885726568
0	6622	671225.338385337758	2524.1134443135
0	6644	676713.264881549854	7368.5002340893
0	6649	676724.74770024155	10362.512130597
0	6694	685015.299826895615	10299.112502928
0	6703	685742.652355066299	7703.0524242128
0	6713	689568.398380241035	6558.7765460668
0	6746	691581.390629152975	1709.2398357494
0	6762	692507.443153265425	2900.6245943319
0	6771	693044.045374691682	3098.7601039905
0	6795	694171.445668402162	11309.590901565
0	6812	694737.747805674142	10844.334497588
0	6820	695579.988373891192	2519.9314131766
0	6832	696957.758888654582	5210.5125362003
0	6837	697020.837971787268	3801.4066994108
0	6856	702107.455626053644	7845.8245774144
0	6874	705092.028543921407	5473.0728867587
0	6900	709124.083874103995	6153.2242968632
0	6917	710148.45345114382	4426.236160547
0	6943	713828.380561603841	4408.2430757743
0	7033	722020.573529302017	13355.192795093
0	7041	722156.881317487367	10474.500160374
0	7061	724375.519075828766	10524.341639493
0	7083	725648.384260216403	13400.980561938
0	7088	725924.923129296183	10860.675729877
0	7093	726214.149530757524	10576.159315769
0	7098	726283.713362171192	10455.441986248
0	7103	726552.004546419146	10724.022885968
0	7112	727044.573140683803	8873.5450950934
0	7126	728776.115000978453	10358.75138535
0	7136	729534.908112952334	7457.3324888248
0	7145	730386.603487319147	6646.3428137404
0	7153	730787.756716148457	4168.028859211
0	7199	736492.78741741552	12592.310257524
0	7211	737291.047140553617	8644.9826325341
0	7221	738122.772643613341	6065.5195096847
0	7229	738317.917152960629	3899.3476120166
0	7250	740929.168017300887	8185.6793305037
0	7288	746106.289494246763	12287.574857925
0	7333	750428.480756039621	11529.659060177
0	7348	751278.875468892951	10460.09141336
0	7353	751614.055206242762	15087.776250381
0	7358	751701.973549479944	7810.1241985898
0	7363	751781.664907165238	10086.935276829
0	7368	751906.022432890736	4159.8651438647
0	7373	751916.826216453438	5593.3190083672
0	7381	752267.433556002494	6442.3555838394
0	7407	755406.318638178446	5852.1962788011
0	7450	762932.622902262029	8334.0689315527
0	7458	763368.370680207212	11018.739229582
0	7468	763555.400222140504	8012.9880124214
0	7477	765150.263209983968	5453.9375669885
0	7510	767124.168784587162	8548.3384829723
0	7521	767971.650132610299	1481.2631161948
0	7527	768374.462146869314	5425.1164376764
0	7535	769359.890212944745	3718.812726931
0	7581	774445.246154850248	7751.4959239036
0	7586	774590.068852807525	4014.9104242697
0	7597	774736.64502379102	2160.526961957
0	7603	775657.715979493947	3959.3393022409
0	7620	777331.449867882471	4386.757715736
0	7654	781130.362116290472	4706.7992182951
0	7679	783345.305961933031	4723.6472350626
0	7705	785706.52525653241	5922.7043296573
0	7713	785814.868217896282	3776.527003987
0	7730	788382.414226961659	6550.3967330676
0	7739	788723.662186840487	11160.417381921
0	7764	790453.770428252414	6101.0134032068
0	7772	791150.056237742856	6768.8859946015
0	7809	793809.521594274858	2053.7625885883
0	7814	793945.721944635378	4236.4787145606
0	7831	797127.454196166095	7733.6353063919
0	7840	797269.82741602284	9723.2302496448
0	7848	798235.989384548849	5597.2367430762
0	7860	800187.226129680165	8093.4305086807
0	7892	804131.804936792215	9042.0875949776
0	7909	807067.440229236722	6127.352250759
0	7921	807822.945554110835	5525.7896302747
0	7926	807869.921270572851	8433.3985864953
0	7963	812173.634088291964	4087.1363939452
0	7969	813238.667715244476	8129.9819449088
0	7983	818040.05956699479	9783.7077191834
0	8014	821780.892164635594	4165.112609491
0	8059	830130.793946632895	10665.662600615
0	8067	830744.792587929749	21005.789468871
0	8092	832504.015176691791	5995.4080341004
0	8104	833372.846549673282	14534.349729741
0	8109	833717.467260659409	6731.9549735434
0	8117	834633.393775885822	8575.9087415029
0	8141	837259.128998499204	5367.4569932303
0	8169	840520.587458771929	17143.637366409
0	8181	841808.634461922132	9482.6820208281
0	8186	842307.02547313641	7503.4617335227
0	8213	847796.825521505016	8519.4098827518
0	8225	849324.962149563295	5689.454482292
0	8230	849760.135244042953	12880.317728141
0	8251	853027.173480869594	15039.759637199
0	8301	856905.546423333088	2942.8832880754
0	8306	856915.889484827011	5576.5143373877
0	8315	857675.115267054989	3407.0233020812
0	8323	858284.582835075058	5291.6102671269
0	8332	859935.081521976653	5033.4138047946
0	8342	862514.612175875406	15970.411285941
0	8372	868681.661011224851	13256.133088418
0	8377	868686.247556420236	6065.8221803867
0	8425	877484.823877305819	3856.5327664159
0	8430	877584.046934559006	2633.3925043514
0	8439	879205.986659372287	3820.0047477024
0	8482	883461.52339126657	7925.2552684146
0	8510	884890.632121944495	2252.2893135807
0	8649	899686.404162738064	18229.320846365
0	8658	900324.820145422218	15985.364270526
0	8663	900340.384103780125	17879.061659367
0	8668	900460.061300102937	15686.75895078
0	8673	900720.556530154204	18498.329997436
0	8687	901073.2301941009	17559.39733322
0	8716	904937.358569828577	14266.688738913
0	8725	906419.176011724408	40847.907545915
0	8740	907442.384882444672	20810.591076542
0	8787	911880.06702531816	26028.615545752
0	8793	912191.865989486298	25727.166102418
0	8798	912280.844958752244	24522.578652824
0	8806	912355.847935641101	19006.653104664
0	8811	912682.744575657458	15561.420307436
0	8822	913494.13434397442	24922.860187049
0	8833	914354.060173092721	18085.810038647
0	8838	914544.572777572549	17205.639757917
0	8843	914748.596148335618	13694.992581787
0	8848	914854.41433132794	24105.378152524
0	8853	915107.767162924323	14039.797827729
0	8858	915161.343084288817	8055.4050667271
0	8863	915197.561989223656	7954.4987755079
0	8868	915204.787732880843	8771.9603001042
0	8885	916228.621861144438	8380.7506860565
0	8915	920629.615708219739	12085.196548776
0	8920	920680.638013874339	5356.2234710641
0	8928	921444.177617184783	5041.2265805597
0	8936	921603.219243824099	8568.2929351067
0	8954	924091.07782289976	7044.8465347025
0	9011	935948.272334594105	13713.340499552
0	9016	935955.189213049633	4799.3718877481
0	9025	936754.369730070389	6062.3933802889
0	9033	937098.188894651279	7599.5606091485
0	9046	939867.829604717045	7299.1660012232
0	9059	940106.087388344301	5409.5265876822
0	9095	946311.374258978525	3375.8097437152
0	9103	946853.912785052203	7477.7748032872
0	9268	962065.763648804754	14418.811799935
0	9273	962275.534068015909	19329.912362092
0	9278	962365.28708277174	14590.000059595
0	9283	962594.168002209057	14599.710978208
0	9288	962822.118725725141	14399.204694859
0	9296	963006.196093268064	11203.219241032
0	9343	968726.193524269026	25705.330414906
0	9357	969885.042000698182	17457.655863821
0	9368	970827.303459479454	18635.083665457
0	9376	971140.398792917112	17924.483549614
0	9381	971287.72956572731	15026.554619768
0	9386	971475.229279981419	15043.261801905
0	9391	971650.076215630357	18863.043569681
0	9396	971811.997245887813	14802.445255552
0	9401	971831.947149712266	11625.645487025
0	9410	972563.189248620358	19574.823112407
0	9420	973135.493380298374	10196.616723786
0	9425	973359.353524080305	10313.215934342
0	9430	973453.439180915432	8851.450823168
0	9523	983389.839423781658	11164.140962338
0	9528	983553.934494983195	17405.98163182
0	9537	984070.522507967983	10455.371480307
0	9545	984245.875951015397	10530.416337584
0	9550	984486.158041629311	10772.274682146
0	9555	985574.193539041039	10200.380342708
0	9564	986265.979399562474	9695.5228422635
0	9569	986274.289724094667	11537.696890672
0	9583	987314.913234967398	18084.227748809
0	9619	989359.034197288574	13976.452424773
0	9624	989377.443001935143	12176.932502531
0	9641	991608.693758430948	3434.5927556315
0	9649	991851.427865106434	5378.5484576848
0	9803	1009221.488946274072	20833.809770613
0	9808	1009223.106270317295	12379.28829202
0	9813	1009308.587529050086	14720.653904385
0	9821	1009596.928293023712	19406.332727553
0	9826	1009684.231553723532	9619.6579744246
0	9844	1010381.403460903354	10633.866792868
0	9854	1010649.226671683007	10110.70649865
0	9862	1010707.014433980602	23439.366316269
0	9867	1010845.522063259204	11892.806455989
0	9873	1011959.486698414349	10652.307326194
0	9878	1012020.621947147883	9340.3419720185
0	9883	1012274.929878909654	7321.5646269462
0	9891	1012655.734755073613	8250.3644541181
0	9896	1012705.067313877768	9568.6920897257
0	9902	1013529.006958553743	6504.411298487
0	9919	1015756.557405365357	12179.382920492
0	9944	1016838.605375112148	6523.4061232076
0	9970	1020941.194803130763	6130.8975992005
0	10004	1023834.164417036298	2427.5631967863
0	10015	1024403.29568671535	8595.5019960428
0	10020	1024851.105635416036	7710.1944478878
0	10032	1025931.305153215511	8045.4937912529
0	10037	1026050.900121774217	3817.8682027755
0	10098	1031606.114426382331	23914.381183874
0	10292	1055785.034947359091	33367.590931332
0	10297	1055794.972798130211	39909.139903532
0	10302	1055830.859077032134	29320.102729573
0	10308	1056032.711273894112	29472.206326165
0	10316	1056672.346499895216	30133.835858713
0	10339	1058763.418798760136	30895.786175816
0	10349	1059345.28568115934	28037.771107774
0	10355	1059911.5431443661	28373.268622708
0	10360	1059921.547527573973	26101.237001605
0	10365	1060232.988564623407	25764.532617379
0	10370	1060396.180337958935	20016.991816107
0	10375	1060849.25225723168	21963.929486815
0	10380	1060984.278997260608	18983.891275818
0	10385	1061066.628063960805	20670.408189459
0	10391	1061369.861408311414	18037.340544131
0	10400	1063232.979914417499	19101.124416757
0	10459	1072040.854998409867	25081.218732648
0	10464	1072168.2299550106	20420.862589243
0	10469	1072542.321369212366	25440.585099422
0	10474	1072627.939234953531	19692.868549369
0	10479	1072944.788157937962	31183.476488859
0	10485	1073298.663078035313	19682.634045854
0	10490	1073338.957041849827	19795.767173595
0	10498	1073738.057564821985	9683.4273964465
0	10506	1074203.518198820348	11842.529013942
0	10511	1074360.898053217474	9949.6194353674
0	10516	1074368.612478132164	16807.640181276
0	10521	1074731.764855721761	7942.9621756855
0	10539	1077127.216416402409	20848.060319474
0	10548	1078423.884696103946	8835.4375741532
0	10577	1082213.84874276287	3727.9396255632
0	10599	1083720.314079678666	4534.7883686619
0	10611	1086085.233626762464	4436.8404600777
0	10616	1086758.748071814389	10890.308480748
0	10660	1092170.759988483009	3481.9008849796
0	10669	1093869.736272113336	6594.0150025662
0	10707	1099019.546258021104	16419.233585871
0	10756	1105632.206979322301	11117.350165166
0	10762	1106344.069216289817	17087.878966056
0	10767	1106407.624157696503	10230.095277149
0	10772	1106517.2908619969	15923.218108513
0	10789	1108302.495584253341	8407.86375707
0	10830	1113000.347028663132	16411.837851976
0	10835	1113008.040445869731	12736.107737816
0	10840	1113266.963724121966	12160.736355265
0	10857	1114793.154941559918	8224.3818098536
0	10865	1114959.657315980256	15979.8918051
0	10873	1115947.887284581332	6788.7539281163
0	10882	1117329.443208307038	7397.7836503081
0	10933	1122254.689383923363	13488.909567097
0	10941	1122338.993308028669	3319.7021846118
1	1841	200947.07170250234	0
1	1874	202803.572415895483	0
1	1891	204039.525978010085	0
1	1903	206670.60280357833	1607.1488598659
1	1908	206850.6915636978	1144.5460688367
1	1935	211393.536803136782	157.58166287901
1	1944	213335.322665928645	0
1	1969	215419.0911459413	0
1	1977	215753.694899101664	0
1	1994	216598.653572231267	177.63509949398
1	2010	216994.984000424846	95.396940180746
1	2019	218114.306045494822	0
1	2027	218525.997210317065	8.442013477709
1	2048	219742.200541216833	872.32484026929
1	2053	220709.034234496865	1651.9946563221
1	2065	221369.027005923643	583.26846254128
1	2076	221931.375017618103	1019.0938045193
1	2090	222749.217729162788	1374.9882947388
1	2102	224164.877670192807	1866.258786063
1	2108	225436.552578030421	1277.1599194994
1	2132	226044.045526901343	553.88610984361
1	2163	227840.944322870382	1072.2061885956
1	2179	229990.557222527608	3062.6480308215
1	2187	230616.666834814159	3471.3246277727
1	2195	231114.859171820129	1714.4634693418
1	2204	231544.410369482343	1033.6503443539
1	2209	232988.950102445308	2242.471718404
1	2221	234658.869870424961	3497.383329547
1	2282	239951.736649740068	180.72236084789
1	2336	243659.095826476059	268.21294926766
1	2372	247843.665602467803	0
1	2389	249951.981745748365	0
1	2402	252674.576385033023	2196.3555507969
1	2407	252735.781213829274	1143.1671670013
1	2422	254663.491910630527	712.4244225375
1	2434	256627.450546079382	2097.3294989089
1	2439	256936.70111504848	570.62267949543
1	2456	257999.214725382916	234.38817940553
1	2500	261048.046284859527	0
1	2509	262381.746368871495	771.59063006285
1	2520	263399.914647135077	966.23352470632
1	2531	263990.876481899844	1544.8553993428
1	2550	265040.269074517515	0
1	2575	266255.66496727903	0
1	2583	266935.006858816095	607.44994530902
1	2608	268486.222334590972	82.915699918018
1	2616	268739.960479353214	89.895821326931
1	2657	272220.121989487103	1886.3038470326
1	2667	274725.144045453082	4295.7356289321
1	2679	276407.114193028446	5292.2340135681
1	2700	278486.090467451437	7351.3834003643
1	2715	279769.134653979856	8009.8553204432
1	2730	281515.359941236457	5653.3557428157
1	2742	283778.284230796391	7704.277532037
1	2747	283970.614853706734	7460.0094500082
1	2759	285516.108408917758	8605.7852515146
1	2771	287536.485421035367	10600.442239767
1	2776	287675.796707248192	9262.9761752343
1	2782	288296.908040801059	9424.7819574921
1	2790	288466.036634735261	9511.5533667328
1	2795	289417.783318729124	9890.2431000391
1	2803	289607.387427809511	9671.4647254943
1	2809	290008.439398833205	8265.6587477064
1	2814	290111.758096507782	667.9762186132
1	2854	292193.900241538913	268.89395473057
1	2880	293125.207795719688	429.04468535395
1	2901	294388.69088289886	1687.923999665
1	2906	294692.880944122903	1885.5222769536
1	2911	294838.023395713679	1930.1144552924
1	2927	296693.927835560482	3679.0164572588
1	2935	296950.582620628233	3451.8695735114
1	2943	297185.616411497869	3309.4395235637
1	2954	297822.116642397733	2501.6163121994
1	2966	299004.987625629777	2652.3056026079
1	2971	299588.569809296871	1590.893634278
1	2980	300545.353245114087	2034.2568851171
1	3034	302955.77531745291	14.421011464364
1	3094	305826.899816550375	254.10700487785
1	3163	312155.780967117204	515.56116633725
1	3168	312278.855671427706	574.67058799208
1	3196	315484.492731506794	0
1	3213	317444.547189007738	0
1	3229	318447.935597516026	0
1	3238	319446.673624755887	0
1	3255	321909.478775142301	0
1	3289	325408.983602143251	0
1	3318	333494.188128237575	0
1	3327	335136.587774500212	0
1	3335	335546.374859390983	347.2051715824
1	3361	338722.162403667191	0
1	3370	340237.805942550489	0
1	3379	342147.659262560611	1822.2442615498
1	3396	344452.471578331325	0
1	3404	344535.136637230406	0
1	3416	346233.042770934919	183.30804605494
1	3422	346916.113544371574	735.07722711454
1	3440	348453.892441751767	1457.1722423437
1	3445	348757.344407336399	1410.7005052198
1	3453	348893.660232729659	1173.6658510555
1	3462	350507.809086433817	2508.6183622005
1	3480	352777.158515589234	1860.4861432074
1	3514	354949.314971787735	398.45193029496
1	3533	356215.767370927326	370.56577383204
1	3548	356827.171434837429	429.93259989911
1	3553	357195.785913807977	469.90798278834
1	3567	357950.472316181873	728.40266469724
1	3584	361755.272978938241	4498.4770862174
1	3589	361853.739862746637	3438.0414052288
1	3597	362994.752606651583	897.63018218063
1	3605	363280.493931516853	145.02521390938
1	3620	364578.156218308161	1028.6054952368
1	3625	364946.225999910711	905.42569841746
1	3677	367305.535724336726	36.010399840206
1	3700	368544.698460547259	3.645921942058
1	3715	368923.743050988546	86.571465573378
1	3730	370890.979252880731	1195.9323987716
1	3735	370961.987259214348	437.40365221645
1	3789	373571.891630794317	480.00435409585
1	3801	374853.919210616853	193.06417402298
1	3806	375109.986972027424	335.8444373527
1	3814	375206.065819855388	84.845737175768
1	3870	377955.833326783553	588.7799532307
1	3878	378471.121692412673	296.39343694622
1	3896	380530.759121119433	2039.5427291773
1	3941	382253.935144155524	219.12757186438
1	3975	389458.499417632797	0
1	3984	391650.648146006939	0
1	4003	397469.588015397555	0
1	4011	397634.001672598948	154.18681766957
1	4020	398687.126723854526	0
1	4037	401032.889020496614	0
1	4063	403495.421260987187	433.64777930646
1	4071	403823.963735327063	0
1	4079	404461.304223051325	100.69171574417
1	4088	404590.476256043592	3.225903859108
1	4148	407612.6853395272	309.8768671991
1	4153	407735.787727875991	179.09600502556
1	4162	409169.728919882766	0
1	4171	410113.463829343619	0
1	4186	413071.207478009436	2865.4274403377
1	4200	413900.656614234066	209.50117535879
1	4240	419990.459760568698	0
1	4249	420815.011580279013	747.46166744844
1	4266	422620.995380943226	0
1	4276	425207.891177764126	0
1	4284	426639.052926697543	434.95117801257
1	4309	427480.925355007829	0
1	4327	431559.987788447414	0
1	4342	433060.41449347845	801.60192778071
1	4387	438800.021041160506	0
1	4402	440212.796696751418	1164.9852868198
1	4414	441633.477587111559	2577.546479619
1	4419	441955.302719945994	2734.6943520081
1	4424	442154.274272378231	1918.782063146
1	4430	442641.641810650542	2058.3535000615
1	4455	445778.99439047198	2891.1197494682
1	4460	445827.511445018834	455.95343879562
1	4478	446499.889497645216	3.068334217603
1	4492	447879.033914367067	318.04741339075
1	4530	450652.713289704769	0
1	4539	451653.2732728232	0
1	4581	454854.293254777261	0
1	4606	456690.148115966557	196.74589183528
1	4615	458158.844863679343	0
1	4625	461169.298425526557	0
1	4636	461714.315812435411	262.03384220817
1	4675	464894.596042132036	0
1	4684	467474.423305387813	0
1	4701	468415.862059948932	131.88383837838
1	4712	469034.293419336217	204.25201493088
1	4724	470502.764290173289	1592.9832641282
1	4733	472567.143308509333	3473.7693565614
1	4742	474033.282380128497	3548.0598403216
1	4747	474203.562438168032	257.55064310257
1	4786	476597.19331953815	0
1	4803	478399.501035823252	776.70898066489
1	4815	480139.654695058114	1592.7292698491
1	4865	489248.138979691786	0
1	4874	491701.833756620325	0
1	4893	496387.018905153241	0
1	4909	497120.279770046523	73.126590339822
1	4918	498179.633486929788	73.562035934695
1	4926	498677.059151624826	0
1	4938	500378.538375896572	1294.4471976508
1	4969	504023.028770780757	1627.6093849697
1	4977	504985.234360589315	2467.2754520406
1	4986	507074.020213356002	4219.0512234702
1	5004	508184.272078450132	4998.8039553396
1	5009	508255.060940697919	1898.2333380018
1	5017	508639.782147634431	1057.0897446312
1	5025	508723.381674806744	1125.791078907
1	5034	509175.563515312571	533.33180698478
1	5067	511078.535443319303	32.347097785421
1	5082	513288.039541751688	1925.0867622311
1	5090	514194.292298179109	930.49569352567
1	5102	515774.054031757716	1922.9881409952
1	5117	516969.077767494807	1579.5243501184
1	5137	522161.176522987435	5437.2784685128
1	5145	522727.811641944001	3578.4217100441
1	5151	522989.992158531127	3395.2072217267
1	5215	526959.402307362667	460.88644260513
1	5252	529659.610066304375	218.27575570885
1	5276	530779.445436989818	499.40059570128
1	5299	533364.465475697846	0
1	5314	535225.224152729968	1023.0267006005
1	5321	538340.11938536689	4039.9991638086
1	5329	539063.541717021379	30.281578605558
1	5341	541479.878209937718	1688.9255343392
1	5350	541728.960602916415	141.65708271038
1	5369	543685.437642078479	0
1	5395	547065.525148601494	0
1	5403	547785.309275598344	0
1	5436	549580.901634067159	0
1	5460	552002.159195399007	87.981388554169
1	5473	552698.111983621299	14.914287134296
1	5505	557385.796938907557	0
1	5513	558579.11631135914	0
1	5550	566216.247617645162	0
1	5558	566815.119105385279	0
1	5567	567473.622646558572	65.119269568024
1	5584	569641.102502686676	0
1	5611	574924.507130655356	0
1	5619	575376.817511164884	0
1	5627	575781.232312375783	341.23602197608
1	5653	578413.075256326755	161.92626861917
1	5662	579545.60652005311	0
1	5692	581678.971656807466	1948.2396316616
1	5710	583273.648203605433	3460.5925260579
1	5721	584348.007684981601	4485.9810178804
1	5727	584956.616043592303	4891.0578728724
1	5732	585015.531556189486	4340.4236215385
1	5743	586238.388382993822	5282.0430752553
1	5762	588193.687554765951	6394.1232215457
1	5773	589544.441274281149	6936.3439021158
1	5779	589741.167171598843	6959.904798278
1	5784	589907.363525306186	6078.5806757978
1	5795	590841.25949052935	6662.1803430099
1	5832	594579.250512245051	7224.7398131875
1	5838	595112.601064107252	7725.7524458706
1	5846	595486.550567983485	7476.4732217438
1	5857	595974.216306678406	6064.4391115277
1	5862	596030.81609858327	3987.50656665
1	5876	600367.522406404039	8089.7446431133
1	5884	600877.68774628497	8324.2540620175
1	5893	602008.356772012977	8863.6895709733
1	5907	603174.423360351035	9604.0826910456
1	5912	603364.823728230311	7409.8135396657
1	5932	606859.527042709365	10450.794395941
1	5944	609614.652156462269	12445.224272177
1	5953	610750.856801668443	10323.914714879
1	5964	611647.635532674808	9285.5765257064
1	5969	611727.907713267639	8095.0003876014
1	5978	612856.238443658363	1869.2833912233
1	5992	614792.210281115342	468.1999873435
1	6062	617612.918460994644	921.09307172195
1	6071	619085.080293681993	2046.9241822649
1	6103	620632.786437018438	55.53474287926
1	6116	621178.608403249817	276.38176640363
1	6132	624415.404157573657	2271.0964720338
1	6137	625155.896758792379	2218.4943346446
1	6159	627762.536492810645	1938.0979153712
1	6185	633009.262699266815	6684.4822359347
1	6194	634474.227519045561	8133.6656184222
1	6202	634970.723846128564	7516.8060102296
1	6217	636665.576719323839	6513.1611912535
1	6222	637503.680049014297	5392.7335849586
1	6227	637588.185121146945	5180.3993170772
1	6236	637786.704501708212	3993.5268526445
1	6244	638724.179322895611	3179.9273855969
1	6255	639281.191222516944	2787.5192471126
1	6303	641813.505375614265	74.128663951158
1	6397	648170.694372935123	26.3520164089
1	6440	652082.301495421135	490.67961382053
1	6449	653673.212556337275	5.313482328436
1	6496	655884.841471354065	271.80279034177
1	6515	657207.015018123988	220.7764163012
1	6542	662280.668279213133	0
1	6560	665550.926780878123	0
1	6568	666362.235569644335	0
1	6594	668701.224941024294	0
1	6602	669344.764647460586	0
1	6629	674716.187323967686	0
1	6655	678039.599930853524	0
1	6666	682861.854766836944	0
1	6674	683028.053286382129	18.431452207928
1	6682	683893.413308086488	0
1	6718	689606.81855893357	0
1	6729	690156.008868440059	283.85807503646
1	6734	690665.505045956009	720.21977525483
1	6751	691747.246352454253	0
1	6776	693060.056960714572	0
1	6784	693816.025618457084	596.5943460806
1	6800	694261.63104863921	0
1	6844	699618.955657162722	0
1	6862	702970.859577240752	0
1	6879	705722.217290596857	0
1	6889	708665.380734209284	0
1	6905	709420.13748582953	0
1	6923	711682.38115711325	0
1	6932	713542.956664086321	1295.5529658082
1	6948	713851.177436335335	0
1	6960	715203.988995948581	139.74159652977
1	6978	716758.986071959851	1120.9958569716
1	6990	718319.589297800666	2491.6076373493
1	6998	718429.374764104484	2601.1033881811
1	7006	719118.84994807787	947.82190248743
1	7018	720497.312516576509	2079.9489009481
1	7043	722156.881317487367	79.305693359784
1	7063	724375.519075828766	635.25840225006
1	7068	724772.444865503951	871.96770561214
1	7114	727044.573140683803	424.8452837463
1	7128	728776.115000978453	130.05049295892
1	7159	732057.253133928668	0
1	7167	732743.488686797192	0
1	7185	735241.509714071109	1422.7950777489
1	7190	735282.746851211807	864.17731026773
1	7213	737291.047140553617	764.76818469192
1	7235	738898.82169586253	0
1	7252	740929.168017300887	110.38396176817
1	7268	745104.540408352785	3409.8107780169
1	7273	745455.924948442498	1564.0755975524
1	7290	746106.289494246763	281.21152208367
1	7308	747882.882120772271	1559.374912686
1	7316	749112.230632550471	1366.0733435244
1	7325	750085.207521810274	531.0851624329
1	7386	752349.631450625178	0
1	7396	754598.553970709283	0
1	7412	755542.412209719147	0
1	7422	758575.830301614814	0
1	7431	759696.325642995456	0
1	7460	763368.370680207212	419.0249710143
1	7482	765641.077486013708	0
1	7491	766490.387016415483	0
1	7499	766693.750230946652	0
1	7541	770575.158428537813	0
1	7550	772509.141936623121	810.76525937003
1	7558	772588.570859790721	12.452797956734
1	7566	772944.692152146488	0
1	7608	776423.562897995324	0
1	7625	777563.24480491978	0
1	7634	778621.658726870429	0
1	7642	779783.820926875086	0
1	7660	781832.017493894029	0
1	7671	782558.166310639038	519.82509672973
1	7685	784352.757025045663	0
1	7693	785031.530537271173	650.36029412984
1	7719	787546.597166378029	0
1	7744	789393.818889774175	0
1	7752	789709.243230074779	0
1	7777	791755.759005686529	0
1	7786	792093.795620999464	0
1	7794	792831.38811030353	192.63546883087
1	7819	795089.717341814658	0
1	7862	800187.226129680165	750.70344560264
1	7875	803261.140806301669	2321.052827824
1	7880	803360.036491602539	1062.8805677664
1	7897	805108.685770335636	0
1	7931	808086.497694346755	0
1	7939	808550.464562187407	294.112714376
1	7948	809739.003119059157	0
1	7985	818040.05956699479	424.28001185021
1	7993	818838.496819932256	0
1	8002	819465.131346018058	0
1	8020	823376.950092363381	0
1	8029	826057.48503438292	0
1	8042	828396.513249396425	1887.906106805
1	8047	828471.035203619551	1485.5229165035
1	8073	831891.672005268951	0
1	8081	832325.952441094056	0
1	8122	834803.563739613741	0
1	8143	837259.128998499204	379.31148259678
1	8151	838194.308335166277	206.89449149556
1	8161	840267.118256121494	989.70261736829
1	8192	843635.50766727133	0
1	8201	846544.200889934067	0
1	8236	851339.375147439287	0
1	8253	853027.173480869594	34.20091292142
1	8268	855068.47731560296	1105.8141803452
1	8273	855215.911455467695	947.81949049393
1	8278	855344.472504364855	442.80478718285
1	8290	855993.502475377372	567.97455257092
1	8347	862620.425376033532	0
1	8356	865571.268465809836	0
1	8385	873628.291110889902	0
1	8394	874950.654430207588	0
1	8402	875385.981911669933	0
1	8411	876397.727791065505	861.4596682135
1	8446	881457.0833163727	0
1	8454	882222.226532718614	0
1	8469	882952.984515957488	491.66207154387
1	8474	883106.766798976927	468.42399061313
1	8487	883513.832860881215	0
1	8495	884339.455874896596	0
1	8512	884890.632121944495	117.32977262148
1	8520	886064.03682237279	212.58534280624
1	8541	887372.269119621261	907.56923255344
1	8554	889762.983665589925	3131.1898596871
1	8562	890695.900924604756	2937.6346186767
1	8584	894194.480600367044	5623.2064434419
1	8589	894544.767726756947	3874.0978958417
1	8595	895133.877902713858	4384.8417239096
1	8600	895574.308294012146	2225.1134630348
1	8608	896370.866094807697	102.6159603619
1	8630	898722.148230110986	1600.8239618897
1	8641	899454.180537134168	2115.247517479
1	8689	901073.2301941009	19.626627551811
1	8704	902637.594139774836	1569.6248045794
1	8742	907442.384882444672	1009.5574496681
1	8750	908130.727787123749	1024.7897695621
1	8762	908969.84391633715	1726.7807026214
1	8767	909279.90484763896	1432.033672551
1	8779	910919.194627380856	2374.7754679372
1	8824	913494.13434397442	459.20803525702
1	8873	915324.414542810264	0
1	8890	916402.951036625126	0
1	8898	917046.231288197235	0
1	8941	922234.931835042307	0
1	8962	929498.628285502779	0
1	8970	930691.976349781454	0
1	8986	934060.417895512137	2904.6005702106
1	8995	935022.71494074093	2454.0513372471
1	9000	935042.200328962252	345.6395283002
1	9048	939867.829604717045	491.69162295203
1	9066	942935.564515263369	0
1	9077	943750.953254258595	805.3315483351
1	9082	944084.210765554938	1063.3476561919
1	9108	947646.951848870187	0
1	9124	950439.280813798897	2663.9937906224
1	9129	951224.586330104743	3230.1293061034
1	9135	951517.005600306412	3094.0915694403
1	9168	954559.898650932667	2756.9217986965
1	9177	955209.424397359192	3017.2046033363
1	9192	956844.188174754171	4416.8020378768
1	9203	957873.128930730692	5086.0962847813
1	9208	957957.707913422424	4969.3417772094
1	9217	958614.340191836943	5398.4249485338
1	9228	959199.299209420971	2938.1242634613
1	9233	959286.26633616201	2854.2988580853
1	9238	959427.686749135006	2418.1347587988
1	9253	960859.667647962398	653.36598527468
1	9298	963006.196093268064	67.319436755933
1	9318	967177.47418963057	4131.3365998923
1	9326	967912.804463215069	3310.8161054677
1	9332	968591.539333445242	2443.5864702825
1	9359	969885.042000698182	654.3565145396
1	9412	972563.189248620358	337.4907871769
1	9435	973615.151027661152	0
1	9447	973831.252832055928	117.36947257259
1	9458	975234.034141938756	1518.5745285073
1	9470	976020.093735117059	1283.5009016941
1	9485	977302.422546936405	1928.6093506038
1	9500	979062.506393791752	3679.9246212764
1	9505	979830.464143265998	3260.007585967
1	9515	982390.41579024835	5189.9052908443
1	9585	987314.913234967398	842.03382754572
1	9594	988229.217211703505	961.5690939921
1	9605	988696.662651366992	522.56164856755
1	9610	988803.256512377263	415.57733671659
1	9629	990190.59556547042	0
1	9656	994587.93362466546	0
1	9682	1000892.632165102878	4048.8141868052
1	9695	1003076.702620942681	4123.9870136729
1	9703	1003207.967951860233	3460.4312838244
1	9708	1003471.363106879141	3406.7895275802
1	9713	1003534.870964656755	2996.3507916238
1	9724	1003612.660386014346	2305.4810137935
1	9748	1005309.051436069788	2628.7714609404
1	9754	1006381.426005913485	3245.0507817614
1	9762	1007007.786858761653	3430.6123738888
1	9770	1007680.02597527875	3274.6556743232
1	9778	1007785.34318134843	2831.977929385
1	9784	1008257.920744657199	1233.3250845905
1	9789	1008676.492459174923	984.7592166664
1	9846	1010381.403460903354	66.204208998789
1	9907	1014810.297203930255	0
1	9924	1015807.793690672546	0
1	9932	1016006.728897472072	120.89600287399
1	9949	1017140.911187528261	0
1	9962	1020591.106386777793	2705.2950248152
1	9975	1021406.601220250023	0
1	9984	1022233.031918998685	0
1	9992	1022691.714760575772	274.27074454884
1	10042	1026510.756347458978	0
1	10054	1027141.739404211547	603.22876302893
1	10072	1029404.104303434983	2843.5993557058
1	10078	1030426.735694269976	2559.1030713259
1	10100	1031606.114426382331	298.59985299719
1	10106	1033620.264795498126	2081.99027384
1	10115	1034061.254570953446	240.944044984
1	10123	1034737.419915761626	268.96396851716
1	10146	1039921.437023695446	1036.1142532783
1	10168	1043031.435735115167	2652.2472132631
1	10176	1043855.698570855292	3459.4786963532
1	10188	1044404.648358021348	2643.3366889419
1	10193	1045651.685621961248	3651.2979005184
1	10199	1045824.383355118504	2491.8624909386
1	10204	1046520.770335149487	2388.9148374894
1	10219	1047648.362565663448	688.72629990124
1	10227	1048796.204700570399	1694.4684307804
1	10249	1051835.248206161505	87.880840393682
1	10264	1053840.903812697963	905.83312711372
1	10273	1055122.372598013277	1579.182729758
1	10278	1055508.849851585516	1892.8208194038
1	10318	1056672.346499895216	393.19040296724
1	10341	1058763.418798760136	1202.4465019036
1	10402	1063232.979914417499	871.99072953895
1	10413	1064227.989268546731	173.35910017121
1	10426	1067931.354446043183	3520.0758281932
1	10432	1068854.469898293924	2065.6672182577
1	10441	1070005.119843574355	416.67272162362
1	10527	1075868.439591066623	0
1	10553	1078485.909117199638	0
1	10562	1080201.496050173294	1015.9703391566
1	10579	1082213.84874276287	565.45557607809
1	10588	1083536.404701152812	936.09202900291
1	10622	1087275.721269547139	0
1	10631	1088688.859103503386	0
1	10639	1089256.190250233868	0
1	10648	1090880.570437018582	286.49768353425
1	10674	1094514.856814156455	0
1	10683	1096177.528880547414	0
1	10691	1096588.50917668682	0
1	10709	1099019.546258021104	39.780747140792
1	10734	1102334.700962583636	2440.0691354003
1	10739	1102888.788626266907	2616.8559182134
1	10747	1103572.676446883616	2466.4490780269
1	10777	1106568.773131706334	0
1	10794	1108765.779816826523	0
1	10815	1110537.553370930417	1378.4200144654
1	10820	1110733.495591136918	801.83603313799
1	10846	1114561.578437870781	0
1	10888	1118671.520025675911	0
1	10900	1119696.715887030498	677.4247636136
1	10915	1121597.186376959491	2253.0087139668
1	10920	1121939.228442285891	1143.5972369974
1	10925	1122077.595925100316	721.75926841061
1	10946	1122439.698476876505	0
2	1839	200947.07170250234	1
2	1841	200947.07170250234	0
2	1872	202803.572415895483	1
2	1874	202803.572415895483	0
2	1889	204039.525978010085	1
2	1891	204039.525978010085	0
2	1894	205063.453943712471	1
2	1897	205706.145494861078	2
2	1903	206670.60280357833	1
2	1908	206850.6915636978	0
2	1930	211235.955140257768	1
2	1935	211393.536803136782	0
2	1942	213335.322665928645	1
2	1944	213335.322665928645	0
2	1967	215419.0911459413	1
2	1969	215419.0911459413	0
2	1975	215753.694899101664	1
2	1977	215753.694899101664	0
2	1989	216421.018472737282	1
2	1994	216598.653572231267	0
2	2005	216899.5870602441	1
2	2010	216994.984000424846	0
2	2017	218114.306045494822	1
2	2019	218114.306045494822	0
2	2022	218517.555196839356	1
2	2027	218525.997210317065	0
2	2033	218869.875700947539	1
2	2039	219057.039578174773	2
2	2048	219742.200541216833	1
2	2053	220709.034234496865	0
2	2056	220785.758543382367	1
2	2059	220912.281213098779	2
2	2065	221369.027005923643	1
2	2068	221374.229434423998	2
2	2076	221931.375017618103	1
2	2082	222298.618884129769	2
2	2090	222749.217729162788	1
2	2097	224159.392658530974	2
2	2102	224164.877670192807	1
2	2108	225436.552578030421	0
2	2121	225490.159417057731	1
2	2132	226044.045526901343	0
2	2146	226768.738134274783	1
2	2149	226927.909191706063	2
2	2152	227145.342207041418	3
2	2163	227840.944322870382	2
2	2170	229400.395702478323	3
2	2179	229990.557222527608	2
2	2182	230510.76002512846	3
2	2187	230616.666834814159	2
2	2190	230746.478384041332	3
2	2195	231114.859171820129	2
2	2198	231161.486540877989	3
2	2204	231544.410369482343	2
2	2209	232988.950102445308	1
2	2221	234658.869870424961	0
2	2277	239771.014288892179	1
2	2282	239951.736649740068	0
2	2327	243390.882877208399	1
2	2336	243659.095826476059	0
2	2370	247843.665602467803	1
2	2372	247843.665602467803	0
2	2387	249951.981745748365	1
2	2389	249951.981745748365	0
2	2393	250478.220834236154	1
2	2396	251592.614046828	2
2	2402	252674.576385033023	1
2	2407	252735.781213829274	0
2	2414	253951.06748809303	1
2	2417	254530.121047170474	2
2	2422	254663.491910630527	1
2	2429	256366.078435553046	2
2	2434	256627.450546079382	1
2	2439	256936.70111504848	0
2	2451	257764.826545977386	1
2	2456	257999.214725382916	0
2	2498	261048.046284859527	1
2	2500	261048.046284859527	0
2	2503	261610.155738808649	1
2	2509	262381.746368871495	0
2	2512	262433.68112242876	1
2	2515	262446.021082557047	2
2	2520	263399.914647135077	1
2	2531	263990.876481899844	0
2	2548	265040.269074517515	1
2	2550	265040.269074517515	0
2	2573	266255.66496727903	1
2	2575	266255.66496727903	0
2	2578	266327.556913507079	1
2	2583	266935.006858816095	0
2	2603	268403.306634672954	1
2	2608	268486.222334590972	0
2	2611	268650.064658026283	1
2	2616	268739.960479353214	0
2	2636	270333.818142454517	1
2	2639	270429.408416520994	2
2	2646	271114.880179460331	3
2	2649	271134.70706708714	4
2	2652	271759.279333536694	5
2	2657	272220.121989487103	4
2	2667	274725.144045453082	3
2	2670	275862.004198420717	4
2	2674	276074.006698759389	5
2	2679	276407.114193028446	4
2	2682	276510.605403698567	5
2	2685	276910.323157403126	6
2	2688	276936.04318126863	7
2	2695	278412.820532013876	8
2	2700	278486.090467451437	7
2	2703	278872.126083308983	8
2	2706	278954.483268002448	9
2	2710	279527.540218690022	10
2	2715	279769.134653979856	9
2	2718	279935.922702315202	10
2	2730	281515.359941236457	9
2	2733	281742.780651126768	10
2	2742	283778.284230796391	9
2	2747	283970.614853706734	8
2	2759	285516.108408917758	7
2	2771	287536.485421035367	6
2	2776	287675.796707248192	5
2	2782	288296.908040801059	4
2	2790	288466.036634735261	3
2	2795	289417.783318729124	2
2	2798	289443.781877894582	3
2	2803	289607.387427809511	2
2	2809	290008.439398833205	1
2	2814	290111.758096507782	0
2	2846	291925.006286808343	1
2	2854	292193.900241538913	0
2	2860	292696.163110365737	1
2	2863	292700.766883233852	2
2	2866	292807.358667169302	3
2	2869	292907.908940421274	4
2	2875	293014.911378301681	5
2	2880	293125.207795719688	4
2	2890	293498.713047116817	5
2	2896	293876.176887934218	6
2	2901	294388.69088289886	5
2	2906	294692.880944122903	4
2	2911	294838.023395713679	3
2	2918	295320.500330198301	4
2	2921	296352.682023021867	5
2	2927	296693.927835560482	4
2	2935	296950.582620628233	3
2	2943	297185.616411497869	2
2	2954	297822.116642397733	1
2	2957	297997.676175018871	2
2	2961	298511.096359997034	3
2	2966	299004.987625629777	2
2	2971	299588.569809296871	1
2	2980	300545.353245114087	0
2	3029	302941.354305988546	1
2	3034	302955.77531745291	0
2	3089	305572.792811672523	1
2	3094	305826.899816550375	0
2	3154	311640.219800779957	1
2	3157	311704.185083435624	2
2	3163	312155.780967117204	1
2	3168	312278.855671427706	0
2	3194	315484.492731506794	1
2	3196	315484.492731506794	0
2	3211	317444.547189007738	1
2	3213	317444.547189007738	0
2	3227	318447.935597516026	1
2	3229	318447.935597516026	0
2	3236	319446.673624755887	1
2	3238	319446.673624755887	0
2	3253	321909.478775142301	1
2	3255	321909.478775142301	0
2	3287	325408.983602143251	1
2	3289	325408.983602143251	0
2	3316	333494.188128237575	1
2	3318	333494.188128237575	0
2	3325	335136.587774500212	1
2	3327	335136.587774500212	0
2	3330	335199.16968780858	1
2	3335	335546.374859390983	0
2	3359	338722.162403667191	1
2	3361	338722.162403667191	0
2	3368	340237.805942550489	1
2	3370	340237.805942550489	0
2	3373	340325.415001010785	1
2	3379	342147.659262560611	0
2	3394	344452.471578331325	1
2	3396	344452.471578331325	0
2	3402	344535.136637230406	1
2	3404	344535.136637230406	0
2	3408	346049.734724879982	1
2	3411	346181.036317257034	2
2	3416	346233.042770934919	1
2	3422	346916.113544371574	0
2	3425	346996.720199408043	1
2	3428	347346.643902116576	2
2	3431	347719.994381674184	3
2	3435	347999.19072423336	4
2	3440	348453.892441751767	3
2	3445	348757.344407336399	2
2	3453	348893.660232729659	1
2	3462	350507.809086433817	0
2	3465	350916.672372381784	1
2	3480	352777.158515589234	0
2	3505	354550.863041492771	1
2	3514	354949.314971787735	0
2	3525	355845.201597095286	1
2	3533	356215.767370927326	0
2	3536	356397.238834938324	1
2	3543	356725.877931019633	2
2	3548	356827.171434837429	1
2	3553	357195.785913807977	0
2	3556	357222.069651484637	1
2	3559	357256.795892720847	2
2	3567	357950.472316181873	1
2	3574	358415.698457517823	2
2	3584	361755.272978938241	1
2	3589	361853.739862746637	0
2	3592	362097.122424470948	1
2	3597	362994.752606651583	0
2	3600	363135.468717607469	1
2	3605	363280.493931516853	0
2	3609	363549.550723071382	1
2	3615	364040.80030149325	2
2	3620	364578.156218308161	1
2	3625	364946.225999910711	0
2	3672	367269.52532449652	1
2	3677	367305.535724336726	0
2	3695	368541.052538605201	1
2	3700	368544.698460547259	0
2	3710	368837.171585415168	1
2	3715	368923.743050988546	0
2	3721	369695.04685410914	1
2	3725	370524.583606997895	2
2	3730	370890.979252880731	1
2	3735	370961.987259214348	0
2	3778	373091.887276698468	1
2	3789	373571.891630794317	0
2	3793	374660.855036593875	1
2	3796	374774.142534674719	2
2	3801	374853.919210616853	1
2	3806	375109.986972027424	0
2	3809	375121.22008267962	1
2	3814	375206.065819855388	0
2	3865	377367.053373552855	1
2	3870	377955.833326783553	0
2	3873	378174.728255466456	1
2	3878	378471.121692412673	0
2	3881	378491.216391942112	1
2	3896	380530.759121119433	0
2	3933	382034.807572291145	1
2	3941	382253.935144155524	0
2	3973	389458.499417632797	1
2	3975	389458.499417632797	0
2	3982	391650.648146006939	1
2	3984	391650.648146006939	0
2	4001	397469.588015397555	1
2	4003	397469.588015397555	0
2	4006	397479.814854929374	1
2	4011	397634.001672598948	0
2	4018	398687.126723854526	1
2	4020	398687.126723854526	0
2	4035	401032.889020496614	1
2	4037	401032.889020496614	0
2	4058	403061.773481680726	1
2	4063	403495.421260987187	0
2	4069	403823.963735327063	1
2	4071	403823.963735327063	0
2	4074	404360.612507307159	1
2	4079	404461.304223051325	0
2	4083	404587.250352184484	1
2	4088	404590.476256043592	0
2	4140	407302.8084723281	1
2	4143	407556.691722850429	2
2	4148	407612.6853395272	1
2	4153	407735.787727875991	0
2	4160	409169.728919882766	1
2	4162	409169.728919882766	0
2	4169	410113.463829343619	1
2	4171	410113.463829343619	0
2	4174	410205.78003767174	1
2	4186	413071.207478009436	0
2	4195	413691.155438875274	1
2	4200	413900.656614234066	0
2	4238	419990.459760568698	1
2	4240	419990.459760568698	0
2	4244	420067.549912830575	1
2	4249	420815.011580279013	0
2	4264	422620.995380943226	1
2	4266	422620.995380943226	0
2	4274	425207.891177764126	1
2	4276	425207.891177764126	0
2	4279	426204.101748684971	1
2	4284	426639.052926697543	0
2	4307	427480.925355007829	1
2	4309	427480.925355007829	0
2	4325	431559.987788447414	1
2	4327	431559.987788447414	0
2	4337	432258.812565697742	1
2	4342	433060.41449347845	0
2	4385	438800.021041160506	1
2	4387	438800.021041160506	0
2	4391	439047.811409931571	1
2	4394	439055.931107492524	2
2	4397	439220.608367937879	3
2	4402	440212.796696751418	2
2	4405	440235.49220923224	3
2	4409	440583.288310589035	4
2	4414	441633.477587111559	3
2	4419	441955.302719945994	2
2	4424	442154.274272378231	1
2	4430	442641.641810650542	0
2	4433	442887.874641003753	1
2	4449	445371.558006223211	2
2	4455	445778.99439047198	1
2	4460	445827.511445018834	0
2	4473	446496.821163427613	1
2	4478	446499.889497645216	0
2	4487	447560.986500976316	1
2	4492	447879.033914367067	0
2	4528	450652.713289704769	1
2	4530	450652.713289704769	0
2	4537	451653.2732728232	1
2	4539	451653.2732728232	0
2	4579	454854.293254777261	1
2	4581	454854.293254777261	0
2	4601	456493.402224131273	1
2	4606	456690.148115966557	0
2	4613	458158.844863679343	1
2	4615	458158.844863679343	0
2	4623	461169.298425526557	1
2	4625	461169.298425526557	0
2	4628	461452.281970227237	1
2	4636	461714.315812435411	0
2	4673	464894.596042132036	1
2	4675	464894.596042132036	0
2	4682	467474.423305387813	1
2	4684	467474.423305387813	0
2	4696	468283.97822157055	1
2	4701	468415.862059948932	0
2	4704	468830.041404405337	1
2	4707	468909.781026045105	2
2	4712	469034.293419336217	1
2	4715	469093.37395194789	2
2	4719	470485.222539806908	3
2	4724	470502.764290173289	2
2	4733	472567.143308509333	1
2	4737	473946.011795065461	2
2	4742	474033.282380128497	1
2	4747	474203.562438168032	0
2	4784	476597.19331953815	1
2	4786	476597.19331953815	0
2	4797	477622.792055158361	1
2	4803	478399.501035823252	0
2	4806	478546.925425208968	1
2	4815	480139.654695058114	0
2	4863	489248.138979691786	1
2	4865	489248.138979691786	0
2	4872	491701.833756620325	1
2	4874	491701.833756620325	0
2	4891	496387.018905153241	1
2	4893	496387.018905153241	0
2	4904	497047.153179706701	1
2	4909	497120.279770046523	0
2	4913	498106.071450995093	1
2	4918	498179.633486929788	0
2	4924	498677.059151624826	1
2	4926	498677.059151624826	0
2	4930	499084.091178245787	1
2	4938	500378.538375896572	0
2	4951	502395.419385811052	1
2	4957	502517.958908548749	2
2	4960	502854.968989885805	3
2	4963	503185.468123110541	4
2	4969	504023.028770780757	3
2	4977	504985.234360589315	2
2	4981	506356.827602696101	3
2	4986	507074.020213356002	2
2	4993	507582.692403003196	3
2	4996	507597.590595899768	4
2	5004	508184.272078450132	3
2	5009	508255.060940697919	2
2	5017	508639.782147634431	1
2	5020	508642.23170832779	2
2	5025	508723.381674806744	1
2	5034	509175.563515312571	0
2	5062	511046.188345533882	1
2	5067	511078.535443319303	0
2	5070	511362.952779520557	1
2	5077	513263.796604653435	2
2	5082	513288.039541751688	1
2	5085	513851.06589076255	2
2	5090	514194.292298179109	1
2	5097	515389.55341737645	2
2	5102	515774.054031757716	1
2	5112	516723.898054474673	2
2	5117	516969.077767494807	1
2	5127	519149.38993189991	2
2	5131	519594.784936804388	3
2	5137	522161.176522987435	2
2	5145	522727.811641944001	1
2	5151	522989.992158531127	0
2	5210	526498.515864757542	1
2	5215	526959.402307362667	0
2	5247	529441.334310595521	1
2	5252	529659.610066304375	0
2	5271	530280.044841288533	1
2	5276	530779.445436989818	0
2	5297	533364.465475697846	1
2	5299	533364.465475697846	0
2	5302	534202.197452129515	1
2	5305	534300.120221558311	2
2	5314	535225.224152729968	1
2	5321	538340.11938536689	0
2	5324	539033.260138415821	1
2	5329	539063.541717021379	0
2	5335	539790.952675598549	1
2	5341	541479.878209937718	0
2	5344	541587.303520206038	1
2	5350	541728.960602916415	0
2	5367	543685.437642078479	1
2	5369	543685.437642078479	0
2	5393	547065.525148601494	1
2	5395	547065.525148601494	0
2	5401	547785.309275598344	1
2	5403	547785.309275598344	0
2	5434	549580.901634067159	1
2	5436	549580.901634067159	0
2	5454	551914.177806844838	1
2	5460	552002.159195399007	0
2	5468	552683.197696487003	1
2	5473	552698.111983621299	0
2	5503	557385.796938907557	1
2	5505	557385.796938907557	0
2	5511	558579.11631135914	1
2	5513	558579.11631135914	0
2	5548	566216.247617645162	1
2	5550	566216.247617645162	0
2	5556	566815.119105385279	1
2	5558	566815.119105385279	0
2	5561	567408.503376990548	1
2	5567	567473.622646558572	0
2	5582	569641.102502686676	1
2	5584	569641.102502686676	0
2	5609	574924.507130655356	1
2	5611	574924.507130655356	0
2	5617	575376.817511164884	1
2	5619	575376.817511164884	0
2	5622	575439.996290399707	1
2	5627	575781.232312375783	0
2	5648	578251.148987707584	1
2	5653	578413.075256326755	0
2	5660	579545.60652005311	1
2	5662	579545.60652005311	0
2	5671	579730.732025145869	1
2	5674	579813.055677547512	2
2	5677	579862.026667101196	3
2	5680	580065.558170719941	4
2	5683	580675.10793465095	5
2	5686	580956.34530773854	6
2	5692	581678.971656807466	5
2	5698	581799.564333220295	6
2	5701	582608.097372165391	7
2	5704	582781.262373320825	8
2	5710	583273.648203605433	7
2	5713	583828.782849508364	8
2	5716	584179.079147519409	9
2	5721	584348.007684981601	8
2	5727	584956.616043592303	7
2	5732	585015.531556189486	6
2	5743	586238.388382993822	5
2	5750	587354.510699057545	6
2	5753	587386.848618236655	7
2	5757	588010.077346239665	8
2	5762	588193.687554765951	7
2	5773	589544.441274281149	6
2	5779	589741.167171598843	5
2	5784	589907.363525306186	4
2	5787	589909.777195150704	5
2	5795	590841.25949052935	4
2	5802	592043.30953193322	5
2	5808	592277.777763290731	6
2	5814	592553.433684267486	7
2	5821	593144.667201039633	8
2	5824	593570.340669305387	9
2	5832	594579.250512245051	8
2	5838	595112.601064107252	7
2	5846	595486.550567983485	6
2	5852	595955.010188564561	7
2	5857	595974.216306678406	6
2	5862	596030.81609858327	5
2	5865	596408.732646767964	6
2	5869	597169.427884284838	7
2	5876	600367.522406404039	6
2	5879	600426.942086788992	7
2	5884	600877.68774628497	6
2	5893	602008.356772012977	5
2	5896	602362.059006968391	6
2	5907	603174.423360351035	5
2	5912	603364.823728230311	4
2	5916	603632.907325666273	5
2	5932	606859.527042709365	4
2	5944	609614.652156462269	3
2	5953	610750.856801668443	2
2	5959	610986.955052435109	3
2	5964	611647.635532674808	2
2	5969	611727.907713267639	1
2	5978	612856.238443658363	0
2	5987	614324.010293771842	1
2	5992	614792.210281115342	0
2	6050	616691.82538927269	1
2	6053	617038.156111417117	2
2	6062	617612.918460994644	1
2	6071	619085.080293681993	0
2	6098	620577.251694139178	1
2	6103	620632.786437018438	0
2	6111	620902.22663684619	1
2	6116	621178.608403249817	0
2	6119	622144.307685539851	1
2	6123	622937.402424147769	2
2	6132	624415.404157573657	1
2	6137	625155.896758792379	0
2	6141	625824.438577439462	1
2	6144	626324.780463332155	2
2	6147	626340.561900623344	3
2	6154	627453.917835898971	4
2	6159	627762.536492810645	3
2	6169	630152.415528070319	4
2	6173	632110.946464055675	5
2	6179	632407.785804069736	6
2	6185	633009.262699266815	5
2	6188	633793.177649063675	6
2	6194	634474.227519045561	5
2	6202	634970.723846128564	4
2	6205	635544.251937298732	5
2	6212	636493.671975404355	6
2	6217	636665.576719323839	5
2	6222	637503.680049014297	4
2	6227	637588.185121146945	3
2	6236	637786.704501708212	2
2	6244	638724.179322895611	1
2	6255	639281.191222516944	0
2	6298	641739.376711663107	1
2	6303	641813.505375614265	0
2	6392	648144.342356526223	1
2	6397	648170.694372935123	0
2	6435	651591.621881600603	1
2	6440	652082.301495421135	0
2	6444	653667.899074008839	1
2	6449	653673.212556337275	0
2	6491	655613.038681012291	1
2	6496	655884.841471354065	0
2	6510	656986.238601822783	1
2	6515	657207.015018123988	0
2	6540	662280.668279213133	1
2	6542	662280.668279213133	0
2	6558	665550.926780878123	1
2	6560	665550.926780878123	0
2	6566	666362.235569644335	1
2	6568	666362.235569644335	0
2	6592	668701.224941024294	1
2	6594	668701.224941024294	0
2	6600	669344.764647460586	1
2	6602	669344.764647460586	0
2	6627	674716.187323967686	1
2	6629	674716.187323967686	0
2	6653	678039.599930853524	1
2	6655	678039.599930853524	0
2	6664	682861.854766836944	1
2	6666	682861.854766836944	0
2	6669	683009.621834174201	1
2	6674	683028.053286382129	0
2	6680	683893.413308086488	1
2	6682	683893.413308086488	0
2	6716	689606.81855893357	1
2	6718	689606.81855893357	0
2	6721	689872.150793403599	1
2	6724	689945.285270701181	2
2	6729	690156.008868440059	1
2	6734	690665.505045956009	0
2	6749	691747.246352454253	1
2	6751	691747.246352454253	0
2	6774	693060.056960714572	1
2	6776	693060.056960714572	0
2	6779	693219.431272376482	1
2	6784	693816.025618457084	0
2	6798	694261.63104863921	1
2	6800	694261.63104863921	0
2	6842	699618.955657162722	1
2	6844	699618.955657162722	0
2	6860	702970.859577240752	1
2	6862	702970.859577240752	0
2	6877	705722.217290596857	1
2	6879	705722.217290596857	0
2	6887	708665.380734209284	1
2	6889	708665.380734209284	0
2	6903	709420.13748582953	1
2	6905	709420.13748582953	0
2	6921	711682.38115711325	1
2	6923	711682.38115711325	0
2	6926	712247.403698278111	1
2	6932	713542.956664086321	0
2	6946	713851.177436335335	1
2	6948	713851.177436335335	0
2	6955	715064.24739941881	1
2	6960	715203.988995948581	0
2	6966	715637.990214988246	1
2	6969	715827.981660451343	2
2	6972	715828.271375923373	3
2	6978	716758.986071959851	2
2	6984	718171.028045590443	3
2	6990	718319.589297800666	2
2	6993	718417.363615628403	3
2	6998	718429.374764104484	2
2	7006	719118.84994807787	1
2	7018	720497.312516576509	0
2	7038	722077.575624127583	1
2	7043	722156.881317487367	0
2	7052	723740.260673578711	1
2	7055	723900.47715989181	2
2	7063	724375.519075828766	1
2	7068	724772.444865503951	0
2	7108	726619.727856937504	1
2	7114	727044.573140683803	0
2	7123	728646.064508019532	1
2	7128	728776.115000978453	0
2	7157	732057.253133928668	1
2	7159	732057.253133928668	0
2	7165	732743.488686797192	1
2	7167	732743.488686797192	0
2	7171	733818.71463632225	1
2	7180	734418.569540944074	2
2	7185	735241.509714071109	1
2	7190	735282.746851211807	0
2	7204	736526.278955861696	1
2	7213	737291.047140553617	0
2	7233	738898.82169586253	1
2	7235	738898.82169586253	0
2	7247	740818.784055532712	1
2	7252	740929.168017300887	0
2	7255	741694.729630335896	1
2	7259	743891.849350890138	2
2	7268	745104.540408352785	1
2	7273	745455.924948442498	0
2	7285	745825.077972163096	1
2	7290	746106.289494246763	0
2	7296	746323.507208086267	1
2	7303	747746.157289026048	2
2	7308	747882.882120772271	1
2	7316	749112.230632550471	0
2	7320	749554.122359377376	1
2	7325	750085.207521810274	0
2	7384	752349.631450625178	1
2	7386	752349.631450625178	0
2	7394	754598.553970709283	1
2	7396	754598.553970709283	0
2	7410	755542.412209719147	1
2	7412	755542.412209719147	0
2	7420	758575.830301614814	1
2	7422	758575.830301614814	0
2	7429	759696.325642995456	1
2	7431	759696.325642995456	0
2	7455	762949.345709192915	1
2	7460	763368.370680207212	0
2	7480	765641.077486013708	1
2	7482	765641.077486013708	0
2	7489	766490.387016415483	1
2	7491	766490.387016415483	0
2	7497	766693.750230946652	1
2	7499	766693.750230946652	0
2	7539	770575.158428537813	1
2	7541	770575.158428537813	0
2	7545	771698.376677253086	1
2	7550	772509.141936623121	0
2	7553	772576.118061833987	1
2	7558	772588.570859790721	0
2	7564	772944.692152146488	1
2	7566	772944.692152146488	0
2	7606	776423.562897995324	1
2	7608	776423.562897995324	0
2	7623	777563.24480491978	1
2	7625	777563.24480491978	0
2	7632	778621.658726870429	1
2	7634	778621.658726870429	0
2	7640	779783.820926875086	1
2	7642	779783.820926875086	0
2	7658	781832.017493894029	1
2	7660	781832.017493894029	0
2	7666	782038.341213909311	1
2	7671	782558.166310639038	0
2	7683	784352.757025045663	1
2	7685	784352.757025045663	0
2	7688	784381.170243141335	1
2	7693	785031.530537271173	0
2	7717	787546.597166378029	1
2	7719	787546.597166378029	0
2	7742	789393.818889774175	1
2	7744	789393.818889774175	0
2	7750	789709.243230074779	1
2	7752	789709.243230074779	0
2	7775	791755.759005686529	1
2	7777	791755.759005686529	0
2	7784	792093.795620999464	1
2	7786	792093.795620999464	0
2	7789	792638.752641472663	1
2	7794	792831.38811030353	0
2	7817	795089.717341814658	1
2	7819	795089.717341814658	0
2	7857	799436.522684077521	1
2	7862	800187.226129680165	0
2	7866	800940.087978477693	1
2	7870	802297.155923836148	2
2	7875	803261.140806301669	1
2	7880	803360.036491602539	0
2	7895	805108.685770335636	1
2	7897	805108.685770335636	0
2	7929	808086.497694346755	1
2	7931	808086.497694346755	0
2	7934	808256.351847811408	1
2	7939	808550.464562187407	0
2	7946	809739.003119059157	1
2	7948	809739.003119059157	0
2	7979	817615.779555144581	1
2	7985	818040.05956699479	0
2	7991	818838.496819932256	1
2	7993	818838.496819932256	0
2	8000	819465.131346018058	1
2	8002	819465.131346018058	0
2	8018	823376.950092363381	1
2	8020	823376.950092363381	0
2	8027	826057.48503438292	1
2	8029	826057.48503438292	0
2	8033	826508.607142591439	1
2	8036	826985.512287116057	2
2	8042	828396.513249396425	1
2	8047	828471.035203619551	0
2	8071	831891.672005268951	1
2	8073	831891.672005268951	0
2	8079	832325.952441094056	1
2	8081	832325.952441094056	0
2	8120	834803.563739613741	1
2	8122	834803.563739613741	0
2	8138	836879.817515902424	1
2	8143	837259.128998499204	0
2	8146	837987.413843670717	1
2	8151	838194.308335166277	0
2	8155	839277.415638753204	1
2	8161	840267.118256121494	0
2	8190	843635.50766727133	1
2	8192	843635.50766727133	0
2	8199	846544.200889934067	1
2	8201	846544.200889934067	0
2	8234	851339.375147439287	1
2	8236	851339.375147439287	0
2	8248	852992.972567948174	1
2	8253	853027.173480869594	0
2	8257	853962.663135257716	1
2	8260	854268.091964973761	2
2	8263	854901.667717182007	3
2	8268	855068.47731560296	2
2	8273	855215.911455467695	1
2	8278	855344.472504364855	0
2	8282	855425.527922806448	1
2	8290	855993.502475377372	0
2	8345	862620.425376033532	1
2	8347	862620.425376033532	0
2	8354	865571.268465809836	1
2	8356	865571.268465809836	0
2	8383	873628.291110889902	1
2	8385	873628.291110889902	0
2	8392	874950.654430207588	1
2	8394	874950.654430207588	0
2	8400	875385.981911669933	1
2	8402	875385.981911669933	0
2	8405	875536.268122852004	1
2	8411	876397.727791065505	0
2	8444	881457.0833163727	1
2	8446	881457.0833163727	0
2	8452	882222.226532718614	1
2	8454	882222.226532718614	0
2	8460	882461.322444413614	1
2	8463	882638.342808363801	2
2	8469	882952.984515957488	1
2	8474	883106.766798976927	0
2	8485	883513.832860881215	1
2	8487	883513.832860881215	0
2	8493	884339.455874896596	1
2	8495	884339.455874896596	0
2	8507	884773.302349323013	1
2	8512	884890.632121944495	0
2	8515	885851.45147956655	1
2	8520	886064.03682237279	0
2	8524	886464.699887067823	1
2	8527	886631.79380590284	2
2	8541	887372.269119621261	1
2	8544	887758.266305928024	2
2	8548	888571.274156925108	3
2	8554	889762.983665589925	2
2	8557	890670.66983091521	3
2	8562	890695.900924604756	2
2	8565	890749.036178804223	3
2	8576	893349.194830977351	4
2	8584	894194.480600367044	3
2	8589	894544.767726756947	2
2	8595	895133.877902713858	1
2	8600	895574.308294012146	0
2	8603	896268.250134445796	1
2	8608	896370.866094807697	0
2	8615	897121.324268221251	1
2	8618	897338.933019655201	2
2	8630	898722.148230110986	1
2	8641	899454.180537134168	0
2	8681	901053.603566549089	1
2	8684	901067.969335195415	2
2	8689	901073.2301941009	1
2	8704	902637.594139774836	0
2	8730	906432.827432776611	1
2	8734	907105.938017561668	2
2	8737	907243.063213715767	3
2	8742	907442.384882444672	2
2	8745	907847.871175087927	3
2	8750	908130.727787123749	2
2	8756	908544.419159443668	3
2	8762	908969.84391633715	2
2	8767	909279.90484763896	1
2	8779	910919.194627380856	0
2	8816	913034.926308717402	1
2	8824	913494.13434397442	0
2	8871	915324.414542810264	1
2	8873	915324.414542810264	0
2	8888	916402.951036625126	1
2	8890	916402.951036625126	0
2	8896	917046.231288197235	1
2	8898	917046.231288197235	0
2	8939	922234.931835042307	1
2	8941	922234.931835042307	0
2	8960	929498.628285502779	1
2	8962	929498.628285502779	0
2	8968	930691.976349781454	1
2	8970	930691.976349781454	0
2	8974	931155.8173253015	1
2	8981	932568.663603493854	2
2	8986	934060.417895512137	1
2	8990	934696.560800662055	2
2	8995	935022.71494074093	1
2	9000	935042.200328962252	0
2	9042	939376.137981765013	1
2	9048	939867.829604717045	0
2	9064	942935.564515263369	1
2	9066	942935.564515263369	0
2	9069	942945.6217059235	1
2	9072	943020.863109363005	2
2	9077	943750.953254258595	1
2	9082	944084.210765554938	0
2	9106	947646.951848870187	1
2	9108	947646.951848870187	0
2	9111	947775.287023176473	1
2	9115	947994.457024001389	2
2	9118	948422.914030866095	3
2	9124	950439.280813798897	2
2	9129	951224.586330104743	1
2	9135	951517.005600306412	0
2	9138	951802.976852236191	1
2	9144	952192.219794022895	2
2	9147	952427.386136877385	3
2	9150	952787.032645949429	4
2	9156	952988.366136213014	5
2	9160	953215.915243303096	6
2	9168	954559.898650932667	5
2	9177	955209.424397359192	4
2	9180	956261.174945959633	5
2	9186	956431.967478076733	6
2	9192	956844.188174754171	5
2	9195	957009.551990336243	6
2	9203	957873.128930730692	5
2	9208	957957.707913422424	4
2	9217	958614.340191836943	3
2	9228	959199.299209420971	2
2	9233	959286.26633616201	1
2	9238	959427.686749135006	0
2	9248	960206.30166268772	1
2	9253	960859.667647962398	0
2	9293	962938.876656512131	1
2	9298	963006.196093268064	0
2	9301	963046.137589738275	1
2	9308	964601.988357747387	2
2	9312	966147.952863162707	3
2	9318	967177.47418963057	2
2	9326	967912.804463215069	1
2	9332	968591.539333445242	0
2	9348	969230.685486158579	1
2	9359	969885.042000698182	0
2	9407	972225.698461443456	1
2	9412	972563.189248620358	0
2	9433	973615.151027661152	1
2	9435	973615.151027661152	0
2	9439	973713.88335948334	1
2	9442	973715.459613431504	2
2	9447	973831.252832055928	1
2	9453	974736.592833422965	2
2	9458	975234.034141938756	1
2	9461	975373.813196332556	2
2	9464	975382.581772515335	3
2	9470	976020.093735117059	2
2	9476	976570.456557298989	3
2	9480	977200.510499404014	4
2	9485	977302.422546936405	3
2	9500	979062.506393791752	2
2	9505	979830.464143265998	1
2	9515	982390.41579024835	0
2	9574	986472.87940742168	1
2	9580	987267.648117711404	2
2	9585	987314.913234967398	1
2	9589	988174.101002799444	2
2	9594	988229.217211703505	1
2	9597	988387.679175660671	2
2	9605	988696.662651366992	1
2	9610	988803.256512377263	0
2	9627	990190.59556547042	1
2	9629	990190.59556547042	0
2	9654	994587.93362466546	1
2	9656	994587.93362466546	0
2	9660	996843.817978297644	1
2	9664	998952.71560726974	2
2	9668	999747.536668035788	3
2	9674	1000064.573579298925	4
2	9677	1000538.520173032942	5
2	9682	1000892.632165102878	4
2	9686	1001307.179372220822	5
2	9689	1002680.279975129343	6
2	9695	1003076.702620942681	5
2	9698	1003136.375224152076	6
2	9703	1003207.967951860233	5
2	9708	1003471.363106879141	4
2	9713	1003534.870964656755	3
2	9719	1003577.17448487287	4
2	9724	1003612.660386014346	3
2	9733	1004405.370300955551	4
2	9740	1004953.365251963438	5
2	9748	1005309.051436069788	4
2	9754	1006381.426005913485	3
2	9762	1007007.786858761653	2
2	9765	1007024.595660066737	3
2	9770	1007680.02597527875	2
2	9773	1007691.733242508523	3
2	9778	1007785.34318134843	2
2	9784	1008257.920744657199	1
2	9789	1008676.492459174923	0
2	9841	1010315.199251904565	1
2	9846	1010381.403460903354	0
2	9905	1014810.297203930255	1
2	9907	1014810.297203930255	0
2	9922	1015807.793690672546	1
2	9924	1015807.793690672546	0
2	9927	1015885.832894598084	1
2	9932	1016006.728897472072	0
2	9947	1017140.911187528261	1
2	9949	1017140.911187528261	0
2	9952	1017885.811361962609	1
2	9962	1020591.106386777793	0
2	9973	1021406.601220250023	1
2	9975	1021406.601220250023	0
2	9982	1022233.031918998685	1
2	9984	1022233.031918998685	0
2	9987	1022417.444016026928	1
2	9992	1022691.714760575772	0
2	10040	1026510.756347458978	1
2	10042	1026510.756347458978	0
2	10045	1026538.510641182618	1
2	10048	1026560.504947729184	2
2	10054	1027141.739404211547	1
2	10057	1027867.632622944057	2
2	10072	1029404.104303434983	1
2	10078	1030426.735694269976	0
2	10086	1031307.514573385142	1
2	10092	1031538.274521658171	2
2	10100	1031606.114426382331	1
2	10106	1033620.264795498126	0
2	10110	1033820.310525969449	1
2	10115	1034061.254570953446	0
2	10118	1034468.455947244469	1
2	10123	1034737.419915761626	0
2	10141	1038885.322770417132	1
2	10146	1039921.437023695446	0
2	10149	1040379.188521852108	1
2	10152	1040396.21987450209	2
2	10159	1041761.311669079434	3
2	10162	1042000.387721442814	4
2	10168	1043031.435735115167	3
2	10171	1043332.520864179925	4
2	10176	1043855.698570855292	3
2	10180	1044131.855497660096	4
2	10188	1044404.648358021348	3
2	10193	1045651.685621961248	2
2	10199	1045824.383355118504	1
2	10204	1046520.770335149487	0
2	10210	1046959.636265762206	1
2	10213	1047101.736269789995	2
2	10219	1047648.362565663448	1
2	10227	1048796.204700570399	0
2	10244	1051747.367365767823	1
2	10249	1051835.248206161505	0
2	10253	1052935.070685584239	1
2	10256	1053543.189868255306	2
2	10259	1053616.029032181729	3
2	10264	1053840.903812697963	2
2	10273	1055122.372598013277	1
2	10278	1055508.849851585516	0
2	10313	1056279.156096927972	1
2	10318	1056672.346499895216	0
2	10329	1057560.972296856492	1
2	10341	1058763.418798760136	0
2	10396	1062360.989184878546	1
2	10402	1063232.979914417499	0
2	10405	1064054.630168375524	1
2	10413	1064227.989268546731	0
2	10416	1064411.278617850026	1
2	10421	1066788.802680036269	2
2	10426	1067931.354446043183	1
2	10432	1068854.469898293924	0
2	10435	1069588.447121950731	1
2	10441	1070005.119843574355	0
2	10525	1075868.439591066623	1
2	10527	1075868.439591066623	0
2	10551	1078485.909117199638	1
2	10553	1078485.909117199638	0
2	10556	1079185.525711016729	1
2	10562	1080201.496050173294	0
2	10573	1081648.393166684777	1
2	10579	1082213.84874276287	0
2	10582	1082600.312672149901	1
2	10588	1083536.404701152812	0
2	10620	1087275.721269547139	1
2	10622	1087275.721269547139	0
2	10629	1088688.859103503386	1
2	10631	1088688.859103503386	0
2	10637	1089256.190250233868	1
2	10639	1089256.190250233868	0
2	10643	1090594.072753484327	1
2	10648	1090880.570437018582	0
2	10672	1094514.856814156455	1
2	10674	1094514.856814156455	0
2	10681	1096177.528880547414	1
2	10683	1096177.528880547414	0
2	10689	1096588.50917668682	1
2	10691	1096588.50917668682	0
2	10704	1098979.765510880312	1
2	10709	1099019.546258021104	0
2	10718	1099894.631827183356	1
2	10721	1100271.932708053469	2
2	10725	1101106.227368856666	3
2	10734	1102334.700962583636	2
2	10739	1102888.788626266907	1
2	10747	1103572.676446883616	0
2	10775	1106568.773131706334	1
2	10777	1106568.773131706334	0
2	10792	1108765.779816826523	1
2	10794	1108765.779816826523	0
2	10798	1109159.133356465043	1
2	10804	1109931.659557998925	2
2	10815	1110537.553370930417	1
2	10820	1110733.495591136918	0
2	10844	1114561.578437870781	1
2	10846	1114561.578437870781	0
2	10886	1118671.520025675911	1
2	10888	1118671.520025675911	0
2	10891	1119019.2911234169	1
2	10894	1119344.177662992669	2
2	10900	1119696.715887030498	1
2	10906	1120795.631205288446	2
2	10910	1121355.83665668971	3
2	10915	1121597.186376959491	2
2	10920	1121939.228442285891	1
2	10925	1122077.595925100316	0
2	10944	1122439.698476876505	1
2	10946	1122439.698476876505	0
2	10949	1122838.261924994917	1
2	10953	1122914.654679498747	2
3	1833	200782.233546606084	0
3	1849	201428.310840916779	0
3	1857	201633.986971727059	74.894358889926
3	1865	202278.35105207228	0
3	1882	203774.747484586747	0
3	1917	207931.699790919748	0
3	1927	210983.903609330591	0
3	1952	213669.676359785227	0
3	1961	214441.198678087277	68.329710979505
3	1986	216315.730533729665	0
3	2002	216881.902695933894	0
3	2113	225463.03691660605	6926.024718639
3	2118	225468.564014531155	6442.2345351669
3	2138	226294.556206367968	7054.9248595982
3	2143	226362.49402659759	4755.9487516894
3	2240	237784.651210426521	15585.198746018
3	2245	237987.8321137527	15484.61782352
3	2251	239118.231127285255	15507.654430463
3	2256	239265.264978562984	13735.590999438
3	2261	239284.43969677299	13563.815446158
3	2266	239343.784678814839	11864.68184441
3	2274	239735.343734190345	12251.777634167
3	2288	240540.823338011028	12551.491809991
3	2293	240698.110622261544	11070.555704827
3	2298	240827.438554664861	7234.8518791604
3	2303	241021.313122905901	7392.8184924644
3	2309	241980.666191484032	7037.7424138494
3	2314	242046.153435227551	6106.2528437813
3	2319	242260.232401544996	6131.8228042556
3	2324	242563.694317146818	6260.9614795508
3	2341	243847.359261809334	4379.2170468932
3	2346	244212.652646127243	619.15990086229
3	2354	244790.8740992001	0
3	2364	247045.858539049586	0
3	2381	249595.358257457403	0
3	2448	257518.250443370305	4594.8729982782
3	2461	258348.820088486872	2522.1179952459
3	2469	258430.233980367688	1395.5206262684
3	2475	259061.973793917684	687.15227641606
3	2483	259555.437520117649	0
3	2491	260547.254232960229	0
3	2537	264115.082736036537	628.48133633338
3	2542	264316.860189890802	797.51842400787
3	2558	265636.722251064163	0
3	2567	266044.034838371464	0
3	2591	267044.228011213386	0
3	2600	268078.999372243442	0
3	2625	269171.788741027739	0
3	2633	270303.157260479595	0
3	2822	290331.842802795021	19538.855480417
3	2827	290503.888753734762	17457.051755417
3	2832	290567.974715837892	13374.682694047
3	2837	290620.618097015084	10281.401530472
3	2843	291611.109408441378	10954.237674642
3	2985	300839.318866869033	18180.449647169
3	2990	300856.026596826504	16229.541811243
3	2995	300935.63296120241	15511.737285851
3	3001	301721.836406999018	15609.250750345
3	3006	301755.817447296171	15160.668855597
3	3011	301868.510397468154	13430.025287601
3	3016	302106.892548065698	11963.902464969
3	3021	302558.394302707799	10463.294501794
3	3026	302685.957924757265	10358.522640786
3	3040	303762.546295372822	10771.798991847
3	3048	304022.970465957427	10846.848446738
3	3053	304349.773603487782	10953.435043005
3	3061	304670.724538247967	11011.589971259
3	3066	304676.518034482611	9747.4388845757
3	3081	305475.444491898366	8729.4716445284
3	3086	305533.793286676849	8490.679727954
3	3107	309590.690440214106	12331.215864372
3	3112	309921.114468294143	12178.891319791
3	3117	309993.629685161975	10254.945561049
3	3122	310012.865051486233	6092.0072329708
3	3131	310414.479332740816	5914.8635354522
3	3136	310672.212960977639	5719.0658321494
3	3141	310743.711853501249	5763.2951068133
3	3146	310946.771812534817	5513.0690437429
3	3151	311214.0740932952	5001.3633732074
3	3173	313181.179539437288	4113.9509059695
3	3178	313249.989000897301	3097.469631656
3	3187	314053.14936707434	507.86835323476
[...]
7	5093	515073.715061732151	2
7	5100	515774.054031757716	3
7	5105	516017.034423842123	2
7	5108	516648.189375241021	1
7	5115	516969.077767494807	2
7	5119	517038.346465671137	1
7	5123	519108.586184977058	0
7	5135	522161.176522987435	1
7	5139	522287.167468985434	0
7	5143	522727.811641944001	1
7	5149	522989.992158531127	2
7	5153	523477.767601925045	1
7	5157	523596.519006118923	2
7	5171	524498.302188210121	1
7	5200	526212.418258074699	0
7	5218	527620.380972090867	1
7	5238	528398.678488912558	0
7	5256	529735.214028038188	1
7	5279	532474.515119476676	0
7	5283	532796.25039467273	1
7	5307	534349.825040787958	0
7	5312	535225.224152729968	1
7	5319	538340.11938536689	2
7	5327	539063.541717021379	3
7	5331	539166.487682878945	2
7	5339	541479.878209937718	3
7	5348	541728.960602916415	4
7	5353	542778.902542126301	5
7	5371	543748.90715526586	4
7	5375	543798.033200095789	5
7	5379	544065.918457039533	4
7	5398	547173.053701647303	5
7	5405	548433.141293078312	4
7	5408	548521.727755270469	3
7	5413	548713.423153021549	4
7	5417	549334.404521060201	3
7	5438	549818.729313774823	2
7	5442	550681.059336779921	1
7	5445	550729.705865172486	0
7	5449	551908.366094995282	1
7	5463	552295.451840097021	2
7	5475	553128.05378945459	1
7	5480	554220.018627896025	2
7	5494	557184.754178442908	1
7	5508	557986.107201616846	2
7	5517	558858.465838818989	3
7	5519	559216.358891113847	2
7	5527	560349.721282564511	1
7	5537	562387.503536514798	0
7	5553	566368.966960527493	1
7	5565	567473.622646558572	2
7	5570	567485.018495476189	3
7	5572	568853.110281536858	2
7	5587	569731.089664272844	3
7	5589	570029.670193646518	2
7	5598	571250.232395577752	1
7	5614	575125.095437721377	2
7	5625	575781.232312375783	3
7	5630	575946.508614955331	4
7	5634	577800.71135285699	3
7	5639	577872.111000903267	2
7	5656	579286.613035927139	3
7	5664	579655.8986334598	2
7	5667	579703.333081196828	1
7	5690	581678.971656807466	2
7	5694	581688.05217612266	1
7	5708	583273.648203605433	2
7	5719	584348.007684981601	3
7	5725	584956.616043592303	4
7	5730	585015.531556189486	5
7	5734	585312.036007152455	4
7	5737	586100.332360936733	3
7	5741	586238.388382993822	4
7	5746	586668.869413862958	3
7	5760	588193.687554765951	4
7	5764	588355.351543473599	3
7	5767	589070.819362954158	2
7	5771	589544.441274281149	3
7	5777	589741.167171598843	4
7	5782	589907.363525306186	5
7	5789	589936.547363591166	4
7	5793	590841.25949052935	5
7	5798	591825.987775986277	4
7	5804	592155.28281209016	3
7	5810	592486.347388610949	2
7	5816	593079.483318242748	1
7	5826	593878.994390721525	0
7	5830	594579.250512245051	1
7	5836	595112.601064107252	2
7	5840	595165.07140318081	1
7	5844	595486.550567983485	2
7	5848	595774.250222369258	1
7	5855	595974.216306678406	2
7	5860	596030.81609858327	3
7	5874	600367.522406404039	4
7	5882	600877.68774628497	5
7	5886	601200.847567297844	4
7	5891	602008.356772012977	5
7	5898	602530.022053309279	4
7	5901	602532.212880629762	3
7	5905	603174.423360351035	4
7	5910	603364.823728230311	5
7	5918	603916.20046884033	4
7	5921	604157.05498478129	3
7	5925	605166.271563161524	2
7	5930	606859.527042709365	3
7	5934	607272.890480683579	2
7	5938	609234.761733227079	1
7	5942	609614.652156462269	2
7	5947	610533.038740192054	1
7	5951	610750.856801668443	2
7	5955	610913.416158827773	1
7	5962	611647.635532674808	2
7	5967	611727.907713267639	3
7	5971	611988.687883176193	2
7	5976	612856.238443658363	3
7	5982	614322.112379539177	4
7	5994	615283.368989915541	3
7	5997	615287.258984779509	2
7	6002	615465.709733095949	3
7	6031	616495.274490866973	2
7	6056	617483.484302189797	1
7	6064	617632.512770635532	0
7	6069	619085.080293681993	1
7	6074	619164.073698610345	2
7	6078	619654.695018763599	1
7	6106	620835.127883477063	2
7	6125	623487.325878173511	1
7	6130	624415.404157573657	2
7	6135	625155.896758792379	3
7	6149	626556.728117149189	2
7	6157	627762.536492810645	3
7	6161	628496.285776299761	2
7	6164	629011.590769983698	1
7	6175	632322.016312257713	0
7	6183	633009.262699266815	1
7	6192	634474.227519045561	2
7	6196	634646.674509201946	1
7	6200	634970.723846128564	2
7	6207	635928.84097560213	1
7	6215	636665.576719323839	2
7	6220	637503.680049014297	3
7	6225	637588.185121146945	4
7	6229	637696.269560403527	3
7	6234	637786.704501708212	4
7	6238	638637.889728497013	3
7	6242	638724.179322895611	4
7	6246	638870.953373655253	3
7	6249	638945.111213427577	2
7	6253	639281.191222516944	3
7	6258	639290.067393880368	4
7	6268	639748.145665716653	3
7	6305	642027.61616430118	2
7	6310	644446.401595394603	3
7	6320	644672.474865904604	2
7	6328	645029.634758167651	1
7	6331	645210.405160950748	0
7	6400	648555.653194982822	1
7	6404	648910.814699971438	0
7	6447	653673.212556337275	1
7	6452	653700.94531143963	2
7	6466	654547.568981827051	1
7	6500	656760.172366467073	2
7	6517	657564.089344574322	1
7	6521	658129.793584617336	2
7	6529	658396.433584983037	1
7	6544	662478.876909068259	0
7	6549	663425.379063407541	1
7	6563	665791.778396698048	2
7	6571	666992.126151322731	1
7	6574	667034.299326679519	0
7	6578	667644.99251209935	1
7	6597	668934.583663541079	2
7	6606	670327.709577596718	3
7	6608	670757.410326246484	2
7	6613	670853.439392082746	1
7	6632	674822.841059578596	2
7	6635	676537.065673694572	1
7	6640	676543.760331740421	0
7	6658	678311.16025794907	1
7	6672	683028.053286382129	2
7	6677	683293.349924270136	3
7	6685	683975.453011693584	4
7	6688	684708.085919046202	3
7	6696	685680.176016787144	2
7	6707	689503.78888492556	1
7	6727	690156.008868440059	2
7	6732	690665.505045956009	3
7	6738	690847.257918884949	4
7	6740	691105.646409132238	3
7	6754	692240.812517143558	4
7	6756	692403.582080618115	3
7	6765	692950.495926014269	2
7	6782	693816.025618457084	3
7	6786	693852.861612594756	2
7	6790	693971.660664253643	3
7	6804	694332.548190584	4
7	6806	694710.428323386939	3
7	6814	695410.054736976289	2
7	6823	696572.411029813726	1
7	6828	696823.650874211764	0
7	6848	701486.049253926324	1
7	6850	702026.420310424395	0
7	6865	704116.320907769676	1
7	6867	704327.252357821469	0
7	6883	707963.766639284	1
7	6892	708721.926787649798	2
7	6894	708828.845019314832	1
7	6909	709935.508230045874	2
7	6911	710094.246675500741	1
7	6930	713542.956664086321	2
7	6935	713646.375030424078	3
7	6937	713769.222450016714	2
7	6950	714013.485391938853	1
7	6958	715203.988995948581	2
7	6962	715392.233338436251	1
7	6976	716758.986071959851	2
7	6980	716972.987086291301	1
7	6988	718319.589297800666	2
7	6996	718429.374764104484	3
7	7000	718507.938954366031	2
7	7004	719118.84994807787	3
7	7008	719252.579096377991	2
7	7011	719340.468959985241	1
7	7016	720497.312516576509	2
7	7021	720759.432685322795	3
7	7025	721542.21359454073	2
7	7029	721996.161844028853	1
7	7047	723551.156201085908	2
7	7057	724060.447526323016	1
7	7066	724772.444865503951	2
7	7070	724786.101035207138	1
7	7073	724898.98751845157	0
7	7078	725583.075804442503	1
7	7117	728444.154826120442	2
7	7131	729494.02470582441	3
7	7138	730116.498294338123	2
7	7147	730480.532663681562	1
7	7162	732450.704836369808	2
7	7173	734048.539129981848	1
7	7176	734306.800718368837	0
7	7183	735241.509714071109	1
7	7188	735282.746851211807	2
7	7194	736413.356012252209	3
7	7206	736923.147963922912	2
7	7216	737758.583622889722	3
7	7223	738283.117237443944	2
7	7238	740725.164079656941	1
7	7242	740791.43628074722	2
7	7262	744908.159096046913	1
7	7266	745104.540408352785	2
7	7271	745455.924948442498	3
7	7275	745509.57659323498	2
7	7279	745674.538579626623	3
7	7292	746296.778498711168	2
7	7298	746414.672624731964	1
7	7306	747882.882120772271	2
7	7310	748664.051285037219	1
7	7314	749112.230632550471	2
7	7323	750085.207521810274	3
7	7328	750161.212235743118	4
7	7337	750584.277811769521	3
7	7340	750754.199804809372	2
7	7344	751186.101399222506	1
7	7375	752095.181316623873	0
7	7390	753481.83773432248	1
7	7398	754855.572138591636	0
7	7402	755064.934301696663	1
7	7416	756717.369777615311	2
7	7425	758896.524691299024	3
7	7433	760317.765435680796	2
7	7436	760559.739330306375	1
7	7440	761966.240198642434	0
7	7445	762914.564976597313	1
7	7463	763547.926189238456	2
7	7471	764712.028457647193	1
7	7485	765872.52005780556	2
7	7494	766583.34097932366	3
7	7501	766894.408364721987	2
7	7505	767116.163416678637	3
7	7512	767265.305782547027	2
7	7517	767382.693748600378	1
7	7529	769047.649114640111	0
7	7548	772509.141936623121	1
7	7556	772588.570859790721	2
7	7561	772608.107956396484	3
7	7569	773524.746643176515	2
7	7572	773834.210030503868	1
7	7576	774443.314281910696	2
7	7588	774690.100737694429	1
7	7593	774704.807886639982	0
7	7611	776480.588834332625	1
7	7614	776958.514297797301	0
7	7628	778063.054716908055	1
7	7637	779280.783374454315	2
7	7644	779821.372879100181	1
7	7649	780389.150516695452	2
7	7662	782021.819165210314	1
7	7669	782558.166310639038	2
7	7674	783246.554527507892	3
7	7691	785031.530537271173	4
7	7697	785220.738157491831	5
7	7699	785583.306521572345	4
7	7707	785729.218474773023	3
7	7722	787774.747832093691	4
7	7724	788245.027969675064	3
7	7732	788506.329650336335	2
7	7747	789650.647673146644	3
7	7754	790181.120312448441	2
7	7759	790421.701878434558	3
7	7766	791110.836084379896	2
7	7780	791804.422105284068	3
7	7792	792831.38811030353	4
7	7797	792896.133279534014	5
7	7799	793391.869168817393	4
7	7804	793539.765273727241	3
7	7823	796274.113338508876	4
7	7825	796556.687912631832	3
7	7834	797199.03953271156	2
7	7842	798132.899404811363	1
7	7851	799343.77538903367	0
7	7873	803261.140806301669	1
7	7878	803360.036491602539	2
7	7882	803613.5771288425	1
7	7887	804114.32267414452	2
7	7901	806553.597953726019	3
7	7903	806605.793077726166	2
7	7912	807493.26094848902	1
7	7917	807818.919070400909	0
7	7937	808550.464562187407	1
7	7942	808779.754969078669	2
7	7951	811016.03976595345	1
7	7954	811141.017251552832	0
7	7958	812146.326232030081	1
7	7973	816890.098194089189	0
7	7988	818758.269210987068	1
7	7996	819057.450853566565	2
7	8005	820321.627678451908	3
7	8008	821667.251526515942	2
7	8023	824377.342007989683	3
7	8040	828396.513249396425	4
7	8045	828471.035203619551	5
7	8049	829073.644000468237	4
7	8054	829779.252621126263	5
7	8061	830623.488530003882	4
7	8076	832150.637331244292	5
7	8083	832444.045465820209	4
7	8087	832496.16554709132	5
7	8094	833042.688055083498	4
7	8100	833175.062993699524	3
7	8111	834457.621721411767	2
7	8125	835669.122431727322	1
7	8129	836576.318663605213	0
7	8133	836676.070637859438	1
7	8149	838194.308335166277	2
7	8159	840267.118256121494	3
7	8164	840280.469590227381	4
7	8171	841126.681684423644	3
7	8176	841505.766271092979	2
7	8195	843960.806493816947	3
7	8204	846647.216465306285	4
7	8207	847711.117498227503	3
7	8216	848686.861611826238	2
7	8221	849197.42912873599	1
7	8240	852031.083127184132	2
7	8242	852700.533408537885	1
7	8266	855068.47731560296	2
7	8271	855215.911455467695	3
7	8276	855344.472504364855	4
7	8284	855638.680801663071	3
7	8288	855993.502475377372	4
7	8293	856147.127584058387	5
7	8297	856869.279549862443	4
7	8309	857653.807338374389	3
7	8317	858143.089396317492	2
7	8326	858903.716556607274	1
7	8336	862394.027182817728	0
7	8350	862714.41334144838	1
7	8360	867168.306927182701	2
7	8363	868471.240372589926	1
7	8368	868490.130815563571	0
7	8388	874228.10461355831	1
7	8397	875105.050971975129	2
7	8409	876397.727791065505	3
7	8413	876539.709244042742	2
7	8416	876923.496139406364	1
7	8420	876984.322207008081	2
7	8433	879164.209927300778	1
7	8449	881819.749296209015	2
7	8456	882421.701346897652	1
7	8467	882952.984515957488	2
7	8472	883106.766798976927	3
7	8477	883152.061551904796	4
7	8490	883791.45387464774	5
7	8497	884385.946007000365	4
7	8502	884713.799441831951	5
7	8518	886064.03682237279	6
7	8529	886740.250781085678	5
7	8532	886769.410652850906	4
7	8535	887131.536059441419	3
7	8539	887372.269119621261	4
7	8552	889762.983665589925	5
7	8560	890695.900924604756	6
7	8568	892127.030028132699	5
7	8571	892909.924849080273	4
7	8578	894062.935929576837	3
7	8582	894194.480600367044	4
7	8587	894544.767726756947	5
7	8593	895133.877902713858	6
7	8598	895574.308294012146	7
7	8606	896370.866094807697	8
7	8611	896830.636072699575	7
7	8620	897654.630646775086	6
7	8623	898175.320564709774	5
7	8628	898722.148230110986	6
7	8632	898764.514152401399	5
7	8635	899042.393484271404	4
7	8639	899454.180537134168	5
7	8644	899641.634303172474	6
7	8653	899958.431709935783	5
7	8677	900833.805084633194	4
7	8691	901419.292203494934	3
7	8694	901468.422589152836	2
7	8698	901725.675971016627	1
7	8702	902637.594139774836	2
7	8706	902682.91115684616	1
7	8711	904725.485852144244	2
7	8721	905595.146003427466	1
7	8748	908130.727787123749	2
7	8752	908343.803633673071	1
7	8760	908969.84391633715	2
7	8765	909279.90484763896	3
7	8769	909679.550184621915	2
7	8772	910133.021909187067	1
7	8777	910919.194627380856	2
7	8782	911675.878058101092	3
7	8802	912321.036864716542	2
7	8818	913288.850350021193	1
7	8828	914218.902964664696	2
7	8877	915499.492014559499	3
7	8879	916163.905035449119	2
7	8893	916492.60294181273	3
7	8901	918593.341018656921	2
7	8905	919845.435375540341	1
7	8909	920105.947388606239	2
7	8922	921375.783673003184	1
7	8930	921501.949654789927	0
7	8945	922748.585002991253	1
7	8947	923966.97893769445	0
7	8965	930013.60574499384	1
7	8976	932509.155405396156	0
7	8984	934060.417895512137	1
7	8993	935022.71494074093	2
7	8998	935042.200328962252	3
7	9002	935433.973902074816	2
7	9006	935524.240795037245	3
7	9019	936713.235443536927	2
7	9027	936913.976983177886	1
7	9036	939292.624421444956	0
7	9051	939895.256556461428	1
7	9053	939995.205079079736	0
7	9075	943750.953254258595	1
7	9080	944084.210765554938	2
7	9086	944806.052935643519	3
7	9088	946199.476823754433	2
7	9097	946383.481348470841	1
7	9122	950439.280813798897	2
7	9127	951224.586330104743	3
7	9133	951517.005600306412	4
7	9140	952170.985033094381	3
7	9152	952812.543655211067	2
7	9162	953669.484729183482	1
7	9166	954559.898650932667	2
7	9170	954836.926624474443	1
7	9175	955209.424397359192	2
7	9182	956343.992172511986	1
7	9190	956844.188174754171	2
7	9197	957466.773493247701	1
7	9201	957873.128930730692	2
7	9206	957957.707913422424	3
7	9210	958075.266362434751	2
7	9215	958614.340191836943	3
7	9219	958635.233615807092	2
7	9222	958801.637776374987	1
7	9226	959199.299209420971	2
7	9231	959286.26633616201	3
7	9236	959427.686749135006	4
7	9240	959632.786001528019	3
7	9244	960102.637960228667	2
7	9251	960859.667647962398	3
7	9255	960868.578600637563	2
7	9258	961395.956384235412	1
7	9263	961930.357618742583	2
7	9303	963123.789460022607	1
7	9316	967177.47418963057	2
7	9320	967371.222051513043	1
7	9324	967912.804463215069	2
7	9330	968591.539333445242	3
7	9335	968612.680622440225	4
7	9339	968715.079969744979	3
7	9350	969402.209602138441	2
7	9353	969407.477011021784	1
7	9363	970677.915983134388	2
7	9372	970938.901850687812	1
7	9415	973013.258630834882	2
7	9445	973831.252832055928	3
7	9449	974141.790029562726	2
7	9456	975234.034141938756	3
7	9468	976020.093735117059	4
7	9472	976537.969849024292	3
7	9483	977302.422546936405	4
7	9487	977565.590031476838	3
7	9490	977631.667229101683	2
7	9493	978585.938783585129	1
7	9498	979062.506393791752	2
7	9503	979830.464143265998	3
7	9507	979964.737019559226	2
7	9513	982390.41579024835	3
7	9518	982922.215718069686	4
7	9533	984014.445831878324	3
7	9541	984231.270689369564	2
7	9560	985994.27119569574	1
7	9576	986731.374209208758	0
7	9592	988229.217211703505	1
7	9599	988430.274093024998	0
7	9603	988696.662651366992	1
7	9608	988803.256512377263	2
7	9613	988854.979312551173	3
7	9632	990737.298825961645	4
7	9635	991459.54044376825	3
7	9643	991817.900304502071	2
7	9670	999914.973454259183	1
7	9680	1000892.632165102878	2
7	9693	1003076.702620942681	3
7	9701	1003207.967951860233	4
7	9706	1003471.363106879141	5
7	9711	1003534.870964656755	6
7	9715	1003567.658629077585	5
7	9722	1003612.660386014346	6
7	9726	1003802.111525708826	5
7	9729	1003811.271596537697	4
7	9736	1004680.416464024874	3
7	9742	1004990.929229399321	2
7	9746	1005309.051436069788	3
7	9752	1006381.426005913485	4
7	9756	1006551.720682645827	3
7	9760	1007007.786858761653	4
7	9768	1007680.02597527875	5
7	9776	1007785.34318134843	6
7	9782	1008257.920744657199	7
7	9787	1008676.492459174923	8
7	9792	1008987.131806666629	9
7	9796	1009168.779626565939	8
7	9799	1009211.391086889373	7
7	9817	1009366.220125049382	6
7	9831	1009709.009419857751	5
7	9834	1009843.759937503555	4
7	9837	1009913.261008831005	3
7	9849	1010520.403614487016	4
7	9858	1010706.118615154396	3
7	9887	1012362.542363002221	2
7	9910	1014810.639346368795	3
7	9913	1015079.13299299068	2
7	9930	1016006.728897472072	3
7	9935	1016247.667420957729	4
7	9938	1016615.443473618955	3
7	9954	1018192.689243593628	2
7	9960	1020591.106386777793	3
7	9965	1020723.0225120515	4
7	9979	1021747.597741088125	5
7	9990	1022691.714760575772	6
7	9995	1022765.460861427917	7
7	9998	1023737.736694737097	6
7	10006	1024068.231706451031	5
7	10011	1024270.864441866574	4
7	10023	1025389.987567914616	3
7	10028	1025551.540497613964	2
7	10052	1027141.739404211547	3
7	10059	1028348.127188969196	2
7	10062	1028415.83474951957	1
7	10066	1029026.320976944679	0
7	10070	1029404.104303434983	1
7	10076	1030426.735694269976	2
7	10081	1031129.498486271977	3
7	10088	1031335.837447353022	2
7	10094	1031602.320073613104	1
7	10104	1033620.264795498126	2
7	10113	1034061.254570953446	3
7	10121	1034737.419915761626	4
7	10125	1034841.12712046226	3
7	10128	1034993.738590189864	2
7	10132	1035718.322188817468	1
7	10136	1037647.412109508281	0
7	10144	1039921.437023695446	1
7	10155	1041692.778396780106	0
7	10166	1043031.435735115167	1
7	10174	1043855.698570855292	2
7	10182	1044195.285321373203	1
7	10186	1044404.648358021348	2
7	10191	1045651.685621961248	3
7	10197	1045824.383355118504	4
7	10202	1046520.770335149487	5
7	10206	1046765.891050783705	4
7	10217	1047648.362565663448	5
7	10221	1048105.251888573591	4
7	10225	1048796.204700570399	5
7	10230	1049400.934183103883	4
7	10233	1049978.215560886752	3
7	10236	1050228.888372402898	2
7	10240	1050855.151906820799	1
7	10247	1051835.248206161505	2
7	10262	1053840.903812697963	3
7	10267	1054407.199541242251	2
7	10271	1055122.372598013277	3
7	10276	1055508.849851585516	4
7	10280	1055676.287892894337	3
7	10283	1055745.307667345283	2
7	10287	1055783.22327801301	3
7	10320	1057135.689213271332	2
7	10324	1057557.670799902163	3
7	10332	1057945.032730879488	2
7	10335	1058687.128796597561	1
7	10344	1058871.04056129018	2
7	10407	1064214.247855837598	1
7	10411	1064227.989268546731	2
7	10424	1067931.354446043183	3
7	10430	1068854.469898293924	4
7	10439	1070005.119843574355	5
7	10443	1070343.716803638488	4
7	10447	1071365.403215558411	5
7	10451	1071405.751066450379	4
7	10455	1071786.130469588654	3
7	10494	1073458.678430413657	2
7	10502	1073947.183171740366	1
7	10530	1076031.315977144545	2
7	10533	1076986.3630639754	1
7	10541	1078167.691488631838	0
7	10560	1080201.496050173294	1
7	10565	1080937.122975346195	2
7	10567	1081266.7293224724	1
7	10586	1083536.404701152812	2
7	10591	1083548.182884462355	3
7	10593	1083579.660099430834	2
7	10602	1085656.751295714345	1
7	10607	1085846.32003497927	0
7	10625	1087766.450898190427	1
7	10634	1088952.713660938539	2
7	10646	1090880.570437018582	3
7	10650	1091548.615127114511	2
7	10654	1091947.933732261378	3
7	10662	1092626.844757078163	2
7	10677	1095209.993157989435	3
7	10686	1096193.514788489365	4
7	10694	1096696.835321022753	5
7	10697	1097580.109179238383	4
7	10711	1099125.332483885504	3
7	10714	1099818.967152706846	2
7	10727	1101594.062016222125	1
7	10732	1102334.700962583636	2
7	10737	1102888.788626266907	3
7	10741	1103018.835660760307	2
7	10745	1103572.676446883616	3
7	10751	1105155.791254078099	4
7	10779	1107275.318644148007	3
7	10784	1107473.335918579895	4
7	10800	1109412.702733909408	3
7	10806	1109958.475747389211	2
7	10809	1110096.065772278756	1
7	10813	1110537.553370930417	2
7	10818	1110733.495591136918	3
7	10825	1112966.721000455114	4
7	10848	1114662.770437255309	3
7	10852	1114689.055570720472	4
7	10859	1114811.246334213865	3
7	10867	1115666.589531712035	2
7	10876	1116595.876238210535	1
7	10898	1119696.715887030498	2
7	10902	1120269.986472094196	1
7	10913	1121597.186376959491	2
7	10918	1121939.228442285891	3
7	10923	1122077.595925100316	4
7	10928	1122243.32895295344	5
7	10935	1122327.486320305608	4
