file 180171 1483892906                                          
version 2
run ParkingMeasurement-134-20170108-17:28:26-4713
attr configname ParkingMeasurement
attr datetime 20170108-17:28:26
attr experiment ParkingMeasurement
attr inifile parkingStudy.ini
attr iterationvars ""
attr iterationvars2 $repetition=134
attr measurement ""
attr network controltower.SimNetwork
attr processid 4713
attr repetition 134
attr replication #134
attr resultdir results
attr runnumber 134
attr seedset 134
param SimNetwork.a.parkingLot.parkingDelay exponential(60min)
param SimNetwork.a.runway.landingTime exponential(15min)
param SimNetwork.a.runway.takeoffTime exponential(5min)
param SimNetwork.a.runway.throughputCheckInterval 28.571min
param SimNetwork.wg.interArrivalTime exponential(28.571min)

vector 5  SimNetwork.a.runway  landedThroughput:vector  ETV
attr source  landedThroughputSignal
vector 6  SimNetwork.a.runway  tookoffThroughput:vector  ETV
attr source  tookoffThroughputSignal
vector 7  SimNetwork.a.parkingLot  parkingOccupancy:vector  ETV
attr source  parkingOccupancy
vector 4  SimNetwork.a.takeoffQueue  queueLength:vector  ETV
attr source  queueLengthSignal
vector 3  SimNetwork.a.takeoffQueue  queueTime:vector  ETV
attr source  queueTimeSignal
vector 0  SimNetwork.wg  responseTime:vector  ETV
attr source  responseTimeSignal
vector 2  SimNetwork.a.landingQueue  queueLength:vector  ETV
attr source  queueLengthSignal
vector 1  SimNetwork.a.landingQueue  queueTime:vector  ETV
attr source  queueTimeSignal
0	1454 22723 2011 11065 203156.461194290333 1121976.439889813492 528 1033.7732029907 42165.147009337 6417925.7316376 111081506169.26
1	24177 20848 2026 11073 203697.185094022715 1122980.198880880491 536 0 8290.162814402 665658.37033426 2363315832.6745
2	45025 31244 2024 11073 203697.185094022715 1122980.198880880491 1072 0 8 1320 3756
3	76269 20908 2002 11056 202811.179108190982 1121656.59757400715 528 0 36913.441452575 2379526.7843721 34622719379.336
4	97177 31197 1996 11056 202030.745316973629 1121656.59757400715 1066 0 27 4207 48725
5	128374 10244 1994 11069 200568.42 1122840.3 539 0 5 536 1024
6	138618 10246 1994 11069 200568.42 1122840.3 539 0 10 528 1770
7	148864 31307 1995 11071 202030.745316973629 1122980.198880880491 1074 0 8 2619 8665
