version 2
run ParkingMeasurement-11-20170108-17:28:06-4384
attr configname ParkingMeasurement
attr datetime 20170108-17:28:06
attr experiment ParkingMeasurement
attr inifile parkingStudy.ini
attr iterationvars ""
attr iterationvars2 $repetition=11
attr measurement ""
attr network controltower.SimNetwork
attr processid 4384
attr repetition 11
attr replication #11
attr resultdir results
attr runnumber 11
attr seedset 11
param SimNetwork.a.parkingLot.parkingDelay exponential(60min)
param SimNetwork.a.runway.landingTime exponential(15min)
param SimNetwork.a.runway.takeoffTime exponential(5min)
param SimNetwork.a.runway.throughputCheckInterval 28.571min
param SimNetwork.wg.interArrivalTime exponential(28.571min)

vector 5  SimNetwork.a.runway  landedThroughput:vector  ETV
attr source  landedThroughputSignal
vector 6  SimNetwork.a.runway  tookoffThroughput:vector  ETV
attr source  tookoffThroughputSignal
vector 7  SimNetwork.a.parkingLot  parkingOccupancy:vector  ETV
attr source  parkingOccupancy
vector 4  SimNetwork.a.takeoffQueue  queueLength:vector  ETV
attr source  queueLengthSignal
vector 2  SimNetwork.a.landingQueue  queueLength:vector  ETV
attr source  queueLengthSignal
vector 1  SimNetwork.a.landingQueue  queueTime:vector  ETV
attr source  queueTimeSignal
vector 3  SimNetwork.a.takeoffQueue  queueTime:vector  ETV
attr source  queueTimeSignal
vector 0  SimNetwork.wg  responseTime:vector  ETV
attr source  responseTimeSignal
0	2006	203579.273394812835	18952.009373397
0	2011	203867.193877974799	21778.356343153
0	2016	203974.47981344832	24588.001854144
0	2022	204077.386487683035	18102.52224788
0	2030	204347.228266600799	18107.378502581
0	2043	205318.401670185365	17120.022617803
0	2048	205420.255065710316	18896.413544487
0	2053	205506.707009297753	13411.513449992
0	2059	206136.718629452103	12912.723651617
0	2067	206257.07784547286	11931.842246734
0	2072	206734.954554965431	11136.404003633
0	2077	207043.8925699692	13522.543956013
0	2086	207963.311097079476	10701.375028944
0	2096	208121.737266043264	9938.3380384957
0	2142	211534.523679692007	15505.566631841
0	2147	211940.472820775766	7814.6649265246
0	2156	212722.183355150444	17018.073327574
0	2161	212931.432212930694	3736.4185267888
0	2166	213060.344659193426	16111.396997369
0	2174	213513.077530488472	11825.808683641
0	2179	214204.273462603269	5758.5879427551
0	2200	217461.651635846222	9588.7094092479
0	2214	218336.620901023931	8468.3229817468
0	2222	219087.001893416076	3473.2961541207
0	2255	228311.945637655838	11528.543500662
0	2263	228436.004709725703	8518.688657713
0	2278	232670.046358428362	7614.5891311715
0	2327	241987.870670474768	4886.636196175
0	2348	245929.084389097569	4901.2387611299
0	2361	246258.007299830552	7643.2490735063
0	2375	247170.763687346437	5272.8164865611
0	2402	251362.649298059224	22938.340084114
0	2421	252103.369609430846	6083.4752299506
0	2426	252198.564451407623	4293.4723274719
0	2434	252949.339201918938	7259.6667974956
0	2473	259766.792050892715	8893.608923602
0	2484	260290.487587578521	9015.1662864656
0	2506	261356.107275732469	3345.5371956651
0	2511	261498.303448323887	3326.7095421599
0	2539	263771.757862926222	7466.7383305773
0	2544	263932.091489612097	22686.442160659
0	2553	264189.126989458278	4202.3909328341
0	2570	266700.395592675882	3364.4419273305
0	2590	268691.135698075427	5827.8793112428
0	2622	272105.667330214055	5012.268163983
0	2659	275176.765895331637	6629.1348096544
0	2667	275614.921468077939	10406.517006269
0	2686	277100.581660069862	16940.138711999
0	2691	277278.825563910763	5805.4514324245
0	2696	277316.026275666703	5283.5942260156
0	2722	280843.009190940022	5249.8811835616
0	2737	281433.941520219631	5326.7498956903
0	2747	281670.91502899756	9149.0877547301
0	2756	283354.752247509552	5825.2333509827
0	2790	286694.242805169192	17293.664149522
0	2798	287066.943155720773	7415.4982748339
0	2807	288406.506828011422	7310.0955853024
0	2823	289090.945796502529	3533.7713630786
0	2832	291352.038391285001	5848.0269687953
0	2858	293546.551934750065	1655.3404685902
0	2866	294494.77406794865	6029.952205673
0	2884	298260.023106455027	5824.0089632643
0	2903	302378.001254133087	6846.9829685365
0	2911	302843.320622586064	18083.347100665
0	2956	310361.013414696752	10942.069405055
0	2964	310820.549214265625	6032.173990168
0	2989	313452.752332007409	5894.3980547276
0	3001	315007.510729282288	7223.8112616754
0	3006	315176.531366844669	5270.5953822352
0	3014	315223.832829100162	3588.3452777319
0	3051	323020.492864450618	11313.555414366
0	3059	323735.937690584981	7255.8303927164
0	3079	329639.644058908265	11504.627465414
0	3105	333859.288847589653	4042.53462232
0	3149	339121.229921999886	19999.175803044
0	3160	340079.385943319402	8194.9257297902
0	3165	340259.775863690519	3547.0307352822
0	3173	340565.669256555416	3252.3313448531
0	3190	342312.131451700035	17317.98675731
0	3200	344642.721791322405	5773.8441528694
0	3228	346924.898178386399	6188.5647711902
0	3261	349627.978331431528	4078.2356574414
0	3270	349923.193017971196	14088.096784755
0	3286	350831.930686314048	4832.7462639582
0	3291	351069.568187230807	2329.6095999523
0	3300	351736.980916277851	4856.1779521283
0	3320	354149.73231737786	6985.5748654145
0	3325	354509.736827759026	4873.6793680664
0	3363	364640.4307993023	11196.579610225
0	3372	365575.477058390219	6387.4094798284
0	3381	367410.24650483821	7674.4009163824
0	3407	371670.191671888864	2453.709938499
0	3416	372081.007043331089	12257.694481471
0	3446	377881.759216467975	4721.57623709
0	3451	377990.877786158963	6880.8189890274
0	3477	381008.756540642977	6819.3480802464
0	3495	384463.549772016917	5503.7630384169
0	3503	385209.898532977813	5438.9293913371
0	3542	391302.02689677837	5971.3315231523
0	3547	391392.867448767961	9727.205395775
0	3572	392975.08566287861	3065.866564277
0	3582	396395.560413401442	9459.7888494232
0	3610	399252.041344383777	7364.3603910194
0	3622	400992.343304377076	9400.5638507693
0	3641	401471.530272736545	2953.4692403101
0	3650	402853.931010190175	3534.3046442221
0	3661	403346.177770413538	6384.0033001972
0	3678	406117.838664061057	5182.8719481003
0	3753	414010.587153319553	10854.27501666
0	3758	414093.697188811806	8108.6997926765
0	3766	414446.234061436974	7725.11245904
0	3804	418345.762581263421	9905.116107575
0	3815	419309.250880658085	10208.386809267
0	3834	420390.43907457551	11246.218461466
0	3839	420472.112322917811	11675.041740444
0	3847	420603.332561496646	6202.3468944926
0	3852	421115.719397795774	9877.5163250768
0	3881	424695.293838343013	7992.545225511
0	3907	428149.465523978535	6483.8546092848
0	3915	428312.618467217882	10798.202173164
0	3920	428504.035561756963	9973.1757512721
0	3937	430195.802062623258	6771.8744144121
0	3954	431488.521426692132	6796.4035565023
0	4163	451975.22606110188	23235.536016903
0	4171	452187.269057723064	19606.73083302
0	4183	452707.3705186664	34188.074150591
0	4188	453206.105792819462	18549.61948797
0	4193	453273.058298812496	28258.093430269
0	4198	453337.085645338771	22580.080754153
0	4203	453354.446878568384	17003.709746224
0	4211	453482.268637718094	17941.635463184
0	4219	453800.692411029207	18011.580502294
0	4265	458038.092956246704	18350.15268195
0	4270	458080.487682456376	18879.900827681
0	4278	458527.671945382941	18835.882536262
0	4286	458760.989706571174	21918.276393236
0	4385	470607.972143410349	25048.314205738
0	4390	470667.503089359273	20697.566140836
0	4398	471158.069334545764	21945.749521483
0	4409	471569.374209664154	30829.820923882
0	4414	471580.975036986084	33962.389921863
0	4419	471623.107576524146	25803.92601236
0	4424	471925.042807403051	31131.751980059
0	4435	472540.222034818317	22867.089120957
0	4443	472985.13274553093	19340.242341047
0	4449	473151.126834233171	22369.806228077
0	4454	473195.012557280273	19304.927148463
0	4466	475064.962125726764	21207.954837179
0	4491	477142.626950698636	23165.029362191
0	4564	483404.347641859465	24733.19128328
0	4586	484500.495738786003	24196.347458614
0	4591	484673.75338900981	25040.245604741
0	4596	484763.047133550415	18354.636554868
0	4605	485403.261739712751	20197.438242995
0	4627	486685.440956818959	21950.717771099
0	4632	486741.610407298477	19137.193345993
0	4638	486978.642194492399	21531.949756996
0	4643	487130.204679907611	16194.009973419
0	4648	487488.238831529457	27134.33841824
0	4653	487748.800342379886	10999.597525812
0	4658	487799.863799431097	8711.0652615647
0	4663	488041.750846657965	7187.4505123164
0	4668	488116.843828866478	10771.821073446
0	4673	488184.317734478979	5208.6043132451
0	4678	488283.484062068365	14933.324124291
0	4683	488302.5990565161	6044.5348060071
0	4695	489112.562238946399	8607.1114636305
0	4709	490373.249111308427	5296.5697461234
0	4717	490729.040350110556	15845.815069022
0	4778	497490.624499771746	8696.6142683086
0	4783	497743.939679493932	13716.830189199
0	4788	497891.37945384925	6207.9366683506
0	4793	498085.741061230749	16781.334924737
0	4802	500030.20566589856	6229.233131549
0	4811	502006.299266393588	10187.251615459
0	4832	504849.103829279659	10374.011854245
0	4837	505082.78188037484	13558.395244515
0	4862	507355.350415466556	4310.7043162074
0	4891	509422.185714190964	1908.1110348457
0	4913	511797.341009801463	5456.1633120965
0	4921	512312.555049497965	6733.5805656106
0	4938	513404.591591774128	4028.2720284189
0	4948	516436.361704129567	8216.5705724023
0	4965	519160.903142271706	6811.5264274567
0	4985	525760.145387279732	8862.6667888302
0	4994	526715.831207080372	16518.88006762
0	5061	534957.205782798058	10541.528006875
0	5066	534973.006720051903	6210.2083266114
0	5071	535164.551006125164	4262.1939023586
0	5087	536112.346112303823	3459.4762551303
0	5099	536755.669014158478	6656.9497364822
0	5112	536914.91695441397	5006.8185542885
0	5123	537698.298775218701	4135.0731203329
0	5132	538413.025609335184	2991.3744105892
0	5155	542773.066877445121	4403.2217454333
0	5173	545944.259183235221	9261.9605950069
0	5208	551250.185397536435	4420.7919045116
0	5217	552548.287784746221	9366.3347063701
0	5228	552942.806803581672	5962.3697820372
0	5241	553443.677385433058	14868.010561376
0	5253	559293.859597087151	11752.554980012
0	5297	567089.085253820684	14168.826217403
0	5317	568602.392834971352	5450.3733163757
0	5322	568713.456545170979	2748.1958776318
0	5330	568785.094756711402	6981.6981306893
0	5341	569019.47418784665	8870.0564507664
0	5401	575592.312040647291	6606.6549799665
0	5406	575801.698586874623	5869.7330505931
0	5415	576652.39786260896	9543.5330692556
0	5423	577601.278108761108	7534.7540996203
0	5441	579423.102178654339	8691.0838947326
0	5452	579788.011863323947	9814.471800703
0	5465	580575.185830695164	11039.889890179
0	5492	583310.787125294593	5032.8925563161
0	5524	585890.254682511665	6118.452533646
0	5568	590272.437211901381	5300.2254863027
0	5573	590525.010422105466	7845.8716010637
0	5587	591314.626810824762	4733.8062502409
0	5596	591849.563503273711	4584.7779976917
0	5630	595650.04406619688	12906.551487327
0	5635	595807.58385396657	12880.864001399
0	5640	596100.970875457197	14748.274009478
0	5645	596351.068230737143	4609.4562353978
0	5651	596777.786302978261	8915.5354050384
0	5671	598972.956151254401	7035.6962870891
0	5676	599057.109366386505	6696.1456408588
0	5712	606319.365182926302	5157.3950601499
0	5729	607789.018414005823	4891.3406812057
0	5809	615382.318214157598	8021.7275353267
0	5814	615390.52930313273	17710.03893987
0	5819	615411.664897351972	6263.1025839659
0	5825	615923.74212537883	7079.2536206201
0	5836	616470.574152812201	6282.929279252
0	5841	616629.032791082953	13774.456834289
0	5846	616668.099036599024	4741.3103931984
0	5894	620483.731199973352	10394.038843861
0	5903	620689.999565605234	6174.3093761156
0	5916	622195.168137023064	10966.618134074
0	5922	622426.461962940161	5090.590980878
0	5930	623334.279525063519	6577.9800854039
0	5939	624027.473197753164	6398.7107519977
0	5949	628424.142021565737	9531.7095005456
0	6111	648274.217600709038	18828.514538376
0	6116	648623.842627422102	19338.422019215
0	6121	649078.925223424906	19128.941990133
0	6126	649093.162684460878	18122.492228546
0	6131	649173.903434166429	28601.503708018
0	6140	649799.940072499498	16438.191707514
0	6145	650164.239973985789	17054.289032087
0	6150	650200.432097197577	16514.240067374
0	6155	650866.655239872579	19696.499370443
0	6161	651444.129206709794	15059.46782
0	6166	651504.339581906745	17803.892830759
0	6174	652102.337682867465	14858.190737502
0	6182	652180.343246071774	13697.122980858
0	6187	652464.867327322635	16833.404079525
0	6249	662088.810647109273	7213.263727043
0	6263	663339.918294305359	22914.437060545
0	6272	663724.899048119256	6646.6441605741
0	6283	665249.957921502008	8909.1427564512
0	6291	666704.486436482694	5698.7711516163
0	6327	673097.925652778227	13163.924254114
0	6347	674754.822625902053	6900.4305059681
0	6352	675140.566275959507	4136.8970366139
0	6362	677715.242925095816	14316.205515371
0	6371	679191.795217470305	10375.289250564
0	6415	681911.221521027268	23943.410463951
0	6420	682019.727602754704	2658.4536951424
0	6446	684701.277785670224	3603.5075420766
0	6487	689604.143405056269	15984.855804487
0	6492	689737.157820635185	9543.5290727784
0	6497	690046.098679065082	6939.4194207061
0	6508	690839.324210582213	4832.942594643
0	6514	690871.291518604759	10460.272758907
0	6532	695972.661249256205	10985.827625041
0	6541	696730.475696969644	13945.393404576
0	6559	700358.521176944649	9360.3656456644
0	6589	704771.184048758419	18405.076239575
0	6594	704966.30002982859	2874.316554241
0	6662	715345.032859704414	12768.585093621
0	6670	715731.533985455887	18440.158227082
0	6681	716159.350426696534	8005.8818442774
0	6729	719960.548118718278	10254.368149083
0	6735	720029.571014065982	11937.656569844
0	6743	720369.041045953881	10669.57991335
0	6753	720557.086858018772	9643.5136645941
0	6758	720914.146164941134	10059.222925817
0	6766	721076.319666211531	4467.2621583585
0	6800	724449.563065272772	8458.3661665462
0	6808	724880.756494524197	3830.7983812375
0	6814	725310.157027300496	9194.5841002118
0	6847	727527.725642776549	2134.3607071809
0	6899	732352.483745910371	12142.771058944
0	6904	732438.281646265248	9465.1958402166
0	6912	732474.271219464199	13283.273034192
0	6917	732483.704593505654	5125.5047332299
0	6922	732872.380700887577	9929.1821163982
0	6930	733273.212146526139	2577.142266741
0	6938	733369.7959018781	7560.2368203752
0	6947	734819.060187330579	5816.2361181324
0	6955	735055.811255524335	6776.1974941298
0	6981	737671.399070698628	2111.911309958
0	7056	747396.821643609996	16411.506517343
0	7062	747447.0238906462	11723.748377664
0	7067	747464.888855908134	2562.0173190931
0	7081	748465.961207139715	6453.1437558921
0	7100	749179.257783269355	7870.7865938288
0	7111	749625.172705609581	2099.7840842337
0	7116	749702.203745586415	8748.8427004495
0	7124	750234.353907181583	7459.048289086
0	7159	754401.076300826068	1266.1882248718
0	7167	754819.345279488902	8718.9950570845
0	7178	755494.689546379884	17066.492942902
0	7215	758983.124115512484	6535.4989379346
0	7224	759560.079921612653	11084.253919072
0	7249	761292.684747350071	7460.1087153462
0	7254	761561.415544770804	6101.7487067303
0	7259	762493.192209937746	6483.9986715712
0	7284	764072.471697376482	1563.6297284611
0	7293	765145.334083928115	6148.4495045367
0	7318	767755.109968352312	11430.958100679
0	7336	770006.0498227337	4769.9533344042
0	7344	771005.681964816805	11359.427770502
0	7362	773273.752301190675	7629.0348956381
0	7372	776718.625146490969	13978.668340651
0	7405	778885.290541910262	10040.088744175
0	7430	780555.046557806342	3825.0412541419
0	7441	781380.040638718305	1947.6244876052
0	7471	782877.768286493471	4223.6897965826
0	7480	784048.570690141348	2664.8631055889
0	7488	784865.625558229662	3554.2599609948
0	7525	790956.941934845394	12445.096372203
0	7535	791866.433124336305	19856.488851953
0	7544	792592.992316141616	10054.145945888
0	7552	792884.089794317076	12917.279846497
0	7557	792920.110721273868	6414.4279733434
0	7575	796078.997123573862	5659.3546236718
0	7617	802877.522514024405	6356.42783901
0	7639	804880.391390781918	18593.363970908
0	7682	807754.601195969541	5679.2928670347
0	7690	807870.41691668473	6578.5888327308
0	7704	810497.13704727663	7715.7889832468
0	7709	810627.638039546695	16436.595152622
0	7714	810643.114019662694	6660.2638269594
0	7720	810956.289668304814	4918.964284378
0	7748	814216.657807595325	8867.3953409262
0	7754	814374.919386269132	9736.956485051
0	7762	815474.449943141704	2896.4189445261
0	7779	816358.361970164118	8521.3576266089
0	7787	817336.558560941896	3946.875311071
0	7822	821230.169086098671	5608.2912502872
0	7834	823012.100766231582	4483.2096599107
0	7862	825082.846038896225	5758.9910073291
0	7867	825389.304553199414	5274.9498935066
0	7875	825731.505153338263	4277.0367147134
0	7898	828965.459571772654	3293.7386274247
0	7927	832224.048954528647	7863.1525893408
0	7935	832521.412657850119	5381.8234785286
0	7940	832589.892905017469	3169.4077196482
0	7980	841180.926125207829	11327.745777512
0	8022	844110.093214282674	6737.4888764906
0	8027	844272.399660134733	5241.1558696628
0	8132	857023.809155193532	16257.787630522
0	8144	858431.154464899463	16505.764445553
0	8158	859129.510640627025	19501.642330133
0	8166	859344.695734762916	16787.182008406
0	8171	859906.342446699247	18415.02159656
0	8176	859949.88580489413	15485.799034135
0	8181	860174.243505984456	13556.24504007
0	8186	860212.270839450629	8004.4340834584
0	8191	860371.089648804693	7954.2002665796
0	8197	860707.767589024756	13167.186688428
0	8228	863641.367739700088	8239.9371410119
0	8233	863682.619171301339	13133.821025665
0	8242	864393.933795753329	12954.619235795
0	8255	865128.811865945033	13426.692243811
0	8272	866141.742905611701	5091.8730672448
0	8280	867238.680254210449	3146.3057803105
0	8290	870455.529161066641	8439.5716030286
0	8299	871762.189570704923	13768.855276767
0	8334	876955.276483027257	3581.5262366571
0	8434	891163.202952331458	25658.602416163
0	8439	891387.582761145284	16439.752555295
0	8445	891505.507697047942	9514.9140779169
0	8456	891840.436337171278	11855.975295332
0	8461	891998.397689715412	16589.613634198
0	8469	892208.88980541074	5593.1631220728
0	8474	892247.192495186569	8465.6502714497
0	8479	892463.829781813525	5154.2807151502
0	8488	894133.560711090291	6477.9430946179
0	8500	894984.245512905694	7525.5018457328
0	8556	899926.861887001426	5024.9784507053
0	8567	900292.501002658123	10321.66305612
0	8575	900655.73041397546	3352.5580617547
0	8580	900845.653468492158	5504.6761060122
0	8589	902970.861182433327	19416.798152243
0	8635	907088.777144467287	4001.7052131312
0	8646	907815.948173080718	9269.2663281134
0	8674	910416.898532243252	4126.3277669571
0	8717	913485.823497178725	13561.023656532
0	8771	917526.514384226184	10074.81562284
0	8781	917806.864679661819	10432.523646313
0	8786	917812.873940887876	13695.717635536
0	8791	917941.79368733431	14273.067557878
0	8796	918081.719776743429	7916.6757200192
0	8804	918247.99236969786	7657.2518221257
0	8812	918286.737903783535	7528.8774743327
0	8823	918841.355303960663	3207.3307142103
0	8834	918939.021929277321	6041.6862980574
0	8839	919340.125403972528	5747.8859065289
0	8856	921441.478157167373	6571.9677273044
0	8864	921571.635466166964	3018.0634614135
0	8873	922335.059313610009	8289.9592311398
0	8881	922816.071030964302	25150.019743945
0	8894	926052.889709644342	9006.9946421634
0	8919	928402.955828704301	2495.8870262923
0	8928	929158.484351833427	8788.9845385949
0	8989	938039.602465790232	11831.15954551
0	8997	938529.007144389036	10001.956594709
0	9005	938884.028041312823	5533.95854144
0	9019	939977.395492381666	9260.0782523586
0	9027	940849.447362416475	6992.3902014847
0	9036	941804.011674704319	7767.6620718909
0	9044	942403.048200807808	10272.182389899
0	9090	951437.543687954005	12592.208288546
0	9098	951765.458619316071	3776.8099537375
0	9106	952651.943340531743	5827.0021183212
0	9216	963634.883278312887	19733.72695232
0	9227	963966.217690138181	15126.708827096
0	9232	964044.50829250965	10678.104835078
0	9240	964543.04586105732	9136.2857593576
0	9245	964666.514599620558	9771.6268162138
0	9250	964672.042152608606	11492.78403041
0	9255	965046.11734612792	6536.8671517151
0	9261	965851.266841976581	7350.3684950704
0	9266	966014.054987942528	10112.911637203
0	9275	967696.627762932011	9319.8850412822
0	9292	968590.18135656516	13245.494321664
0	9319	974863.043958175712	7082.4685742225
0	9328	975603.469558949529	5672.2028552713
0	9382	981171.080004004775	18698.170484267
0	9387	981398.003094883904	7283.9497643881
0	9407	983684.237628113367	5694.4927537997
0	9415	983859.877216936813	6588.4247887816
0	9429	984350.032443366265	6085.6611511455
0	9440	984637.657511332969	2923.6664704388
0	9445	984704.179066611459	5031.779814979
0	9456	989446.631301364994	12341.363091267
0	9491	994955.818175605613	4854.8614608858
0	9503	997697.738922347854	6685.0900971352
0	9509	997925.641278330908	14149.946266562
0	9556	1006078.133068851094	3784.8961743849
0	9561	1006216.652896066665	2722.0470206736
0	9570	1006834.822853579622	3211.5130719099
0	9744	1024979.515901074729	32821.02685373
0	9749	1025057.959689006931	20960.867309314
0	9758	1025291.177620168605	16909.229792967
0	9763	1025314.431578598963	16553.388907827
0	9768	1025375.250441724754	17511.095090077
0	9776	1026494.636198379899	18505.312373685
0	9784	1026796.564532782229	16595.330846293
0	9793	1026906.380065414672	16957.909251015
0	9803	1027102.151915061285	17386.21966533
0	9808	1027264.827913463279	16612.943477301
0	9813	1027783.694242149425	13712.435716421
0	9818	1028110.345672293076	16377.902799776
0	9823	1028356.110610341358	11898.889311735
0	9828	1028492.19717117498	7285.0788034085
0	9834	1029184.236191661855	11544.788365542
0	9842	1029867.416103565617	16844.553636587
0	9897	1036229.017557309818	14657.903110799
0	9907	1036574.435576293496	6221.6220432411
0	9916	1037205.163993553367	7695.3275475705
0	10013	1049404.124544506432	22600.982856453
0	10018	1049755.788857745351	18462.954903012
0	10026	1050175.653072450355	16171.538467482
0	10031	1050524.536255494949	14295.657158633
0	10039	1050768.515848859832	13139.352982136
0	10045	1051050.491737261664	18315.264771704
0	10050	1051341.185723384565	13253.957129124
0	10058	1051635.42395205907	11757.517556571
0	10063	1052046.623338405688	11869.292905046
0	10074	1052411.323958121251	12246.274586574
0	10099	1054183.860020536144	14342.953325777
0	10105	1054305.363813160459	7505.7856927837
0	10110	1055434.806060951338	3325.2199504215
0	10128	1058138.085400919426	15721.880198263
0	10177	1063204.285033685795	7298.9287875907
0	10190	1063555.049791453557	5024.2177247487
0	10195	1063650.111324965717	4222.5681935866
0	10203	1064225.552040058624	3627.8019269422
0	10220	1064993.561782197635	1905.489432642
0	10228	1065315.746536728702	12927.929884364
0	10247	1069945.018412309139	9483.3368865365
0	10274	1074989.204591489723	4040.4350808964
0	10282	1075354.635763258942	10981.223070726
0	10312	1080093.37598462478	12803.507463161
0	10347	1086081.77893796161	8201.2510419377
0	10352	1086134.871061355137	9173.7093901205
0	10360	1086390.491740131787	13897.535160595
0	10377	1088297.928674917212	7825.4998311783
0	10403	1091934.43983943878	11936.071434096
0	10413	1094309.616916396048	9111.6884205235
0	10421	1095353.736914220607	6790.3951173421
0	10430	1096963.391325885263	10501.993880373
0	10469	1107764.816915223091	3660.6468578103
0	10556	1118856.121315231909	29846.490700634
0	10567	1119258.035214433575	8459.1729895083
0	10576	1119787.699893031153	15354.555508923
0	10581	1119950.69341727105	5348.1493593998
0	10586	1120187.772934939136	7157.8996907036
0	10594	1120273.061030191182	3610.7401019021
0	10607	1120422.409080967989	18985.533552609
0	10612	1120715.690441678414	3409.0116248569
0	10629	1122445.624224417152	6376.2555544189
1	1981	200993.401411940888	3731.4653438049
1	1989	201250.652553607887	3067.2533260603
1	1997	202235.24425269154	547.97540584381
1	2032	204347.228266600799	221.42037234965
1	2088	207963.311097079476	90.368870481155
1	2101	208445.685519848202	0
1	2119	209880.844500987716	685.83081484585
1	2124	210389.614495101167	521.31657582403
1	2185	215613.705739295408	0
1	2202	217461.651635846222	678.24949885215
1	2228	219917.316052012691	0
1	2239	225055.457227256827	0
1	2265	228436.004709725703	11.695495780236
1	2286	237101.234474299761	0
1	2295	238614.758226324215	0
1	2304	241027.845627967715	0
1	2312	241683.079499181968	437.43017022915
1	2329	241987.870670474768	89.923469689461
1	2350	245929.084389097569	239.41198467427
1	2363	246258.007299830552	238.11292035029
1	2380	247905.092123935721	0
1	2404	251362.649298059224	489.46617076851
1	2409	251430.452731927632	155.13143081469
1	2441	256305.019532348943	0
1	2450	258010.570080067322	0
1	2461	258725.623778535807	554.02987237177
1	2486	260290.487587578521	303.75153095431
1	2491	260316.025184577936	155.5822365072
1	2517	262863.25638683266	0
1	2528	263425.055516749798	89.101851404392
1	2558	265208.404461809342	0
1	2575	267093.399166231033	0
1	2592	268691.135698075427	143.50461239819
1	2601	269400.578655646912	0
1	2624	272105.667330214055	632.29319872783
1	2636	274226.694742411607	2194.2626927605
1	2645	274650.305402735437	2128.4781284679
1	2669	275614.921468077939	21.793460699486
1	2678	276156.05356562088	48.861941091597
1	2701	277529.518896526819	0
1	2711	279651.444880886855	0
1	2739	281433.941520219631	337.53027751064
1	2762	284759.973521921029	0
1	2776	285634.546023204717	130.53460071498
1	2781	285944.490618788598	387.31618536467
1	2812	288464.821862275607	0
1	2838	291891.21146615991	0
1	2846	292436.014143190716	0
1	2872	295531.018285596585	0
1	2890	299418.944009642083	0
1	2917	304788.375224097669	0
1	2930	308172.940868342995	614.58659106323
1	2936	308806.745068151511	1023.0456005446
1	2947	310070.970264440805	165.03427983138
1	2969	311635.487551368273	0
1	2977	311707.499145507614	0.56169542323
1	3020	316480.10729786854	0
1	3030	318933.846227929834	798.82963443585
1	3043	322576.567946177362	3454.5138272219
1	3065	324994.144694390496	0
1	3084	329816.754225269612	0
1	3093	331884.460213529188	0
1	3111	335835.096233215826	0
1	3120	336712.745128408368	0
1	3135	338546.015272123599	1232.6773604212
1	3151	339121.229921999886	252.35228354688
1	3178	340736.333407196157	0
1	3205	345549.742673990125	0
1	3213	345999.184422355893	0
1	3230	346924.898178386399	44.095214236824
1	3239	348184.592759806087	1020.4353078427
1	3253	348809.612233051429	69.653645772941
1	3272	349923.193017971196	287.13555827854
1	3306	353443.851189077682	0
1	3333	359188.067578561834	0
1	3346	362515.128959732259	2779.2833712764
1	3354	362899.705934589467	3076.3933727298
1	3387	369216.481733389848	0
1	3396	371110.058797131581	0
1	3421	373160.182979377976	0
1	3430	375178.601974587821	989.19351419125
1	3457	378959.786733600009	0
1	3465	379770.96914164072	0
1	3482	381665.662052992948	0
1	3508	385330.695373626083	0
1	3517	386935.771563978194	0
1	3527	389909.219098601641	0
1	3552	391591.779453607822	0
1	3560	391976.83158386136	89.150630496993
1	3587	396962.174470216367	0
1	3596	398518.061032426465	0
1	3624	400992.343304377076	1672.716938409
1	3629	401095.140632020599	160.17391605985
1	3663	403346.177770413538	189.86563375411
1	3680	406117.838664061057	132.84126792571
1	3689	407619.718234679254	898.59663228231
1	3701	408867.548185152687	426.90171146431
1	3709	409130.289508096797	333.21892562267
1	3720	409537.776005487064	436.91193409578
1	3736	412249.864503122748	3105.6438900136
1	3741	412490.712915230992	1252.509842512
1	3768	414446.234061436974	45.248394432964
1	3787	417422.644963202862	719.89635037087
1	3795	417651.696284992972	137.27999093862
1	3817	419309.250880658085	789.95451258282
1	3825	419921.637786921644	1390.7779764368
1	3857	421665.610914693689	0
1	3870	423799.96401643938	376.03636822827
1	3883	424695.293838343013	3.175968153147
1	3891	425014.964868543669	0
1	3926	428739.690044199075	0
1	3943	430757.004891186041	0
1	3960	432580.538224702987	0
1	3969	434656.486304849911	0
1	3987	436637.534084443063	1096.9009099089
1	3995	436759.779397596336	970.66748886108
1	4033	441351.369611273836	5000.632478929
1	4038	441540.300935988566	4697.5876226539
1	4043	441972.712861589191	4354.1277464657
1	4055	443583.722963062113	4383.1361082867
1	4060	443710.1586489283	4022.218374632
1	4066	444101.161619795567	4409.3722106749
1	4071	444821.605800792613	4082.05251501
1	4086	446141.824867183641	5348.5340398394
1	4091	446407.943630733302	848.28569306108
1	4107	449147.433621946455	3328.2520577818
1	4121	449661.034926510826	448.71511344816
1	4135	450322.353017081746	649.22010322079
1	4144	451204.701696259188	1234.7647477356
1	4149	451269.032898537208	487.71229238118
1	4221	453800.692411029207	155.80200654564
1	4239	455222.331697024064	1365.3244084758
1	4245	455998.434833038405	2108.3494242212
1	4250	456470.905205856595	2493.3076173487
1	4288	458760.989706571174	89.833347991588
1	4307	461404.629367048712	1771.1215827796
1	4315	462635.831835499976	2331.6835553276
1	4321	463181.475528265624	2827.5751149764
1	4336	465211.035839992094	476.31265427186
1	4355	468357.616949960159	3151.7934532426
1	4360	468653.605574156541	3206.91313666
1	4365	469227.921897388195	2819.5113187061
1	4374	469807.783551889995	2203.3664905848
1	4400	471158.069334545764	221.87462805754
1	4468	475064.962125726764	1714.8021879491
1	4476	475592.766325069342	709.54104398075
1	4493	477142.626950698636	393.42413413089
1	4505	478806.518838122124	1461.4960827019
1	4514	480110.595906109505	1021.7973682431
1	4531	481311.889419576502	806.43864426062
1	4537	481711.54444425472	857.2441099132
1	4545	482053.209241533684	748.80310504011
1	4553	482336.701440114003	78.637189604995
1	4566	483404.347641859465	428.63422062557
1	4578	484177.877069290847	150.76757899599
1	4607	485403.261739712751	326.58237452774
1	4697	489112.562238946399	318.55200748324
1	4722	491524.386635859477	0
1	4734	492817.414472594141	1133.9716870954
1	4742	493289.768008957943	1470.7203580234
1	4757	494735.140285995831	934.16775164624
1	4762	495323.594548959948	848.50257392563
1	4817	503044.646099259163	0
1	4842	505578.974483887328	0
1	4851	506341.177697705012	0
1	4868	507514.074679345258	0
1	4876	508219.791131727295	0
1	4893	509422.185714190964	45.866150835707
1	4905	511402.253120764995	1205.3019813046
1	4926	512349.376714814966	0
1	4953	516897.478598449544	0
1	4973	524415.677775923368	0
1	5000	528762.798393440529	0
1	5009	530567.59535647578	468.87607879953
1	5021	531907.790478203415	1005.4333744368
1	5035	533024.978837091298	1116.8804369658
1	5040	533127.272433052683	474.4025758792
1	5052	534440.450060597872	877.22440571204
1	5076	535421.651198745963	0
1	5101	536755.669014158478	73.370425930206
1	5134	538413.025609335184	43.180477323382
1	5142	538899.756841292391	324.09001723526
1	5160	543181.953078376117	0
1	5178	546829.393493024833	0
1	5187	547334.190002908671	353.75298136415
1	5195	547541.30461707536	0
1	5230	552942.806803581672	22.547767163648
1	5258	560149.417737080274	0
1	5268	562693.546274942958	890.14964892083
1	5276	563152.019518595644	0
1	5289	566453.994766219016	488.73409867986
1	5302	567108.864793353332	0
1	5343	569019.47418784665	33.817127165903
1	5361	570490.30947858424	955.013538068
1	5369	570819.923275449262	887.95773916773
1	5376	572650.119391600807	2676.5793289798
1	5381	572653.651206094336	2587.1271969535
1	5386	572930.151974754725	2198.133690833
1	5429	578277.894568978513	0
1	5454	579788.011863323947	16.209714458298
1	5471	581352.696865978987	0
1	5494	583310.787125294593	631.6483042528
1	5499	583706.359924126839	962.86734525661
1	5511	585188.654351661444	2261.9344990943
1	5516	585332.489728498746	360.27800290008
1	5530	586580.820560583872	0
1	5538	587264.785505581976	0
1	5550	588132.580899544297	270.33000160446
1	5598	591849.563503273711	107.95150793437
1	5610	593225.342413644701	1288.0825494794
1	5615	593341.524120933211	980.56039540553
1	5656	597680.490363263095	0
1	5682	601161.970122776381	0
1	5691	602854.575956794135	0
1	5701	605329.800480554853	2432.1227477547
1	5718	607360.590678830906	0
1	5735	608844.488504758764	0
1	5750	610521.108411582493	1372.5460981964
1	5758	610809.422549896856	719.73019378423
1	5763	611163.549805232631	975.90493167241
1	5781	612341.739077376883	1113.1890744277
1	5786	613241.370216811899	1314.5815734113
1	5798	615042.223811306222	526.5336218166
1	5851	616756.299439659607	0
1	5860	617335.870982062164	0
1	5881	619078.836207588685	1450.0737618332
1	5886	619298.249416164286	405.81689514416
1	5905	620689.999565605234	117.59983945666
1	5955	629285.420608207375	0
1	5986	633789.437959850493	4343.7348975176
1	5992	634867.027567112185	4917.0443338201
1	5997	635024.146961309011	4053.4765053941
1	6012	637576.970526267901	6406.814656838
1	6021	638707.924040775475	5597.9730988766
1	6042	640983.575982848094	7621.8276178627
1	6048	641421.908971649044	7735.7169418259
1	6057	643624.173121082617	9923.7263699345
1	6065	643825.52568818656	8194.0624403892
1	6074	644755.382112655177	8370.7207259452
1	6079	645625.689535641724	8381.5425902764
1	6088	646956.540673072622	8473.3204078587
1	6093	647359.820331374881	6934.3390976143
1	6194	654875.546920066238	0
1	6202	656340.815165050767	0
1	6211	657078.254887545174	0
1	6223	659369.170561266027	1401.3595041896
1	6235	661274.741485648211	1340.740086984
1	6240	661653.065337561122	647.35005269474
1	6274	663724.899048119256	325.86163839428
1	6297	667854.392119934	0
1	6306	668903.743977603381	87.238010697524
1	6315	671003.669239345582	0
1	6332	673619.287600568883	0
1	6376	679361.273907612323	0
1	6384	680193.628747856833	0
1	6392	680411.018759697564	0
1	6404	681350.4079728613	252.63772926769
1	6426	682785.082292394105	0
1	6434	683720.141328401667	613.46207004269
1	6451	684986.833624215629	0
1	6469	687122.529044598817	1116.1474286596
1	6475	687435.794725348464	1069.6869161649
1	6519	690998.155531280287	0
1	6546	697291.375758374111	0
1	6565	702091.983475587621	0
1	6573	702621.142878950863	44.695112867752
1	6601	708091.914444222213	0
1	6609	708718.732189284698	565.26360686558
1	6617	709699.461132604374	0
1	6639	712870.103950337122	3163.9239807015
1	6645	713422.543535546948	2567.6202964224
1	6650	713638.737432597954	2725.1642391733
1	6683	716159.350426696534	168.15352796994
1	6698	717834.007675842628	1718.434748754
1	6710	719187.392693216533	2578.3351853635
1	6718	719742.505688402363	551.50750313029
1	6745	720369.041045953881	159.32835898714
1	6768	721076.319666211531	26.361552924842
1	6777	722943.198584489362	0
1	6786	724096.227571301885	1123.1417652532
1	6819	725393.364935595658	0
1	6827	726844.993486879588	1035.4344053766
1	6836	727386.123382752767	27.923522477012
1	6852	728279.6137613945	0
1	6867	729594.31879770256	591.49472850438
1	6885	731141.09971870531	445.02983892018
1	6890	731814.045354104545	828.7302278374
1	6961	735559.487760740598	0
1	6969	735723.275512982572	0
1	6986	738428.196603477433	0
1	6996	740953.361045136865	0
1	7013	742198.152755586827	889.68156614631
1	7026	745214.114024705066	3201.2965734574
1	7031	745683.128654396464	2907.8230363009
1	7040	746165.441936688963	1262.5703998739
1	7045	746187.546320850124	87.196098445743
1	7083	748465.961207139715	940.57258576386
1	7091	748677.989386419644	202.16338387943
1	7130	752447.625177577835	0
1	7139	753134.888075954275	0
1	7147	754090.214379412938	257.63834740911
1	7180	755494.689546379884	35.02270833938
1	7195	756774.773893781554	765.58035541496
1	7203	757548.834255304598	1224.6823876316
1	7226	759560.079921612653	563.1953422212
1	7234	760794.868473471799	1148.6142791575
1	7264	762508.841968915398	0
1	7272	762739.956805840437	0
1	7298	765236.096488329531	0
1	7306	766116.770939258579	472.05353370597
1	7324	768845.201797735535	0
1	7350	772009.944272382991	0
1	7377	776730.005303664441	0
1	7386	778511.845562642657	0
1	7394	778654.078489910899	0
1	7410	779432.416151113079	0
1	7419	780062.543192652083	95.733244831574
1	7443	781380.040638718305	68.675041483439
1	7451	781394.402782686957	10.69519813447
1	7460	782538.846370253239	0
1	7494	786287.027419873559	0
1	7502	786505.682747930424	0
1	7527	790956.941934845394	537.29943494334
1	7563	794191.042886924465	0
1	7580	796521.094675014369	0
1	7591	801291.828083953919	0
1	7599	802075.308328934888	0
1	7619	802877.522514024405	96.174449994565
1	7628	804372.629963852984	389.77977114969
1	7641	804880.391390781918	242.42848956378
1	7665	806866.906124890698	1517.6436582215
1	7673	807175.562937012849	1138.2375530861
1	7692	807870.41691668473	33.412573129541
1	7726	812578.030998615625	0
1	7740	813779.064207608125	389.38095773727
1	7767	815621.877835811477	0
1	7793	818528.891106320905	0
1	7801	819323.855031567119	0
1	7810	820114.354659692838	0
1	7836	823012.100766231582	1557.6323276067
1	7844	824360.896365187823	0
1	7877	825731.505153338263	59.784208990356
1	7886	827139.589179321565	0
1	7903	829420.485185369243	0
1	7915	830995.441315954472	1142.2609682586
1	7948	837372.604337792091	0
1	7957	839031.243790471891	0
1	7965	839830.144040322193	202.27572982865
1	7982	841180.926125207829	414.90460053665
1	7990	841582.335522874191	91.014672734736
1	7999	842310.370640404291	384.98062105792
1	8013	843147.222939500105	589.7092131436
1	8032	844464.086770759386	0
1	8054	847857.326964872817	1239.3284989587
1	8063	849791.429894246445	2250.8489936501
1	8075	850618.743720435389	69.945574799419
1	8090	852060.770884794379	621.45632483572
1	8104	852853.683159324171	1151.5635371899
1	8109	853074.247694041558	866.41093804933
1	8115	854129.225865830082	1712.336483605
1	8124	855900.88453902764	499.45394033947
1	8146	858431.154464899463	437.82017096121
1	8202	861049.869838366942	0
1	8210	862015.957558038058	0
1	8244	864393.933795753329	301.5593218534
1	8260	865504.600536168533	0
1	8305	873373.750246370129	0
1	8314	874947.83020585011	0
1	8322	875408.784055517067	0
1	8341	879984.461041838985	0
1	8364	885068.993072588013	3078.399453457
1	8369	885076.140885296758	1522.077855106
1	8374	885595.191710817575	1813.6494870807
1	8389	887385.070507252502	769.34382391453
1	8404	888477.194442030563	1167.6453753672
1	8409	888889.211451533117	1430.4677843603
1	8421	890279.373537129342	2623.7559206569
1	8426	890484.059168664279	513.221222126
1	8502	894984.245512905694	82.362076609576
1	8510	896312.659812919853	971.6824504399
1	8519	897303.17235222079	0
1	8534	898641.705349562407	975.65406254336
1	8542	898775.98800735748	229.30616239017
1	8558	899926.861887001426	2.062046354526
1	8594	903087.071931336088	0
1	8603	904079.157752857451	410.4316234009
1	8611	904532.346090712344	415.18978536081
1	8626	906466.272829150702	175.7020638646
1	8648	907815.948173080718	441.60713973221
1	8654	908757.953153658774	1306.254392273
1	8662	910165.044056724249	0
1	8679	910590.740547572153	0
1	8699	911510.260412544213	752.39998309341
1	8719	913485.823497178725	588.4878659588
1	8734	915223.071256059012	1630.8317586154
1	8746	916034.918523783402	1989.8184413132
1	8754	916234.254564108133	1364.7441342452
1	8759	916584.822847897003	950.79825814665
1	8773	917526.514384226184	480.61931674527
1	8825	918841.355303960663	287.78329920723
1	8844	920369.499813238502	0
1	8896	926052.889709644342	145.82090723237
1	8904	926889.396760860326	680.95384057997
1	8930	929158.484351833427	631.43380215351
1	8942	932223.720469696976	1506.403229674
1	8948	933002.787336035358	871.92152512681
1	8966	934405.734323814823	1055.664823942
1	8975	936308.243596181631	2451.1864352498
1	8980	937128.034563114979	3091.6849603016
1	9007	938884.028041312823	38.69264190496
1	9050	943901.156325993095	0
1	9060	946824.941222210573	0
1	9069	948238.967639525026	250.31897394644
1	9077	948839.508863042194	0
1	9112	953179.258122198575	0
1	9137	957433.837691249965	4067.434233818
1	9155	958654.981500222698	3760.0937168159
1	9160	958691.414643477492	3346.7276085764
1	9169	961078.189447329326	5671.4293456296
1	9174	961436.061677014495	5534.9183262749
1	9180	961889.275002030575	3512.5322803808
1	9188	962258.036740921086	3757.1383940149
1	9202	962622.366796607334	4113.1166021945
1	9207	962703.911154714476	231.00163497633
1	9280	967780.575383953198	0
1	9297	969931.26670367823	0
1	9308	974114.053330495763	0
1	9333	977105.268210098102	0
1	9345	977931.124628679602	659.67220052437
1	9353	978255.986198883643	266.24132456993
1	9368	980452.682920141	2188.3116279203
1	9373	980538.854921227318	866.45566959482
1	9392	981713.99104089418	0
1	9417	983859.877216936813	84.182205168341
1	9461	990100.956714719792	0
1	9470	991012.648825212605	0
1	9478	992173.425068479739	14.93602113513
1	9516	1002293.236894466145	0
1	9525	1003494.605875393089	0
1	9533	1003623.309781669672	0
1	9545	1005425.552948579147	1328.4605688864
1	9575	1007864.155351647846	0
1	9590	1008754.778623233659	765.4547985385
1	9611	1010358.352390899083	1976.4045636979
1	9623	1011962.816361868366	3201.7736910967
1	9628	1012498.839407409685	2782.9071576789
1	9633	1012694.987640437393	2746.5168260373
1	9655	1015144.395302122762	4943.1616156337
1	9660	1015339.14921430026	4687.2647781382
1	9665	1016049.222401352586	4316.7795288353
1	9690	1018842.284504349754	5819.4220373715
1	9696	1020254.965959763857	6183.707434035
1	9704	1020915.061536884248	4457.8402382783
1	9709	1021040.135347861881	3400.6875217419
1	9720	1021465.755475919572	258.6371081531
1	9736	1024289.167154367054	2718.0527078567
1	9795	1026906.380065414672	103.2383773617
1	9844	1029867.416103565617	357.57965758275
1	9860	1033667.842470030189	3315.0289369778
1	9872	1034560.711934655189	3267.8779799221
1	9877	1034609.965655337554	1874.73868978
1	9883	1035612.970245791028	1608.855640823
1	9899	1036229.017557309818	0.138460448093
1	9921	1037629.1628667234	0
1	9952	1041392.48711429191	3305.2585200314
1	9964	1043905.496045476711	4064.5893507178
1	9973	1044286.374595334136	4408.4681998462
1	9979	1046471.57397332529	6306.5246017785
1	9994	1048293.027756573112	8115.6973232131
1	9999	1048444.935897042298	6028.7306943856
1	10004	1049008.928497767938	2209.3503773912
1	10076	1052411.323958121251	301.73784759141
1	10081	1052447.766218437137	59.949566072443
1	10115	1055905.356246095122	0
1	10133	1058530.832066704825	0
1	10142	1059427.543131379161	0
1	10153	1060868.661819809964	406.98029403736
1	10162	1062210.861563538279	1613.1114504218
1	10179	1063204.285033685795	116.21268413016
1	10208	1064373.412692533085	0
1	10234	1067289.868521464135	0
1	10252	1070948.769510593283	0
1	10261	1072535.671429338661	42.71484980147
1	10288	1076961.161671234683	0
1	10299	1077958.478880273943	77.950984250052
1	10314	1080093.37598462478	95.00757928246
1	10323	1082779.32367903476	2306.8948352959
1	10333	1085197.928495872536	0
1	10365	1086461.397445512084	0
1	10383	1088563.341796878491	0
1	10391	1089844.100862556662	834.4702479583
1	10438	1101436.875528359415	0
1	10448	1104104.17005741276	0
1	10457	1106408.606092923897	1975.4617088158
1	10475	1110798.862224925238	0
1	10485	1112987.695477845821	0
1	10494	1114546.248863610016	1516.3756193744
1	10502	1115050.351480261809	447.80742239058
1	10517	1116122.599575186602	53.230905188336
1	10528	1116720.211878312414	57.890950023353
1	10543	1118299.628670027978	992.94985320649
1	10548	1118378.943701325969	93.714100401898
1	10596	1120273.061030191182	71.364548281999
1	10618	1121581.443190418504	0
2	1981	200993.401411940888	1
2	1989	201250.652553607887	0
2	1992	201687.268846847727	1
2	1997	202235.24425269154	0
2	2027	204125.807894251151	1
2	2032	204347.228266600799	0
2	2083	207872.942226598321	1
2	2088	207963.311097079476	0
2	2099	208445.685519848202	1
2	2101	208445.685519848202	0
2	2108	209195.013686141866	1
2	2114	209868.29791927714	2
2	2119	209880.844500987716	1
2	2124	210389.614495101167	0
2	2183	215613.705739295408	1
2	2185	215613.705739295408	0
2	2197	216783.402136994076	1
2	2202	217461.651635846222	0
2	2226	219917.316052012691	1
2	2228	219917.316052012691	0
2	2237	225055.457227256827	1
2	2239	225055.457227256827	0
2	2260	228424.309213945467	1
2	2265	228436.004709725703	0
2	2284	237101.234474299761	1
2	2286	237101.234474299761	0
2	2293	238614.758226324215	1
2	2295	238614.758226324215	0
2	2302	241027.845627967715	1
2	2304	241027.845627967715	0
2	2307	241245.649328952816	1
2	2312	241683.079499181968	0
2	2324	241897.947200785307	1
2	2329	241987.870670474768	0
2	2345	245689.672404423295	1
2	2350	245929.084389097569	0
2	2358	246019.894379480263	1
2	2363	246258.007299830552	0
2	2378	247905.092123935721	1
2	2380	247905.092123935721	0
2	2396	250873.183127290713	1
2	2399	251275.321301112941	2
2	2404	251362.649298059224	1
2	2409	251430.452731927632	0
2	2439	256305.019532348943	1
2	2441	256305.019532348943	0
2	2448	258010.570080067322	1
2	2450	258010.570080067322	0
2	2453	258171.593906164036	1
2	2461	258725.623778535807	0
2	2478	259986.736056624211	1
2	2481	260160.442948070735	2
2	2486	260290.487587578521	1
2	2491	260316.025184577936	0
2	2515	262863.25638683266	1
2	2517	262863.25638683266	0
2	2523	263335.953665345406	1
2	2528	263425.055516749798	0
2	2556	265208.404461809342	1
2	2558	265208.404461809342	0
2	2573	267093.399166231033	1
2	2575	267093.399166231033	0
2	2587	268547.631085677235	1
2	2592	268691.135698075427	0
2	2599	269400.578655646912	1
2	2601	269400.578655646912	0
2	2616	271473.374131486225	1
2	2619	272032.432049651126	2
2	2624	272105.667330214055	1
2	2627	272521.827274267497	2
2	2636	274226.694742411607	1
2	2645	274650.305402735437	0
2	2664	275593.128007378453	1
2	2669	275614.921468077939	0
2	2673	276107.191624529283	1
2	2678	276156.05356562088	0
2	2699	277529.518896526819	1
2	2701	277529.518896526819	0
2	2709	279651.444880886855	1
2	2711	279651.444880886855	0
2	2730	281096.411242708992	1
2	2739	281433.941520219631	0
2	2760	284759.973521921029	1
2	2762	284759.973521921029	0
2	2768	285504.011422489733	1
2	2771	285557.174433423924	2
2	2776	285634.546023204717	1
2	2781	285944.490618788598	0
2	2810	288464.821862275607	1
2	2812	288464.821862275607	0
2	2836	291891.21146615991	1
2	2838	291891.21146615991	0
2	2844	292436.014143190716	1
2	2846	292436.014143190716	0
2	2870	295531.018285596585	1
2	2872	295531.018285596585	0
2	2888	299418.944009642083	1
2	2890	299418.944009642083	0
2	2915	304788.375224097669	1
2	2917	304788.375224097669	0
2	2922	307558.35427727977	1
2	2925	307783.699467606935	2
2	2930	308172.940868342995	1
2	2936	308806.745068151511	0
2	2942	309905.935984609421	1
2	2947	310070.970264440805	0
2	2967	311635.487551368273	1
2	2969	311635.487551368273	0
2	2972	311706.937450084384	1
2	2977	311707.499145507614	0
2	3018	316480.10729786854	1
2	3020	316480.10729786854	0
2	3024	318135.016593493988	1
2	3030	318933.846227929834	0
2	3033	319122.054118955436	1
2	3043	322576.567946177362	0
2	3063	324994.144694390496	1
2	3065	324994.144694390496	0
2	3082	329816.754225269612	1
2	3084	329816.754225269612	0
2	3091	331884.460213529188	1
2	3093	331884.460213529188	0
2	3109	335835.096233215826	1
2	3111	335835.096233215826	0
2	3118	336712.745128408368	1
2	3120	336712.745128408368	0
2	3123	337313.337911702356	1
2	3135	338546.015272123599	0
2	3143	338868.877638453006	1
2	3151	339121.229921999886	0
2	3176	340736.333407196157	1
2	3178	340736.333407196157	0
2	3203	345549.742673990125	1
2	3205	345549.742673990125	0
2	3211	345999.184422355893	1
2	3213	345999.184422355893	0
2	3225	346880.802964149575	1
2	3230	346924.898178386399	0
2	3233	347164.157451963395	1
2	3239	348184.592759806087	0
2	3248	348739.958587278488	1
2	3253	348809.612233051429	0
2	3266	349636.057459692651	1
2	3272	349923.193017971196	0
2	3304	353443.851189077682	1
2	3306	353443.851189077682	0
2	3331	359188.067578561834	1
2	3333	359188.067578561834	0
2	3336	359735.845588455819	1
2	3339	359823.312561859662	2
2	3346	362515.128959732259	1
2	3354	362899.705934589467	0
2	3385	369216.481733389848	1
2	3387	369216.481733389848	0
2	3394	371110.058797131581	1
2	3396	371110.058797131581	0
2	3419	373160.182979377976	1
2	3421	373160.182979377976	0
2	3425	374189.408460396575	1
2	3430	375178.601974587821	0
2	3455	378959.786733600009	1
2	3457	378959.786733600009	0
2	3463	379770.96914164072	1
2	3465	379770.96914164072	0
2	3480	381665.662052992948	1
2	3482	381665.662052992948	0
2	3506	385330.695373626083	1
2	3508	385330.695373626083	0
2	3515	386935.771563978194	1
2	3517	386935.771563978194	0
2	3525	389909.219098601641	1
2	3527	389909.219098601641	0
2	3550	391591.779453607822	1
2	3552	391591.779453607822	0
2	3555	391887.680953364367	1
2	3560	391976.83158386136	0
2	3585	396962.174470216367	1
2	3587	396962.174470216367	0
2	3594	398518.061032426465	1
2	3596	398518.061032426465	0
2	3615	399319.626365968042	1
2	3619	400934.966715960745	2
2	3624	400992.343304377076	1
2	3629	401095.140632020599	0
2	3658	403156.312136659432	1
2	3663	403346.177770413538	0
2	3675	405984.997396135352	1
2	3680	406117.838664061057	0
2	3684	406721.121602396943	1
2	3689	407619.718234679254	0
2	3693	408440.64647368838	1
2	3696	408797.07058247413	2
2	3701	408867.548185152687	1
2	3704	409100.864071391282	2
2	3709	409130.289508096797	1
2	3712	409144.220613109147	2
2	3720	409537.776005487064	1
2	3730	411238.203072718964	2
2	3736	412249.864503122748	1
2	3741	412490.712915230992	0
2	3763	414400.98566700401	1
2	3768	414446.234061436974	0
2	3779	416702.748612831996	1
2	3787	417422.644963202862	0
2	3790	417514.41629405435	1
2	3795	417651.696284992972	0
2	3809	418519.296368075266	1
2	3812	418530.85981048486	2
2	3817	419309.250880658085	1
2	3825	419921.637786921644	0
2	3855	421665.610914693689	1
2	3857	421665.610914693689	0
2	3865	423423.927648211115	1
2	3870	423799.96401643938	0
2	3878	424692.117870189866	1
2	3883	424695.293838343013	0
2	3889	425014.964868543669	1
2	3891	425014.964868543669	0
2	3924	428739.690044199075	1
2	3926	428739.690044199075	0
2	3941	430757.004891186041	1
2	3943	430757.004891186041	0
2	3958	432580.538224702987	1
2	3960	432580.538224702987	0
2	3967	434656.486304849911	1
2	3969	434656.486304849911	0
2	3976	435540.633174534196	1
2	3979	435789.111908735258	2
2	3982	436350.737132344833	3
2	3987	436637.534084443063	2
2	3995	436759.779397596336	1
2	3998	436842.713313334685	2
2	4002	437618.585115123462	3
2	4015	439200.58685477538	4
2	4018	439687.940274296285	5
2	4021	439691.789409120642	6
2	4025	440739.553285782624	7
2	4028	440793.290827344229	8
2	4033	441351.369611273836	7
2	4038	441540.300935988566	6
2	4043	441972.712861589191	5
2	4055	443583.722963062113	4
2	4060	443710.1586489283	3
2	4066	444101.161619795567	2
2	4071	444821.605800792613	1
2	4077	445559.657937672219	2
2	4081	445819.181564164622	3
2	4086	446141.824867183641	2
2	4091	446407.943630733302	1
2	4107	449147.433621946455	0
2	4110	449212.319813062667	1
2	4121	449661.034926510826	0
2	4124	449673.132913860957	1
2	4127	449969.936948523614	2
2	4135	450322.353017081746	1
2	4138	450781.320606156032	2
2	4144	451204.701696259188	1
2	4149	451269.032898537208	0
2	4216	453644.890404483567	1
2	4221	453800.692411029207	0
2	4224	453857.007288548229	1
2	4227	453890.085408817237	2
2	4230	453977.597588507882	3
2	4239	455222.331697024064	2
2	4245	455998.434833038405	1
2	4250	456470.905205856595	0
2	4283	458671.156358579586	1
2	4288	458760.989706571174	0
2	4292	459633.507784269159	1
2	4298	460304.148280172386	2
2	4301	460353.90041328924	3
2	4307	461404.629367048712	2
2	4315	462635.831835499976	1
2	4321	463181.475528265624	0
2	4328	464734.723185720237	1
2	4331	465205.823496717555	2
2	4336	465211.035839992094	1
2	4339	465446.692437496502	2
2	4346	466408.410578682073	3
2	4349	467604.417061305178	4
2	4355	468357.616949960159	3
2	4360	468653.605574156541	2
2	4365	469227.921897388195	1
2	4374	469807.783551889995	0
2	4395	470936.194706488227	1
2	4400	471158.069334545764	0
2	4459	473350.159937777709	1
2	4463	474883.225281088591	2
2	4468	475064.962125726764	1
2	4476	475592.766325069342	0
2	4488	476749.202816567743	1
2	4493	477142.626950698636	0
2	4496	477345.022755420182	1
2	4505	478806.518838122124	0
2	4508	479088.798537866399	1
2	4514	480110.595906109505	0
2	4520	480505.450775315886	1
2	4523	480854.300334341522	2
2	4526	481304.406136493569	3
2	4531	481311.889419576502	2
2	4537	481711.54444425472	1
2	4545	482053.209241533684	0
2	4548	482258.064250509008	1
2	4553	482336.701440114003	0
2	4561	482975.71342123389	1
2	4566	483404.347641859465	0
2	4573	484027.109490294859	1
2	4578	484177.877069290847	0
2	4601	485076.679365185015	1
2	4607	485403.261739712751	0
2	4692	488794.010231463161	1
2	4697	489112.562238946399	0
2	4720	491524.386635859477	1
2	4722	491524.386635859477	0
2	4725	491683.442785498694	1
2	4728	491819.04765093459	2
2	4734	492817.414472594141	1
2	4742	493289.768008957943	0
2	4746	493800.972534349588	1
2	4752	494475.091975034323	2
2	4757	494735.140285995831	1
2	4762	495323.594548959948	0
2	4815	503044.646099259163	1
2	4817	503044.646099259163	0
2	4840	505578.974483887328	1
2	4842	505578.974483887328	0
2	4849	506341.177697705012	1
2	4851	506341.177697705012	0
2	4866	507514.074679345258	1
2	4868	507514.074679345258	0
2	4874	508219.791131727295	1
2	4876	508219.791131727295	0
2	4888	509376.319563355257	1
2	4893	509422.185714190964	0
2	4896	510196.951139460347	1
2	4905	511402.253120764995	0
2	4924	512349.376714814966	1
2	4926	512349.376714814966	0
2	4951	516897.478598449544	1
2	4953	516897.478598449544	0
2	4971	524415.677775923368	1
2	4973	524415.677775923368	0
2	4998	528762.798393440529	1
2	5000	528762.798393440529	0
2	5004	530098.719277676252	1
2	5009	530567.59535647578	0
2	5012	530902.357103766599	1
2	5021	531907.790478203415	0
2	5024	531908.098400125512	1
2	5027	532652.86985717348	2
2	5035	533024.978837091298	1
2	5040	533127.272433052683	0
2	5044	533563.22565488583	1
2	5052	534440.450060597872	0
2	5074	535421.651198745963	1
2	5076	535421.651198745963	0
2	5096	536682.298588228272	1
2	5101	536755.669014158478	0
2	5129	538369.845132011802	1
2	5134	538413.025609335184	0
2	5137	538575.666824057131	1
2	5142	538899.756841292391	0
2	5158	543181.953078376117	1
2	5160	543181.953078376117	0
2	5176	546829.393493024833	1
2	5178	546829.393493024833	0
2	5182	546980.437021544521	1
2	5187	547334.190002908671	0
2	5193	547541.30461707536	1
2	5195	547541.30461707536	0
2	5225	552920.259036418024	1
2	5230	552942.806803581672	0
2	5256	560149.417737080274	1
2	5258	560149.417737080274	0
2	5262	561803.396626022128	1
2	5268	562693.546274942958	0
2	5274	563152.019518595644	1
2	5276	563152.019518595644	0
2	5281	565965.260667539155	1
2	5289	566453.994766219016	0
2	5300	567108.864793353332	1
2	5302	567108.864793353332	0
2	5338	568985.657060680747	1
2	5343	569019.47418784665	0
2	5347	569535.295940516243	1
2	5350	569931.965536281528	2
2	5353	569973.540062620973	3
2	5356	570066.524009140846	4
2	5361	570490.30947858424	3
2	5364	570732.018283921733	4
2	5369	570819.923275449262	3
2	5376	572650.119391600807	2
2	5381	572653.651206094336	1
2	5386	572930.151974754725	0
2	5427	578277.894568978513	1
2	5429	578277.894568978513	0
2	5449	579771.802148865649	1
2	5454	579788.011863323947	0
2	5469	581352.696865978987	1
2	5471	581352.696865978987	0
2	5482	582679.138821041795	1
2	5485	582743.492578870232	2
2	5489	582926.719852567138	3
2	5494	583310.787125294593	2
2	5499	583706.359924126839	1
2	5506	584972.211725598665	2
2	5511	585188.654351661444	1
2	5516	585332.489728498746	0
2	5528	586580.820560583872	1
2	5530	586580.820560583872	0
2	5536	587264.785505581976	1
2	5538	587264.785505581976	0
2	5541	587862.250897939839	1
2	5550	588132.580899544297	0
2	5593	591741.611995339338	1
2	5598	591849.563503273711	0
2	5601	591937.259864165312	1
2	5604	592360.963725527685	2
2	5610	593225.342413644701	1
2	5615	593341.524120933211	0
2	5654	597680.490363263095	1
2	5656	597680.490363263095	0
2	5680	601161.970122776381	1
2	5682	601161.970122776381	0
2	5689	602854.575956794135	1
2	5691	602854.575956794135	0
2	5694	602897.677732800114	1
2	5701	605329.800480554853	0
2	5716	607360.590678830906	1
2	5718	607360.590678830906	0
2	5733	608844.488504758764	1
2	5735	608844.488504758764	0
2	5738	609148.562313386103	1
2	5741	610089.692356112622	2
2	5744	610187.644873560223	3
2	5750	610521.108411582493	2
2	5758	610809.422549896856	1
2	5763	611163.549805232631	0
2	5766	611228.550002949149	1
2	5772	611926.788643400591	2
2	5781	612341.739077376883	1
2	5786	613241.370216811899	0
2	5793	614515.690189489626	1
2	5798	615042.223811306222	0
2	5849	616756.299439659607	1
2	5851	616756.299439659607	0
2	5858	617335.870982062164	1
2	5860	617335.870982062164	0
2	5863	617628.762445755489	1
2	5876	618892.432521020123	2
2	5881	619078.836207588685	1
2	5886	619298.249416164286	0
2	5900	620572.399726148571	1
2	5905	620689.999565605234	0
2	5953	629285.420608207375	1
2	5955	629285.420608207375	0
2	5958	629445.703062332918	1
2	5961	629949.983233292132	2
2	5965	630970.67045591491	3
2	5968	631170.155869429881	4
2	5972	633109.950941898883	5
2	5975	633361.748364985402	6
2	5978	633686.192029823131	7
2	5981	633700.446751148121	8
2	5986	633789.437959850493	7
2	5992	634867.027567112185	6
2	5997	635024.146961309011	5
2	6000	635631.463247797336	6
2	6004	636384.661386709929	7
2	6007	637244.146945365362	8
2	6012	637576.970526267901	7
2	6016	638483.220265213905	8
2	6021	638707.924040775475	7
2	6037	640425.48123376057	8
2	6042	640983.575982848094	7
2	6048	641421.908971649044	6
2	6057	643624.173121082617	5
2	6065	643825.52568818656	4
2	6074	644755.382112655177	3
2	6079	645625.689535641724	2
2	6088	646956.540673072622	1
2	6093	647359.820331374881	0
2	6192	654875.546920066238	1
2	6194	654875.546920066238	0
2	6200	656340.815165050767	1
2	6202	656340.815165050767	0
2	6209	657078.254887545174	1
2	6211	657078.254887545174	0
2	6214	657967.811057076464	1
2	6223	659369.170561266027	0
2	6226	659934.001398664233	1
2	6230	661005.715284866379	2
2	6235	661274.741485648211	1
2	6240	661653.065337561122	0
2	6268	663399.03740972498	1
2	6274	663724.899048119256	0
2	6295	667854.392119934	1
2	6297	667854.392119934	0
2	6301	668816.505966905857	1
2	6306	668903.743977603381	0
2	6313	671003.669239345582	1
2	6315	671003.669239345582	0
2	6330	673619.287600568883	1
2	6332	673619.287600568883	0
2	6374	679361.273907612323	1
2	6376	679361.273907612323	0
2	6382	680193.628747856833	1
2	6384	680193.628747856833	0
2	6390	680411.018759697564	1
2	6392	680411.018759697564	0
2	6399	681097.770243593614	1
2	6404	681350.4079728613	0
2	6424	682785.082292394105	1
2	6426	682785.082292394105	0
2	6429	683106.679258358973	1
2	6434	683720.141328401667	0
2	6449	684986.833624215629	1
2	6451	684986.833624215629	0
2	6461	686006.38161593924	1
2	6464	686366.107809183527	2
2	6469	687122.529044598817	1
2	6475	687435.794725348464	0
2	6517	690998.155531280287	1
2	6519	690998.155531280287	0
2	6544	697291.375758374111	1
2	6546	697291.375758374111	0
2	6563	702091.983475587621	1
2	6565	702091.983475587621	0
2	6568	702576.447766083111	1
2	6573	702621.142878950863	0
2	6599	708091.914444222213	1
2	6601	708091.914444222213	0
2	6604	708153.468582419115	1
2	6609	708718.732189284698	0
2	6615	709699.461132604374	1
2	6617	709699.461132604374	0
2	6621	709706.179969635671	1
2	6627	710854.923239124529	2
2	6630	710913.573193424678	3
2	6639	712870.103950337122	2
2	6645	713422.543535546948	1
2	6650	713638.737432597954	0
2	6675	715991.19689872659	1
2	6678	716115.572927088649	2
2	6683	716159.350426696534	1
2	6693	716609.057507853034	2
2	6698	717834.007675842628	1
2	6710	719187.392693216533	0
2	6713	719190.998185272073	1
2	6718	719742.505688402363	0
2	6740	720209.712686966743	1
2	6745	720369.041045953881	0
2	6763	721049.958113286689	1
2	6768	721076.319666211531	0
2	6775	722943.198584489362	1
2	6777	722943.198584489362	0
2	6780	722973.085806048679	1
2	6786	724096.227571301885	0
2	6817	725393.364935595658	1
2	6819	725393.364935595658	0
2	6822	725809.559081502949	1
2	6827	726844.993486879588	0
2	6831	727358.199860275755	1
2	6836	727386.123382752767	0
2	6850	728279.6137613945	1
2	6852	728279.6137613945	0
2	6862	729002.824069198176	1
2	6867	729594.31879770256	0
2	6877	730696.069879785128	1
2	6880	730985.315126267142	2
2	6885	731141.09971870531	1
2	6890	731814.045354104545	0
2	6959	735559.487760740598	1
2	6961	735559.487760740598	0
2	6967	735723.275512982572	1
2	6969	735723.275512982572	0
2	6984	738428.196603477433	1
2	6986	738428.196603477433	0
2	6994	740953.361045136865	1
2	6996	740953.361045136865	0
2	7002	741308.471189440512	1
2	7008	742012.817451247645	2
2	7013	742198.152755586827	1
2	7017	742775.305618095535	2
2	7021	744902.871536815064	3
2	7026	745214.114024705066	2
2	7031	745683.128654396464	1
2	7035	746100.350222404381	2
2	7040	746165.441936688963	1
2	7045	746187.546320850124	0
2	7075	747525.38862137585	1
2	7083	748465.961207139715	0
2	7086	748475.826002540211	1
2	7091	748677.989386419644	0
2	7128	752447.625177577835	1
2	7130	752447.625177577835	0
2	7137	753134.888075954275	1
2	7139	753134.888075954275	0
2	7142	753832.57603200383	1
2	7147	754090.214379412938	0
2	7175	755459.666838040504	1
2	7180	755494.689546379884	0
2	7184	756009.193538366595	1
2	7187	756324.151867672951	2
2	7195	756774.773893781554	1
2	7203	757548.834255304598	0
2	7220	758996.884579391456	1
2	7226	759560.079921612653	0
2	7229	759646.25419431434	1
2	7234	760794.868473471799	0
2	7262	762508.841968915398	1
2	7264	762508.841968915398	0
2	7270	762739.956805840437	1
2	7272	762739.956805840437	0
2	7296	765236.096488329531	1
2	7298	765236.096488329531	0
2	7301	765644.717405552609	1
2	7306	766116.770939258579	0
2	7322	768845.201797735535	1
2	7324	768845.201797735535	0
2	7348	772009.944272382991	1
2	7350	772009.944272382991	0
2	7375	776730.005303664441	1
2	7377	776730.005303664441	0
2	7384	778511.845562642657	1
2	7386	778511.845562642657	0
2	7392	778654.078489910899	1
2	7394	778654.078489910899	0
2	7408	779432.416151113079	1
2	7410	779432.416151113079	0
2	7413	779966.809947820509	1
2	7419	780062.543192652083	0
2	7438	781311.365597234866	1
2	7443	781380.040638718305	0
2	7446	781383.707584552487	1
2	7451	781394.402782686957	0
2	7458	782538.846370253239	1
2	7460	782538.846370253239	0
2	7492	786287.027419873559	1
2	7494	786287.027419873559	0
2	7500	786505.682747930424	1
2	7502	786505.682747930424	0
2	7522	790419.642499902058	1
2	7527	790956.941934845394	0
2	7561	794191.042886924465	1
2	7563	794191.042886924465	0
2	7578	796521.094675014369	1
2	7580	796521.094675014369	0
2	7589	801291.828083953919	1
2	7591	801291.828083953919	0
2	7597	802075.308328934888	1
2	7599	802075.308328934888	0
2	7614	802781.34806402984	1
2	7619	802877.522514024405	0
2	7622	803982.850192703293	1
2	7628	804372.629963852984	0
2	7636	804637.962901218139	1
2	7641	804880.391390781918	0
2	7653	805349.262466669169	1
2	7660	806037.325383926785	2
2	7665	806866.906124890698	1
2	7673	807175.562937012849	0
2	7687	807837.004343555189	1
2	7692	807870.41691668473	0
2	7724	812578.030998615625	1
2	7726	812578.030998615625	0
2	7732	813389.683249870852	1
2	7740	813779.064207608125	0
2	7765	815621.877835811477	1
2	7767	815621.877835811477	0
2	7791	818528.891106320905	1
2	7793	818528.891106320905	0
2	7799	819323.855031567119	1
2	7801	819323.855031567119	0
2	7808	820114.354659692838	1
2	7810	820114.354659692838	0
2	7830	821454.468438624866	1
2	7836	823012.100766231582	0
2	7842	824360.896365187823	1
2	7844	824360.896365187823	0
2	7872	825671.720944347907	1
2	7877	825731.505153338263	0
2	7884	827139.589179321565	1
2	7886	827139.589179321565	0
2	7901	829420.485185369243	1
2	7903	829420.485185369243	0
2	7907	829853.180347695907	1
2	7915	830995.441315954472	0
2	7946	837372.604337792091	1
2	7948	837372.604337792091	0
2	7955	839031.243790471891	1
2	7957	839031.243790471891	0
2	7960	839627.868310493546	1
2	7965	839830.144040322193	0
2	7977	840766.021524671174	1
2	7982	841180.926125207829	0
2	7985	841491.320850139455	1
2	7990	841582.335522874191	0
2	7994	841925.390019346372	1
2	7999	842310.370640404291	0
2	8005	842557.513726356504	1
2	8013	843147.222939500105	0
2	8030	844464.086770759386	1
2	8032	844464.086770759386	0
2	8045	846617.998465914076	1
2	8049	847540.580900596355	2
2	8054	847857.326964872817	1
2	8063	849791.429894246445	0
2	8070	850548.79814563597	1
2	8075	850618.743720435389	0
2	8078	851439.314559958658	1
2	8084	851702.119622134289	2
2	8090	852060.770884794379	1
2	8093	852207.836755992228	2
2	8099	852416.889382225105	3
2	8104	852853.683159324171	2
2	8109	853074.247694041558	1
2	8115	854129.225865830082	0
2	8118	855401.430598688173	1
2	8124	855900.88453902764	0
2	8141	857993.334293938252	1
2	8146	858431.154464899463	0
2	8200	861049.869838366942	1
2	8202	861049.869838366942	0
2	8208	862015.957558038058	1
2	8210	862015.957558038058	0
2	8239	864092.37447389993	1
2	8244	864393.933795753329	0
2	8258	865504.600536168533	1
2	8260	865504.600536168533	0
2	8303	873373.750246370129	1
2	8305	873373.750246370129	0
2	8312	874947.83020585011	1
2	8314	874947.83020585011	0
2	8320	875408.784055517067	1
2	8322	875408.784055517067	0
2	8339	879984.461041838985	1
2	8341	879984.461041838985	0
2	8351	881990.593619131041	1
2	8355	883554.063030190787	2
2	8358	883781.542223736826	3
2	8364	885068.993072588013	2
2	8369	885076.140885296758	1
2	8374	885595.191710817575	0
2	8378	886615.726683337972	1
2	8384	887309.549066663354	2
2	8389	887385.070507252502	1
2	8392	887458.74366717285	2
2	8395	887655.617616472428	3
2	8404	888477.194442030563	2
2	8409	888889.211451533117	1
2	8416	889970.837946538276	2
2	8421	890279.373537129342	1
2	8426	890484.059168664279	0
2	8497	894901.883436296118	1
2	8502	894984.245512905694	0
2	8505	895340.97736247995	1
2	8510	896312.659812919853	0
2	8517	897303.17235222079	1
2	8519	897303.17235222079	0
2	8522	897666.051287019046	1
2	8526	898546.681844967313	2
2	8534	898641.705349562407	1
2	8542	898775.98800735748	0
2	8553	899924.7998406469	1
2	8558	899926.861887001426	0
2	8592	903087.071931336088	1
2	8594	903087.071931336088	0
2	8598	903668.72612945655	1
2	8603	904079.157752857451	0
2	8606	904117.156305351532	1
2	8611	904532.346090712344	0
2	8621	906290.570765286102	1
2	8626	906466.272829150702	0
2	8640	907374.341033348505	1
2	8643	907451.698761385769	2
2	8648	907815.948173080718	1
2	8654	908757.953153658774	0
2	8660	910165.044056724249	1
2	8662	910165.044056724249	0
2	8677	910590.740547572153	1
2	8679	910590.740547572153	0
2	8685	910757.860429450799	1
2	8699	911510.260412544213	0
2	8714	912897.335631219928	1
2	8719	913485.823497178725	0
2	8722	913592.239497443586	1
2	8726	914045.100082470161	2
2	8729	914869.510429862951	3
2	8734	915223.071256059012	2
2	8738	915634.024589750357	3
2	8746	916034.918523783402	2
2	8754	916234.254564108133	1
2	8759	916584.822847897003	0
2	8767	917045.895067480911	1
2	8773	917526.514384226184	0
2	8820	918553.572004753433	1
2	8825	918841.355303960663	0
2	8842	920369.499813238502	1
2	8844	920369.499813238502	0
2	8891	925907.068802411968	1
2	8896	926052.889709644342	0
2	8899	926208.442920280353	1
2	8904	926889.396760860326	0
2	8924	928527.050549679918	1
2	8930	929158.484351833427	0
2	8933	930717.317240023019	1
2	8937	932130.865810908553	2
2	8942	932223.720469696976	1
2	8948	933002.787336035358	0
2	8951	933350.069499872833	1
2	8954	933857.05716093179	2
2	8960	934036.349602813413	3
2	8966	934405.734323814823	2
2	8975	936308.243596181631	1
2	8980	937128.034563114979	0
2	9002	938845.335399407863	1
2	9007	938884.028041312823	0
2	9048	943901.156325993095	1
2	9050	943901.156325993095	0
2	9058	946824.941222210573	1
2	9060	946824.941222210573	0
2	9064	947988.648665578582	1
2	9069	948238.967639525026	0
2	9075	948839.508863042194	1
2	9077	948839.508863042194	0
2	9110	953179.258122198575	1
2	9112	953179.258122198575	0
2	9115	953366.403457431996	1
2	9122	954894.887783406795	2
2	9125	955344.687034901089	3
2	9128	955406.760101699722	4
2	9131	955901.143350739611	5
2	9137	957433.837691249965	4
2	9144	958376.742721649779	5
2	9147	958500.898346906161	6
2	9150	958509.250194412841	7
2	9155	958654.981500222698	6
2	9160	958691.414643477492	5
2	9169	961078.189447329326	4
2	9174	961436.061677014495	3
2	9180	961889.275002030575	2
2	9188	962258.036740921086	1
2	9197	962472.909519738144	2
2	9202	962622.366796607334	1
2	9207	962703.911154714476	0
2	9278	967780.575383953198	1
2	9280	967780.575383953198	0
2	9295	969931.26670367823	1
2	9297	969931.26670367823	0
2	9306	974114.053330495763	1
2	9308	974114.053330495763	0
2	9331	977105.268210098102	1
2	9333	977105.268210098102	0
2	9337	977271.452428155232	1
2	9345	977931.124628679602	0
2	9348	977989.744874313716	1
2	9353	978255.986198883643	0
2	9356	978264.371292220748	1
2	9360	979672.399251632494	2
2	9368	980452.682920141	1
2	9373	980538.854921227318	0
2	9390	981713.99104089418	1
2	9392	981713.99104089418	0
2	9412	983775.695011768472	1
2	9417	983859.877216936813	0
2	9459	990100.956714719792	1
2	9461	990100.956714719792	0
2	9468	991012.648825212605	1
2	9470	991012.648825212605	0
2	9473	992158.489047344609	1
2	9478	992173.425068479739	0
2	9514	1002293.236894466145	1
2	9516	1002293.236894466145	0
2	9523	1003494.605875393089	1
2	9525	1003494.605875393089	0
2	9531	1003623.309781669672	1
2	9533	1003623.309781669672	0
2	9539	1004097.092379692789	1
2	9545	1005425.552948579147	0
2	9573	1007864.155351647846	1
2	9575	1007864.155351647846	0
2	9582	1007989.323824695158	1
2	9585	1008381.947827201133	2
2	9590	1008754.778623233659	1
2	9593	1008761.042670771687	2
2	9600	1009715.932249730804	3
2	9603	1009948.470814400055	4
2	9606	1010201.233686489068	5
2	9611	1010358.352390899083	4
2	9614	1010651.884436162067	5
2	9618	1011732.44287251728	6
2	9623	1011962.816361868366	5
2	9628	1012498.839407409685	4
2	9633	1012694.987640437393	3
2	9636	1013022.862466978232	4
2	9649	1014071.258525728878	5
2	9655	1015144.395302122762	4
2	9660	1015339.14921430026	3
2	9665	1016049.222401352586	2
2	9671	1016457.22129860591	3
2	9684	1017639.447826119998	4
2	9690	1018842.284504349754	3
2	9696	1020254.965959763857	2
2	9704	1020915.061536884248	1
2	9709	1021040.135347861881	0
2	9712	1021207.118367766467	1
2	9720	1021465.755475919572	0
2	9723	1021571.114446510319	1
2	9736	1024289.167154367054	0
2	9789	1026803.141688052973	1
2	9795	1026906.380065414672	0
2	9839	1029509.836445982863	1
2	9844	1029867.416103565617	0
2	9848	1030352.813533052356	1
2	9851	1031292.833954733064	2
2	9855	1032735.226965557548	3
2	9860	1033667.842470030189	2
2	9864	1034004.114604968012	3
2	9872	1034560.711934655189	2
2	9877	1034609.965655337554	1
2	9883	1035612.970245791028	0
2	9894	1036228.879096861725	1
2	9899	1036229.017557309818	0
2	9919	1037629.1628667234	1
2	9921	1037629.1628667234	0
2	9927	1038087.228594260521	1
2	9937	1039840.906694758893	2
2	9940	1039877.906395487894	3
2	9943	1040165.049371546823	4
2	9946	1040177.330433360004	5
2	9952	1041392.48711429191	4
2	9956	1042416.205202656693	5
2	9964	1043905.496045476711	4
2	9973	1044286.374595334136	3
2	9979	1046471.57397332529	2
2	9985	1046799.578120376727	3
2	9994	1048293.027756573112	2
2	9999	1048444.935897042298	1
2	10004	1049008.928497767938	0
2	10068	1052109.586110529839	1
2	10071	1052387.816652364694	2
2	10076	1052411.323958121251	1
2	10081	1052447.766218437137	0
2	10113	1055905.356246095122	1
2	10115	1055905.356246095122	0
2	10131	1058530.832066704825	1
2	10133	1058530.832066704825	0
2	10140	1059427.543131379161	1
2	10142	1059427.543131379161	0
2	10145	1060461.681525772608	1
2	10148	1060597.750113116461	2
2	10153	1060868.661819809964	1
2	10162	1062210.861563538279	0
2	10174	1063088.072349555632	1
2	10179	1063204.285033685795	0
2	10206	1064373.412692533085	1
2	10208	1064373.412692533085	0
2	10232	1067289.868521464135	1
2	10234	1067289.868521464135	0
2	10250	1070948.769510593283	1
2	10252	1070948.769510593283	0
2	10256	1072492.956579537191	1
2	10261	1072535.671429338661	0
2	10286	1076961.161671234683	1
2	10288	1076961.161671234683	0
2	10294	1077880.527896023891	1
2	10299	1077958.478880273943	0
2	10309	1079998.36840534232	1
2	10314	1080093.37598462478	0
2	10317	1080472.428843738876	1
2	10323	1082779.32367903476	0
2	10331	1085197.928495872536	1
2	10333	1085197.928495872536	0
2	10363	1086461.397445512084	1
2	10365	1086461.397445512084	0
2	10381	1088563.341796878491	1
2	10383	1088563.341796878491	0
2	10386	1089009.630614598363	1
2	10391	1089844.100862556662	0
2	10436	1101436.875528359415	1
2	10438	1101436.875528359415	0
2	10446	1104104.17005741276	1
2	10448	1104104.17005741276	0
2	10451	1104433.144384108084	1
2	10457	1106408.606092923897	0
2	10473	1110798.862224925238	1
2	10475	1110798.862224925238	0
2	10483	1112987.695477845821	1
2	10485	1112987.695477845821	0
2	10488	1113029.873244235572	1
2	10494	1114546.248863610016	0
2	10497	1114602.544057871224	1
2	10502	1115050.351480261809	0
2	10512	1116069.368669998266	1
2	10517	1116122.599575186602	0
2	10520	1116662.320928289061	1
2	10528	1116720.211878312414	0
2	10534	1117306.678816821488	1
2	10538	1118285.229600924071	2
2	10543	1118299.628670027978	1
2	10548	1118378.943701325969	0
2	10591	1120201.696481909183	1
2	10596	1120273.061030191182	0
2	10616	1121581.443190418504	1
2	10618	1121581.443190418504	0
3	2003	202747.476714546571	12770.107122839
3	2008	203579.273394812835	13184.905274699
3	2013	203867.193877974799	13123.253630693
3	2018	203974.47981344832	12819.092624461
3	2024	204077.386487683035	11661.248686416
3	2040	205144.051930303237	11009.889685882
3	2045	205318.401670185365	11132.102630129
3	2050	205420.255065710316	8802.6542191526
3	2055	205506.707009297753	8075.1949743997
3	2061	206136.718629452103	6946.400345597
3	2069	206257.07784547286	5640.4452699554
3	2074	206734.954554965431	5727.9593046444
3	2079	207043.8925699692	2241.1148281524
3	2093	208065.678420478885	1923.7605548957
3	2133	211330.171520259134	2612.4689504957
3	2144	211534.523679692007	1939.0352144372
3	2149	211940.472820775766	1318.0857592339
3	2158	212722.183355150444	1325.2652454521
3	2163	212931.432212930694	1509.7082363052
3	2168	213060.344659193426	639.9254966842
3	2176	213513.077530488472	282.39575966301
3	2194	216249.302690502761	20.405553305107
3	2211	218303.843577435129	714.33811076846
3	2219	218989.167913354765	0
3	2248	227811.308524349069	1264.1137679442
3	2257	228311.945637655838	59.971064916247
3	2275	232329.759384139205	0
3	2321	241723.565127909203	0
3	2342	245336.599007283434	2267.847985429
3	2355	245984.053267473558	2574.9869991951
3	2372	247124.605276276009	285.10430150559
3	2389	250118.719889481214	0
3	2417	251855.376501899537	1589.5183212626
3	2423	252103.369609430846	395.53477300258
3	2431	252331.326680466625	0
3	2470	259727.03025931644	1266.2201991596
3	2475	259766.792050892715	313.11070125946
3	2503	261257.615722443016	376.21210546468
3	2508	261356.107275732469	374.79007568912
3	2533	263541.129335316994	314.96975796077
3	2541	263771.757862926222	149.25593325294
3	2550	264160.528738440541	0
3	2567	266369.127328145981	0
3	2584	268504.928053430345	165.79096511763
3	2610	270942.180761275874	699.09055349737
3	2653	274928.245120218633	3701.3476210062
3	2661	275176.765895331637	1012.8084567649
3	2683	276946.834240622224	2314.5768328306
3	2688	277100.581660069862	2309.3267144462
3	2693	277278.825563910763	2339.5326681061
3	2719	280654.733647272309	0
3	2727	280981.203850573646	0
3	2744	281566.565580946093	236.25049119983
3	2753	283035.55148284102	0
3	2787	286395.434543612706	1458.5109738328
3	2795	287022.082958424161	0
3	2803	287890.470093158774	0
3	2820	289035.596498098412	0
3	2829	291066.592687459688	0
3	2855	293249.622815367232	0
3	2863	294223.437761779661	0
3	2881	297625.195986676629	0
3	2900	302331.325895446034	0
3	2908	302613.125010517216	0
3	2952	310219.303029060412	866.36097352874
3	2961	310745.105949846177	0
3	2986	312516.31567847259	137.24834706561
3	2995	314822.273456965708	0
3	3003	315007.510729282288	8.941950004864
3	3011	315186.341554777044	0
3	3048	322921.178192477775	3560.7714482673
3	3056	323493.087446693139	0
3	3076	329150.698650298595	0
3	3102	333276.566469555392	0
3	3140	338650.179478351635	1001.8222070117
3	3157	340045.421637945155	2351.6870552679
3	3162	340079.385943319402	1160.1118669439
3	3170	340491.262059011387	0
3	3187	342119.557477142235	0
3	3196	344297.74187819053	0
3	3222	346877.204513301558	0
3	3258	349576.498190108998	1302.4917931016
3	3263	349627.978331431528	1034.4925725408
3	3280	350340.528047133636	0
3	3288	350831.930686314048	193.71202428569
3	3297	351727.726916492632	0
3	3314	353698.578505081573	0
3	3322	354149.73231737786	133.31798225896
3	3360	363784.286143567918	919.08236043796
3	3369	365313.746196105821	0
3	3378	367116.367181463416	0
3	3404	371440.760022869468	0
3	3412	371953.829193044529	0
3	3440	377357.335066781708	0
3	3448	377881.759216467975	425.73339187429
3	3474	380859.023687615869	0
3	3492	384428.681418288911	1914.2585907503
3	3500	384587.623626283788	0
3	3539	391122.19113372341	1120.6701100676
3	3544	391302.02689677837	1118.7536908907
3	3569	392902.534136429169	702.13991756534
3	3578	395882.014368527696	0
3	3607	398980.714183157949	367.73325077037
3	3612	399252.041344383777	353.59783836228
3	3638	401287.646214661034	70.739478181522
3	3646	402172.174625248231	0
3	3655	403128.37901845863	0
3	3672	405859.913760420191	0
3	3750	413591.757014347163	4310.3838860679
3	3755	414010.587153319553	3961.9665053942
3	3760	414093.697188811806	3791.9590705713
3	3801	418344.330619480034	5173.3274985733
3	3806	418345.762581263421	3113.2350070293
3	3831	420346.937894901469	4986.4808149757
3	3836	420390.43907457551	2983.3575940094
3	3841	420472.112322917811	906.0147984319
3	3849	420603.332561496646	58.690180401151
3	3875	424254.333290428775	2230.6672170673
3	3901	427094.918759441646	1699.8200750326
3	3909	428149.465523978535	619.03930284599
3	3917	428312.618467217882	1.392328688646
3	3934	430100.44882188236	0
3	3951	431487.248971882017	300.11454671851
3	4154	451489.774262124193	16029.363909327
3	4165	451975.22606110188	15256.030328542
3	4173	452187.269057723064	14295.289862512
3	4185	452707.3705186664	14775.884146265
3	4190	453206.105792819462	14049.747600467
3	4195	453273.058298812496	11060.536294242
3	4200	453337.085645338771	10019.246560611
3	4205	453354.446878568384	8071.5009907938
3	4213	453482.268637718094	6269.5540504028
3	4259	457836.532409450667	9626.8782228655
3	4267	458038.092956246704	9165.3758736859
3	4272	458080.487682456376	8858.5208765086
3	4280	458527.671945382941	9211.1161769081
3	4379	470430.872442825439	20264.475217244
3	4387	470607.972143410349	18976.400152149
3	4392	470667.503089359273	18990.351678716
3	4405	471358.781591341223	19223.273314693
3	4411	471569.374209664154	19184.091028581
3	4416	471580.975036986084	19188.158819371
3	4421	471623.107576524146	18181.530196686
3	4426	471925.042807403051	17388.694724798
3	4437	472540.222034818317	15991.168983829
3	4445	472985.13274553093	15100.887040262
3	4451	473151.126834233171	14885.18308326
3	4456	473195.012557280273	13417.68371604
3	4485	476726.305078141538	14944.775587569
3	4558	482591.669220700343	19143.69219726
3	4583	484437.398242555571	18083.41832568
3	4588	484500.495738786003	15250.349941532
3	4593	484673.75338900981	14097.510156158
3	4598	484763.047133550415	12404.332976217
3	4624	486413.755843838227	13881.99699465
3	4629	486685.440956818959	13713.49366275
3	4634	486741.610407298477	11561.854334404
3	4640	486978.642194492399	10564.165989761
3	4645	487130.204679907611	9542.4771007888
3	4650	487488.238831529457	6985.1462485621
3	4655	487748.800342379886	5951.6394176885
3	4660	487799.863799431097	3853.3544901876
3	4665	488041.750846657965	2264.0222167303
3	4670	488116.843828866478	2161.7720906829
3	4675	488184.317734478979	2140.5764851463
3	4680	488283.484062068365	1934.9178493946
3	4689	488789.593281057332	0
3	4706	490368.853198519724	0
3	4714	490577.037083439552	0
3	4775	497269.876377323031	4304.2136467155
3	4780	497490.624499771746	3251.6325479976
3	4785	497743.939679493932	2201.3707339215
3	4790	497891.37945384925	921.04700724228
3	4798	498662.553653045073	0
3	4808	501488.28463334997	0
3	4826	504551.890909014249	0
3	4834	504849.103829279659	198.41149541398
3	4859	507141.279075186313	687.73646595155
3	4885	509246.538025413236	0
3	4910	511588.305191301319	504.07876112986
3	4918	512214.742130008353	0
3	4935	513211.27517090549	0
3	4945	516208.952654599649	0
3	4962	519139.532363472719	0
3	4982	525746.838260750965	0
3	4990	526230.955722193674	0
3	5058	534920.000519467635	3598.6418219207
3	5063	534957.205782798058	2207.7265382992
3	5068	534973.006720051903	1150.2428727582
3	5084	535949.111991884161	294.89507291199
3	5092	536252.203117186595	0
3	5109	536909.959342927235	69.18902206032
3	5117	537193.795052990276	0
3	5125	537698.298775218701	316.19243153638
3	5152	542346.501184367857	0
3	5170	545818.316709468733	0
3	5205	551053.013361315635	0
3	5213	551768.495147379736	0
3	5222	552671.042461223298	0
3	5238	553372.749969404969	0
3	5249	558672.037045698325	0
3	5294	566520.600660187708	443.16657460992
3	5311	568257.330654038992	857.35147570011
3	5319	568602.392834971352	139.7997621291
3	5327	568749.572245124049	0
3	5335	568877.631201676937	0
3	5398	575510.622956359335	779.88592769778
[...]
7	4795	498662.553653045073	2
7	4805	501488.28463334997	1
7	4821	504027.941997618623	2
7	4823	504551.890909014249	1
7	4828	504650.692333865679	0
7	4846	506008.053597893803	1
7	4853	506453.54260923476	0
7	4857	507141.279075186313	1
7	4871	507775.736397171534	2
7	4879	508464.693200848817	3
7	4882	509246.538025413236	2
7	4899	511084.226430171455	1
7	4903	511402.253120764995	2
7	4908	511588.305191301319	3
7	4915	512214.742130008353	2
7	4930	513180.798563683234	3
7	4932	513211.27517090549	2
7	4942	516208.952654599649	1
7	4957	517875.602038079286	2
7	4959	519139.532363472719	1
7	4977	524784.664581874342	2
7	4979	525746.838260750965	1
7	4987	526230.955722193674	0
7	5007	530567.59535647578	1
7	5014	531321.358697546894	0
7	5019	531907.790478203415	1
7	5029	532749.479244498901	0
7	5033	533024.978837091298	1
7	5038	533127.272433052683	2
7	5046	533822.763847293691	1
7	5050	534440.450060597872	2
7	5056	534920.000519467635	3
7	5078	535654.216918972171	2
7	5082	535949.111991884161	3
7	5089	536252.203117186595	2
7	5103	536840.770320866915	1
7	5107	536909.959342927235	2
7	5114	537193.795052990276	1
7	5119	537382.106343682325	0
7	5140	538899.756841292391	1
7	5145	539305.740846382104	2
7	5149	542346.501184367857	1
7	5163	543342.568265494065	2
7	5167	545818.316709468733	1
7	5185	547334.190002908671	2
7	5190	547516.264018235475	3
7	5198	548399.419259405616	4
7	5202	551053.013361315635	3
7	5210	551768.495147379736	2
7	5219	552671.042461223298	1
7	5233	553023.014501165027	2
7	5235	553372.749969404969	1
7	5246	558672.037045698325	0
7	5266	562693.546274942958	1
7	5271	562710.812439323861	2
7	5283	566077.434085577785	1
7	5287	566453.994766219016	2
7	5292	566520.600660187708	3
7	5304	567399.979178338881	2
7	5309	568257.330654038992	3
7	5313	568462.593072842252	2
7	5324	568749.572245124049	1
7	5332	568877.631201676937	0
7	5359	570490.30947858424	1
7	5367	570819.923275449262	2
7	5374	572650.119391600807	3
7	5379	572653.651206094336	4
7	5384	572930.151974754725	5
7	5389	574730.73702866155	4
7	5392	575011.071502432408	3
7	5396	575510.622956359335	4
7	5409	576571.407205925702	3
7	5417	577485.094770386803	2
7	5432	578474.374189664915	3
7	5434	578759.542563883912	2
7	5443	579617.735108324873	1
7	5456	580145.300465576477	0
7	5460	580550.647863267383	1
7	5473	581674.846607108805	0
7	5477	582629.44211024462	1
7	5497	583706.359924126839	2
7	5501	584497.633875212214	1
7	5509	585188.654351661444	2
7	5514	585332.489728498746	3
7	5519	585821.955139079087	4
7	5533	586748.872741247967	5
7	5543	587961.675523763346	4
7	5548	588132.580899544297	5
7	5552	589070.739306821022	4
7	5557	589799.006302635837	5
7	5561	589862.584283111678	4
7	5564	589932.489520100332	3
7	5577	590770.413871549552	2
7	5580	590886.258272456295	1
7	5583	590993.901581249129	0
7	5608	593225.342413644701	1
7	5613	593341.524120933211	2
7	5617	593356.494480020479	1
7	5620	593385.022801802052	0
7	5625	595179.077168278311	1
7	5659	597744.18242798001	2
7	5662	598869.111812675424	1
7	5667	598960.043640801506	0
7	5686	602711.859129418846	1
7	5699	605329.800480554853	2
7	5704	605713.363428152495	3
7	5706	606309.167133229393	2
7	5721	607580.600571576742	3
7	5723	607763.715478508474	2
7	5748	610521.108411582493	3
7	5752	610718.786730822333	2
7	5756	610809.422549896856	3
7	5761	611163.549805232631	4
7	5768	611696.103712892072	3
7	5775	612012.024394509547	2
7	5779	612341.739077376883	3
7	5784	613241.370216811899	4
7	5789	614245.407118696907	3
7	5796	615042.223811306222	4
7	5800	615236.119002845723	3
7	5804	615340.165706862763	4
7	5829	616292.808293200413	3
7	5832	616367.783503346674	2
7	5854	616829.91360050544	3
7	5865	617897.520512603103	2
7	5868	618722.231339268108	1
7	5871	618768.557621547581	0
7	5879	619078.836207588685	1
7	5884	619298.249416164286	2
7	5889	620446.715163492225	3
7	5907	621751.318192330364	2
7	5911	621917.617899150231	3
7	5924	623276.232298432328	2
7	5932	623937.838308696991	1
7	5943	628301.308204935021	0
7	5984	633789.437959850493	1
7	5990	634867.027567112185	2
7	5995	635024.146961309011	3
7	6010	637576.970526267901	4
7	6019	638707.924040775475	5
7	6023	638935.787771989626	4
7	6026	639018.484020774907	3
7	6029	639106.428135294051	2
7	6033	639987.811769412488	1
7	6040	640983.575982848094	2
7	6046	641421.908971649044	3
7	6050	642450.720573527705	2
7	6055	643624.173121082617	3
7	6059	643825.302039067667	2
7	6063	643825.52568818656	3
7	6067	644394.160885574105	2
7	6072	644755.382112655177	3
7	6077	645625.689535641724	4
7	6081	646220.516906862221	3
7	6086	646956.540673072622	4
7	6091	647359.820331374881	5
7	6095	647541.342253267062	4
7	6098	647769.618923330432	3
7	6103	648145.795448963172	4
7	6107	648245.998652818962	3
7	6135	649616.374719522397	2
7	6170	651835.048903188937	1
7	6178	652147.661402287762	0
7	6197	655576.49953582524	1
7	6205	656531.149120113466	2
7	6217	658302.728911203477	1
7	6221	659369.170561266027	2
7	6233	661274.741485648211	3
7	6238	661653.065337561122	4
7	6244	661788.138766777426	5
7	6251	662566.654011059774	4
7	6256	662874.264350082021	3
7	6259	663229.483115587727	2
7	6277	664577.54302369691	3
7	6285	666165.950703294605	2
7	6304	668903.743977603381	3
7	6309	669423.62188709586	4
7	6317	671671.612944612762	3
7	6322	672614.769272463625	4
7	6335	674212.208714844178	3
7	6339	674397.063839371952	4
7	6343	674446.049739730479	3
7	6356	677691.655790196215	2
7	6364	678822.578268878471	1
7	6379	679670.659364558726	2
7	6387	680281.41883275948	3
7	6395	680819.38230729953	2
7	6402	681350.4079728613	3
7	6406	681798.831992532283	2
7	6410	681888.694147145574	3
7	6432	683720.141328401667	4
7	6436	683775.699597125096	3
7	6441	684434.904668615698	4
7	6453	685550.327782407412	3
7	6456	685669.530261530155	2
7	6467	687122.529044598817	3
7	6473	687435.794725348464	4
7	6477	688423.172575082869	3
7	6482	689381.856154537713	4
7	6499	690680.724761779612	3
7	6504	690764.124667704478	2
7	6522	691460.182175427258	3
7	6526	695081.41201799667	2
7	6535	696714.050436795596	1
7	6550	698387.856279080879	2
7	6553	700319.788067045567	1
7	6571	702621.142878950863	2
7	6577	703247.737361020315	3
7	6579	703886.333383026936	2
7	6585	704728.160782776739	1
7	6607	708718.732189284698	2
7	6612	709016.768115310546	3
7	6623	710174.327097955237	2
7	6633	711904.424182713213	1
7	6637	712870.103950337122	2
7	6643	713422.543535546948	3
7	6648	713638.737432597954	4
7	6652	714192.147158825361	3
7	6656	714719.453353332081	4
7	6666	715460.674642158695	3
7	6685	716250.639434661158	2
7	6688	716346.01739803759	1
7	6696	717834.007675842628	2
7	6701	718509.492814628174	1
7	6704	719174.539565205614	0
7	6708	719187.392693216533	1
7	6716	719742.505688402363	2
7	6721	719746.483519160257	3
7	6725	719880.590934384074	2
7	6748	720374.520501183291	3
7	6772	722169.794176918738	4
7	6784	724096.227571301885	5
7	6788	724325.360151979565	4
7	6791	724329.270622367586	3
7	6795	724435.906110553136	4
7	6804	724804.891066430263	3
7	6825	726844.993486879588	4
7	6834	727386.123382752767	5
7	6839	727476.763585654838	6
7	6841	727492.197959210836	5
7	6854	728406.962592419436	4
7	6858	728807.934332293736	3
7	6865	729594.31879770256	4
7	6869	729802.526593861669	3
7	6872	729980.807347461122	2
7	6883	731141.09971870531	3
7	6888	731814.045354104545	4
7	6894	732349.544972706773	5
7	6908	732454.609367037816	4
7	6924	733150.820204952275	3
7	6932	733309.16764703273	2
7	6941	734059.679980142843	1
7	6949	734831.163504217125	0
7	6964	735723.220188310531	1
7	6972	736378.558932562183	2
7	6975	737228.455594319656	1
7	6990	739596.838279986092	2
7	6998	741277.746859303413	1
7	7004	741713.474674170173	0
7	7011	742198.152755586827	1
7	7024	745214.114024705066	2
7	7029	745683.128654396464	3
7	7038	746165.441936688963	4
7	7043	746187.546320850124	5
7	7048	746411.318435655933	6
7	7052	747098.613808434792	5
7	7069	747471.191087153002	4
7	7077	747643.321224233295	3
7	7089	748677.989386419644	4
7	7094	749042.56945559415	5
7	7102	749354.39646071353	4
7	7107	749537.975057996021	3
7	7118	750200.915172700664	2
7	7134	752849.926042380646	3
7	7145	754090.214379412938	4
7	7150	754093.851637021375	5
7	7153	754303.838201772063	4
7	7161	754666.651526932318	3
7	7169	755064.806551995527	2
7	7189	756351.757418030654	1
7	7193	756774.773893781554	2
7	7197	756932.98428128017	1
7	7201	757548.834255304598	2
7	7206	757899.874070948525	1
7	7210	758811.946354832262	2
7	7232	760794.868473471799	3
7	7236	761016.281014097346	2
7	7239	761102.508390975391	1
7	7244	761250.036032511451	2
7	7267	762632.700707656244	3
7	7276	762875.017545729405	4
7	7278	763717.944452224554	3
7	7286	764558.894197982782	2
7	7304	766116.770939258579	3
7	7310	766542.425564111357	4
7	7312	767472.775121762677	3
7	7328	769828.739808796698	4
7	7330	769872.640267130483	3
7	7338	770342.95404042975	2
7	7352	772293.926420070794	1
7	7356	772483.004303450309	2
7	7365	776485.130999733907	1
7	7381	778472.343296760934	2
7	7389	778551.296436100551	3
7	7397	778696.778307287577	4
7	7399	778846.288297379647	3
7	7417	780062.543192652083	4
7	7421	780121.554200767075	3
7	7425	780552.032130632821	4
7	7432	781286.762936759372	3
7	7449	781394.402782686957	4
7	7455	781822.225533512949	5
7	7463	782570.206589973949	6
7	7465	782842.007009042495	5
7	7474	783997.055894697927	4
7	7482	784859.902851609368	3
7	7497	786393.700671676437	4
7	7505	787047.593088769489	3
7	7508	787584.509130076494	2
7	7511	788300.485979479014	1
7	7516	790273.700558544515	2
7	7530	791646.557503159021	3
7	7540	792319.551032324009	2
7	7548	792815.355551661064	1
7	7566	795069.770159197112	2
7	7568	795277.491654738754	1
7	7584	797892.799066792085	2
7	7594	801858.033882995121	3
7	7601	802172.156271035874	2
7	7606	802495.701379914794	3
7	7610	802574.195925138545	2
7	7626	804372.629963852984	3
7	7631	804492.599474559545	4
7	7643	805098.261942413086	3
7	7646	805217.171481780233	2
7	7649	805228.01177130922	1
7	7655	805381.056877480365	0
7	7663	806866.906124890698	1
7	7667	807139.355102118982	0
7	7671	807175.562937012849	1
7	7677	807692.20885141652	2
7	7695	809069.229056028785	3
7	7700	810107.820452706698	2
7	7728	812843.414675314414	1
7	7734	813703.981123131563	0
7	7738	813779.064207608125	1
7	7743	814102.387873370087	2
7	7756	814635.319085842369	1
7	7769	815939.072848505584	0
7	7774	815997.943524942669	1
7	7781	817179.024647643396	0
7	7796	818816.313359662363	1
7	7805	819812.447028270405	2
7	7812	820190.703405753215	1
7	7816	820700.135963123092	2
7	7824	821284.194753944945	1
7	7839	824300.375038065146	2
7	7848	824604.369842138042	3
7	7850	824956.411135344377	2
7	7855	824982.57857235732	1
7	7858	825033.398173915202	0
7	7881	826928.933162543348	1
7	7889	827884.403104750662	2
7	7892	828761.097803520332	1
7	7909	830437.789855245174	0
7	7913	830995.441315954472	1
7	7917	831196.052475772762	0
7	7922	831793.591509506159	1
7	7931	832234.860609650134	0
7	7951	838240.912909134629	1
7	7963	839830.144040322193	2
7	7969	840357.949412274963	3
7	7971	840592.69885652429	2
7	7988	841582.335522874191	3
7	7997	842310.370640404291	4
7	8001	842372.460652448844	3
7	8007	842691.397244793042	2
7	8011	843147.222939500105	3
7	8017	843917.619533750964	4
7	8034	844776.436971333637	3
7	8037	844874.108586648826	2
7	8041	846415.742887001349	1
7	8052	847857.326964872817	2
7	8056	848372.588154629701	1
7	8061	849791.429894246445	2
7	8065	850129.914724035913	1
7	8073	850618.743720435389	2
7	8080	851476.235419401479	1
7	8088	852060.770884794379	2
7	8095	852303.356703986844	1
7	8102	852853.683159324171	2
7	8107	853074.247694041558	3
7	8113	854129.225865830082	4
7	8122	855900.88453902764	5
7	8127	856876.29266741768	6
7	8137	857505.458582347781	5
7	8148	858469.751842007493	4
7	8153	859006.550269760696	5
7	8162	859280.248855304751	4
7	8205	861184.391619070085	5
7	8212	862136.845312444063	4
7	8216	862603.284332538679	3
7	8219	862607.396982644648	2
7	8223	863472.354126495879	3
7	8247	864722.964483063944	4
7	8249	864875.395332197934	3
7	8262	865527.486536941949	2
7	8267	866063.678724174559	3
7	8274	867089.624712962321	2
7	8284	870351.914469880522	1
7	8293	871563.405229091217	0
7	8308	873974.436979631975	1
7	8317	875259.851374541903	2
7	8325	875492.957052178704	3
7	8328	876700.521587213687	2
7	8343	881015.915729262875	1
7	8347	881523.258348819968	0
7	8362	885068.993072588013	1
7	8367	885076.140885296758	2
7	8372	885595.191710817575	3
7	8380	887025.264637508683	2
7	8387	887385.070507252502	3
7	8397	887775.588321277362	2
7	8402	888477.194442030563	3
7	8407	888889.211451533117	4
7	8411	889655.616080494067	3
7	8419	890279.373537129342	4
7	8424	890484.059168664279	5
7	8429	890511.125935200512	6
7	8449	891661.898299619691	5
7	8452	891675.00790407884	4
7	8465	892056.38995150606	3
7	8482	894056.634899422939	2
7	8490	894710.839951922471	1
7	8508	896312.659812919853	2
7	8513	896442.897621607258	3
7	8528	898594.391260785508	2
7	8532	898641.705349562407	3
7	8536	898769.616908335178	2
7	8540	898775.98800735748	3
7	8544	898956.268345333786	2
7	8548	899449.747882551302	3
7	8562	900272.084740269432	4
7	8571	900488.608110277976	3
7	8583	902819.444968108718	2
7	8601	904079.157752857451	3
7	8609	904532.346090712344	4
7	8613	904565.260309470814	3
7	8617	905700.62622081858	2
7	8624	906466.272829150702	3
7	8629	906608.128057430456	4
7	8652	908757.953153658774	5
7	8657	908782.84366395206	6
7	8664	910211.695548000564	5
7	8668	910253.959456114299	6
7	8681	910676.203986594813	5
7	8687	910992.357612652759	4
7	8690	911315.938993091107	3
7	8693	911347.057967760174	2
7	8697	911510.260412544213	3
7	8701	911884.503615990772	2
7	8705	912389.114822409341	1
7	8709	912857.948169022091	2
7	8732	915223.071256059012	3
7	8740	915953.695603799445	2
7	8744	916034.918523783402	3
7	8748	916199.747811504036	2
7	8752	916234.254564108133	3
7	8757	916584.822847897003	4
7	8762	916758.140099245866	5
7	8776	917726.750929019653	6
7	8800	918164.902531585708	5
7	8808	918282.782721035237	4
7	8816	918354.772657577195	3
7	8829	918859.013626968196	4
7	8846	920459.464243439681	3
7	8851	920897.867139933579	4
7	8858	921484.746434483009	3
7	8866	921958.498862143963	2
7	8875	922539.96299418919	1
7	8885	925831.90442459647	0
7	8902	926889.396760860326	1
7	8907	927282.873077740448	2
7	8909	927355.646657495903	1
7	8915	927611.220258200862	0
7	8940	932223.720469696976	1
7	8946	933002.787336035358	2
7	8956	933910.869960237288	1
7	8964	934405.734323814823	2
7	8968	934618.226737868222	1
7	8973	936308.243596181631	2
7	8978	937128.034563114979	3
7	8984	937810.207630310196	4
7	8993	938104.932200286955	3
7	9009	939001.099560683043	2
7	9013	939103.15879614905	3
7	9021	940799.826895586114	2
7	9029	941020.677079510185	1
7	9038	942012.503281249121	0
7	9054	944758.198477298733	1
7	9067	948238.967639525026	2
7	9072	948264.552591782299	3
7	9081	950020.233396921509	4
7	9083	950808.574485992173	3
7	9092	951751.632041146112	2
7	9100	952389.783395990448	1
7	9117	953821.040480515974	0
7	9135	957433.837691249965	1
7	9139	957734.373236594742	0
7	9153	958654.981500222698	1
7	9158	958691.414643477492	2
7	9163	960008.44171352455	1
7	9167	961078.189447329326	2
7	9172	961436.061677014495	3
7	9178	961889.275002030575	4
7	9182	962156.311250075372	3
7	9186	962258.036740921086	4
7	9190	962315.132858069037	3
7	9193	962376.042705832739	2
7	9200	962622.366796607334	3
7	9205	962703.911154714476	4
7	9211	963545.422537445931	5
7	9220	963823.508631181337	4
7	9223	963858.770951038069	3
7	9236	964200.562368260916	2
7	9269	967579.454659448072	1
7	9283	968249.567193616558	2
7	9285	968418.577712904501	1
7	9301	971800.389092265317	2
7	9311	974380.553226259352	3
7	9313	974563.433138315198	2
7	9321	975341.295399699337	1
7	9339	977304.745790194374	0
7	9343	977931.124628679602	1
7	9351	978255.986198883643	2
7	9362	980319.226785931052	1
7	9366	980452.682920141	2
7	9371	980538.854921227318	3
7	9377	981160.428711185908	4
7	9394	981734.157342535817	3
7	9397	982244.203662848067	2
7	9402	983476.960223932349	3
7	9419	983872.926073954773	2
7	9424	984167.95002569697	3
7	9431	984357.206127219446	2
7	9436	984563.517172499776	1
7	9450	989280.971226613207	0
7	9464	990427.15436487531	1
7	9476	992173.425068479739	2
7	9482	992629.962375560526	3
7	9484	994111.062524073826	2
7	9494	997200.554357933296	1
7	9499	997448.081307124724	0
7	9519	1002741.0688786022	1
7	9528	1003502.993944816655	2
7	9535	1003837.521995805692	1
7	9543	1005425.552948579147	2
7	9548	1005607.531172336493	3
7	9552	1005941.268415346977	2
7	9564	1006834.29412043038	1
7	9577	1007960.33262504891	0
7	9588	1008754.778623233659	1
7	9595	1009672.178284665628	0
7	9609	1010358.352390899083	1
7	9621	1011962.816361868366	2
7	9626	1012498.839407409685	3
7	9631	1012694.987640437393	4
7	9639	1013308.119438581901	3
7	9642	1013693.105310415736	2
7	9645	1013747.269225984381	1
7	9653	1015144.395302122762	2
7	9658	1015339.14921430026	3
7	9663	1016049.222401352586	4
7	9667	1016208.909749767548	3
7	9674	1016589.739071432639	2
7	9677	1016753.496477531881	1
7	9680	1016978.873109353192	0
7	9688	1018842.284504349754	1
7	9694	1020254.965959763857	2
7	9698	1020518.157254250549	1
7	9702	1020915.061536884248	2
7	9707	1021040.135347861881	3
7	9714	1021235.765910310656	2
7	9718	1021465.755475919572	3
7	9726	1021970.439391773913	2
7	9729	1022038.117510141538	1
7	9734	1024289.167154367054	2
7	9739	1024889.586874787809	3
7	9753	1025121.895315361881	2
7	9772	1025822.366510785248	1
7	9780	1026628.898457585226	0
7	9798	1027070.042583912878	1
7	9858	1033667.842470030189	2
7	9866	1034482.573739236966	1
7	9870	1034560.711934655189	2
7	9875	1034609.965655337554	3
7	9881	1035612.970245791028	4
7	9885	1035648.745220883824	3
7	9889	1036174.7407115455	4
7	9902	1036572.588507445892	5
7	9910	1037182.587587367121	4
7	9923	1037886.440721994835	3
7	9929	1038545.469923863176	2
7	9932	1038644.032333518532	1
7	9950	1041392.48711429191	2
7	9958	1042858.082526437727	1
7	9962	1043905.496045476711	2
7	9966	1043929.320667121461	1
7	9971	1044286.374595334136	2
7	9977	1046471.57397332529	3
7	9981	1046647.637612680696	2
7	9987	1047303.246841313572	1
7	9992	1048293.027756573112	2
7	9997	1048444.935897042298	3
7	10002	1049008.928497767938	4
7	10007	1049094.210826714088	5
7	10022	1049842.305387528719	4
7	10035	1050708.218386984341	3
7	10054	1051409.199217147266	2
7	10079	1052447.766218437137	3
7	10084	1053448.088834129278	2
7	10088	1053521.352671326514	3
7	10092	1053701.6408644044	2
7	10095	1054171.057723065208	1
7	10118	1056440.416602017284	0
7	10123	1058094.128699574076	1
7	10136	1059178.322180364163	2
7	10151	1060868.661819809964	3
7	10156	1062075.1139466738	2
7	10160	1062210.861563538279	3
7	10164	1062500.844931357885	2
7	10169	1062880.895015324724	3
7	10181	1063304.984169979774	2
7	10185	1063331.70008827998	3
7	10197	1064220.851265889375	2
7	10212	1064920.887704191579	3
7	10214	1064960.260021515386	2
7	10222	1065082.030038110154	1
7	10238	1068518.20784020264	2
7	10240	1068531.47289932352	1
7	10259	1072535.671429338661	2
7	10264	1072659.195355931134	3
7	10267	1074633.340269136945	2
7	10276	1075069.883694158178	1
7	10290	1077230.617368404077	0
7	10297	1077958.478880273943	1
7	10303	1079281.909708022987	2
7	10321	1082779.32367903476	3
7	10326	1082870.682190763355	4
7	10335	1085587.133658055726	3
7	10338	1085667.841831369909	2
7	10342	1085696.756845412706	3
7	10354	1086164.087224601279	2
7	10368	1087282.425124573304	1
7	10372	1088247.480652417673	2
7	10389	1089844.100862556662	3
7	10395	1090290.169743780453	4
7	10397	1091766.006566976707	3
7	10407	1094256.075041554645	2
7	10415	1094883.535963297307	1
7	10424	1096654.426292941254	0
7	10442	1103021.363509464093	1
7	10455	1106408.606092923897	2
7	10460	1106743.992107428305	3
7	10463	1107709.326608034673	2
7	10479	1111708.210697326993	3
7	10492	1114546.248863610016	4
7	10500	1115050.351480261809	5
7	10504	1115373.366638488653	4
7	10507	1115938.035296028605	3
7	10515	1116122.599575186602	4
7	10522	1116673.897181250111	3
7	10526	1116720.211878312414	4
7	10530	1116798.173158117894	3
7	10541	1118299.628670027978	4
7	10546	1118378.943701325969	5
7	10551	1118806.069094703949	6
7	10560	1118863.318167442705	5
7	10563	1119070.965961712804	4
7	10571	1119283.680634152679	3
7	10598	1120309.456283319041	2
7	10602	1120417.022976764647	3
7	10620	1121954.04516163969	2
7	10624	1122274.89786765733	3
