version 2
run ParkingMeasurement-109-20170108-17:28:21-4666
attr configname ParkingMeasurement
attr datetime 20170108-17:28:21
attr experiment ParkingMeasurement
attr inifile parkingStudy.ini
attr iterationvars ""
attr iterationvars2 $repetition=109
attr measurement ""
attr network controltower.SimNetwork
attr processid 4666
attr repetition 109
attr replication #109
attr resultdir results
attr runnumber 109
attr seedset 109
param SimNetwork.a.parkingLot.parkingDelay exponential(60min)
param SimNetwork.a.runway.landingTime exponential(15min)
param SimNetwork.a.runway.takeoffTime exponential(5min)
param SimNetwork.a.runway.throughputCheckInterval 28.571min
param SimNetwork.wg.interArrivalTime exponential(28.571min)

statistic SimNetwork.wg 	responseTime:stats
field count 573
field mean 11126.44434905
field stddev 6392.6444163773
field sum 6375452.6120057
field sqrsum 94311414994.272
field min 1004.9632779215
field max 54725.245447774
attr source  responseTimeSignal
scalar SimNetwork.a.landingQueue 	queueLength:timeavg 	0.53637634726969
attr source  queueLengthSignal
statistic SimNetwork.a.landingQueue 	queueLength:stats
field count 1118
field mean 1.0330948121646
field stddev 1.0458493192247
field sum 1155
field sqrsum 2415
field min 0
field max 5
attr source  queueLengthSignal
statistic SimNetwork.a.landingQueue 	queueTime:stats
field count 559
field mean 884.74610156965
field stddev 1137.3203297168
field sum 494573.07077743
field sqrsum 1159343219.3837
field min 0
field max 5276.491844806
attr source  queueTimeSignal
scalar SimNetwork.a.takeoffQueue 	queueLength:timeavg 	2.1200675114045
attr source  queueLengthSignal
statistic SimNetwork.a.takeoffQueue 	queueLength:stats
field count 1131
field mean 3.0212201591512
field stddev 3.7100068835874
field sum 3417
field sqrsum 25877
field min 0
field max 20
attr source  queueLengthSignal
statistic SimNetwork.a.takeoffQueue 	queueTime:stats
field count 573
field mean 3629.7214509448
field stddev 4719.6915229511
field sum 2079830.3913914
field sqrsum 20290784163.039
field min 0
field max 22343.71259701
attr source  queueTimeSignal
scalar SimNetwork.a.parkingLot 	parkingOccupancy:timeavg 	2.302046982174
attr source  parkingOccupancy
statistic SimNetwork.a.parkingLot 	parkingOccupancy:stats
field count 1118
field mean 2.7915921288014
field stddev 1.6362174882225
field sum 3121
field sqrsum 11703
field min 0
field max 9
attr source  parkingOccupancy
