file 197292 1483892903                                          
version 2
run ParkingMeasurement-122-20170108-17:28:23-4687
attr configname ParkingMeasurement
attr datetime 20170108-17:28:23
attr experiment ParkingMeasurement
attr inifile parkingStudy.ini
attr iterationvars ""
attr iterationvars2 $repetition=122
attr measurement ""
attr network controltower.SimNetwork
attr processid 4687
attr repetition 122
attr replication #122
attr resultdir results
attr runnumber 122
attr seedset 122
param SimNetwork.a.parkingLot.parkingDelay exponential(60min)
param SimNetwork.a.runway.landingTime exponential(15min)
param SimNetwork.a.runway.takeoffTime exponential(5min)
param SimNetwork.a.runway.throughputCheckInterval 28.571min
param SimNetwork.wg.interArrivalTime exponential(28.571min)

vector 5  SimNetwork.a.runway  landedThroughput:vector  ETV
attr source  landedThroughputSignal
vector 6  SimNetwork.a.runway  tookoffThroughput:vector  ETV
attr source  tookoffThroughputSignal
vector 2  SimNetwork.a.landingQueue  queueLength:vector  ETV
attr source  queueLengthSignal
vector 0  SimNetwork.wg  responseTime:vector  ETV
attr source  responseTimeSignal
vector 1  SimNetwork.a.landingQueue  queueTime:vector  ETV
attr source  queueTimeSignal
vector 7  SimNetwork.a.parkingLot  parkingOccupancy:vector  ETV
attr source  parkingOccupancy
vector 4  SimNetwork.a.takeoffQueue  queueLength:vector  ETV
attr source  queueLengthSignal
vector 3  SimNetwork.a.takeoffQueue  queueTime:vector  ETV
attr source  queueTimeSignal
0	1454 25256 1823 11708 201321.80996827648 1120684.179208116805 586 776.57561247992 54938.39861654 9161592.1423834 210615978031.36
1	26710 23674 1825 11713 201321.80996827648 1121026.706266307377 585 0 9365.8959772076 750282.15160834 2547271066.2885
2	50384 34157 1820 11721 201023.638906488107 1123120.930548497971 1172 0 7 1506 4070
3	84541 23627 1842 11705 202287.402717624091 1120552.558907849073 585 0 36248.73684033 4609335.3568508 89328781857.152
4	108168 34472 1840 11705 202287.402717624091 1120552.558907849073 1170 0 37 7611 123849
5	142640 10282 1818 11719 200568.42 1122840.3 539 0 5 585 1197
6	152922 10282 1818 11719 200568.42 1122840.3 539 0 8 586 2148
7	163204 34088 1831 11702 201645.74001801378 1120552.558907849073 1169 0 9 3426 13120
