version 2
run ParkingMeasurement-75-20170108-17:28:16-4580
attr configname ParkingMeasurement
attr datetime 20170108-17:28:16
attr experiment ParkingMeasurement
attr inifile parkingStudy.ini
attr iterationvars ""
attr iterationvars2 $repetition=75
attr measurement ""
attr network controltower.SimNetwork
attr processid 4580
attr repetition 75
attr replication #75
attr resultdir results
attr runnumber 75
attr seedset 75
param SimNetwork.a.parkingLot.parkingDelay exponential(60min)
param SimNetwork.a.runway.landingTime exponential(15min)
param SimNetwork.a.runway.takeoffTime exponential(5min)
param SimNetwork.a.runway.throughputCheckInterval 28.571min
param SimNetwork.wg.interArrivalTime exponential(28.571min)

vector 5  SimNetwork.a.runway  landedThroughput:vector  ETV
attr source  landedThroughputSignal
vector 6  SimNetwork.a.runway  tookoffThroughput:vector  ETV
attr source  tookoffThroughputSignal
vector 2  SimNetwork.a.landingQueue  queueLength:vector  ETV
attr source  queueLengthSignal
vector 1  SimNetwork.a.landingQueue  queueTime:vector  ETV
attr source  queueTimeSignal
vector 7  SimNetwork.a.parkingLot  parkingOccupancy:vector  ETV
attr source  parkingOccupancy
vector 4  SimNetwork.a.takeoffQueue  queueLength:vector  ETV
attr source  queueLengthSignal
vector 3  SimNetwork.a.takeoffQueue  queueTime:vector  ETV
attr source  queueTimeSignal
vector 0  SimNetwork.wg  responseTime:vector  ETV
attr source  responseTimeSignal
0	2117	202335.027626849635	14477.529343207
0	2128	203059.039891597027	5101.2652605065
0	2168	208935.499273578121	13297.786247699
0	2177	209416.062166627929	1716.1672058212
0	2186	211605.876183851462	3857.8989454797
0	2206	213944.556690082329	5370.3409020022
0	2234	214952.826123704913	14299.888949724
0	2245	216120.808836660824	13389.710907157
0	2256	216792.79261097578	3240.7157940798
0	2336	228707.631096900777	16964.946549228
0	2341	228999.793700456418	14873.661245195
0	2346	229001.00942401922	14135.281507017
0	2351	229224.080333503937	12485.764933173
0	2356	229539.389917294717	10460.381008787
0	2365	231218.064614794051	11755.476028337
0	2374	231980.407145926691	9522.4258701349
0	2407	236598.5021208345	16907.622728706
0	2415	237089.863395281104	13864.501292756
0	2420	237277.855856747961	18017.31797155
0	2425	237858.077868723111	4659.6748851872
0	2489	248743.444742770787	14568.153581087
0	2502	249871.147640868891	8575.3362544007
0	2507	249994.058831358164	9010.0054899939
0	2513	250322.40625283138	7127.1510630944
0	2530	253407.961649726583	7680.5453702168
0	2586	260620.209677561	12579.459288836
0	2594	261090.946795930782	22011.374281714
0	2605	261532.270744800861	1695.442535482
0	2610	261743.141831183264	4219.66210199
0	2615	261761.814690359263	10985.240515452
0	2632	263567.968539250226	8388.3598894697
0	2650	266531.994460405014	6035.2941139531
0	2658	266714.536138590333	4940.5886249761
0	2681	268536.440030014544	4802.1771047128
0	2695	270141.001298836604	15557.800142988
0	2724	274226.577213999825	7037.034774793
0	2735	274556.87209906893	6257.6416792446
0	2746	279499.080755597372	7123.2693370558
0	2754	279730.367484653138	9854.2823925729
0	2780	283224.074558700842	3362.180496416
0	2797	284923.748494032866	10996.080380844
0	2805	285821.489949968532	3193.9418639453
0	2824	290093.01846995995	5824.073661036
0	2849	292629.54806502161	2410.0029393054
0	2889	296373.278194269182	10148.452165447
0	2900	297101.22140973421	2714.1776211167
0	2909	299027.949732093399	5704.3017397063
0	3073	318001.705072816209	21945.294737035
0	3081	318258.465901358084	23383.544423151
0	3089	318499.187873319146	26500.848771681
0	3094	318640.466057272851	19284.042079159
0	3103	319436.153194326231	19882.248645396
0	3173	322983.342938182587	22784.102219017
0	3183	323398.447516576079	23948.175378923
0	3188	323641.017862130672	22452.724577985
0	3193	323814.82176401394	22977.785518169
0	3199	324376.119059247605	21256.123925437
0	3210	324397.970575222688	17679.006325706
0	3218	324843.059091921348	14269.192719696
0	3262	329546.842496573807	16892.271099494
0	3280	330700.210021460204	24588.636819439
0	3289	330869.872659004759	26151.876650694
0	3300	332716.977976386625	13638.262813869
0	3305	332896.39805627786	22385.694897128
0	3310	333198.464621630382	13251.573764797
0	3315	333416.126724532774	18303.583667566
0	3323	333939.446812779243	13609.095330316
0	3328	334150.912553615638	12399.840062246
0	3333	334238.252437435216	13589.162043511
0	3339	334688.893412787228	14323.469329726
0	3344	334770.011447035726	12162.641456933
0	3349	334938.073352791451	9211.6190980294
0	3354	335211.490188751164	7895.7935602121
0	3380	338698.52234154401	9377.5637175804
0	3512	354350.957815501561	24812.165765416
0	3524	355146.96173500032	19044.884648507
0	3529	355235.867124321913	30695.615691296
0	3534	355281.137860112665	19883.751733495
0	3539	355420.323380506387	24589.614283858
0	3544	355721.564673488186	16450.436479442
0	3553	356751.109332009004	17490.812525008
0	3566	357331.204554764572	10972.248654006
0	3571	357636.674093195286	15004.142339735
0	3576	357844.691933759977	16314.887077911
0	3581	358267.099789893383	11638.024194619
0	3587	358315.021166317897	10174.254598511
0	3595	358760.931549821018	7995.7625532437
0	3600	358808.827888126559	5081.6693248807
0	3631	360913.154799163199	12567.787380515
0	3645	362529.953000637675	6756.8451849702
0	3658	363102.282950122153	12602.973622582
0	3675	363772.9687963332	2880.8984511725
0	3686	364536.028679026688	4748.9770273982
0	3691	364898.754521223304	3304.597300546
0	3722	371150.295011695049	11632.939422141
0	3730	371358.718811647249	8057.742606516
0	3744	372141.893847536225	5358.3586455714
0	3760	373273.873369638135	5512.2990631198
0	3888	391516.15971362156	18942.519213177
0	3893	392039.528759123281	20690.933558495
0	3898	392110.602260143586	14539.895421468
0	3903	392127.116896044599	15042.296796418
0	3911	392385.644565043939	13913.434929325
0	3949	394956.830430516561	15678.500379237
0	3959	395854.151787721652	16330.309038581
0	3964	395878.333541517959	10736.727885739
0	3969	395892.231250354533	10522.40574404
0	3975	396009.42039158134	16887.31440409
0	3980	396290.40678743758	12611.335307084
0	3988	396528.787692913717	13401.841844843
0	3999	397744.522696528133	5523.5251360172
0	4015	399133.901747632235	2655.6248480004
0	4024	399718.517795801575	11946.92858566
0	4042	403047.644570761789	9991.2895488728
0	4050	403613.730066350144	8730.19915107
0	4058	403880.10996345959	6048.3120204047
0	4083	405760.426639768514	4170.873499223
0	4093	408939.865297267849	4483.5298802287
0	4114	411994.240675346203	7251.0595600029
0	4211	420013.71192903518	10803.183031589
0	4219	420050.575047370148	8122.8756513657
0	4232	420841.658719506457	8481.1786498761
0	4254	422905.726441883358	7877.2471053468
0	4259	422911.311602478258	5240.9404974885
0	4265	423806.000270595325	6059.4030422391
0	4270	424107.977892995709	10905.984858289
0	4279	425819.844845621817	5237.3601769905
0	4300	428712.823704850397	10172.460991894
0	4308	429191.455872475328	8152.7957914676
0	4313	429376.327856864598	14784.987209135
0	4334	433206.520181551955	6013.6115901574
0	4359	434132.718543790193	969.33486401742
0	4364	434179.405664819073	3416.9307994755
0	4373	436084.898790093389	16052.850528921
0	4415	439232.774616441524	5323.7002651224
0	4423	440221.157883796774	28081.797897049
0	4436	442621.180642606244	5391.5921334664
0	4441	442777.860000755894	5124.6941852999
0	4471	453479.346301408678	17365.137259396
0	4488	455016.448497181576	3752.2529913308
0	4619	473913.353513963614	16446.367689391
0	4627	474523.258652413913	20843.50953485
0	4664	477541.291347880748	19378.359482614
0	4679	478785.56825272271	21396.980470361
0	4690	479012.346269506853	19250.571643431
0	4729	482642.747212925005	24035.570359644
0	4737	483413.295347622954	44819.823010103
0	4752	486341.390503314478	38272.915901878
0	4757	486348.654940276326	25800.21641495
0	4766	486925.409559258567	20040.875058476
0	4783	488654.134183884441	16722.603907908
0	4794	490541.726997262539	15932.75372892
0	4799	490635.765436616449	23587.472229491
0	4804	490774.584858900608	23979.587214169
0	4809	490796.895629290295	28887.76185482
0	4814	490965.205218611353	16751.035189908
0	4819	491188.049741226902	14700.583277812
0	4827	491523.436281787603	11711.0492341
0	4867	495233.440958881699	14206.448952618
0	4872	495276.027057004595	8390.6433047343
0	4877	495407.666751291762	16243.337650679
0	4883	495484.533563044581	12096.586461841
0	4888	495554.990315523628	4327.8503744726
0	4896	495725.324905900525	7274.741777034
0	4913	497884.023142431736	4888.2567787432
0	4921	498093.312715770236	19092.251656228
0	5026	509204.929566834293	9689.0055138692
0	5036	509636.480387278888	13702.461161773
0	5041	509696.659091390434	17683.96102913
0	5046	509904.859263772876	9865.8406417504
0	5057	510605.750924923078	10437.157003811
0	5133	516029.164731840473	10678.540885066
0	5185	520762.433755320221	16165.253919668
0	5190	520911.83819536405	16637.620931107
0	5196	521336.845939885792	20907.07582262
0	5201	521845.646251288234	18377.330990276
0	5209	521978.930199933939	12936.881011587
0	5226	523260.115254685552	16895.202005925
0	5231	523345.174985481643	12218.779406805
0	5236	523375.49494989207	13170.068329645
0	5241	523478.318528747073	11735.712182413
0	5246	523632.201268124785	13309.19200469
0	5251	523984.814047249739	8581.6316058747
0	5256	524050.079685600572	7513.5483984065
0	5264	524452.085146705277	8719.9412604248
0	5276	525810.980704405186	10000.731263607
0	5281	525880.511134962203	9333.8794078501
0	5290	527854.861430729366	10736.036512959
0	5310	529580.997316387937	7622.1240784943
0	5316	529882.355920124896	18063.547836543
0	5343	535119.052554926729	6964.7389180391
0	5361	538866.285772937141	5306.4688708444
0	5415	544555.432677993489	12076.709287545
0	5420	544592.50449752205	4637.3650671379
0	5438	546893.645068344833	3170.2176316182
0	5452	547771.737957326972	7333.3046171506
0	5463	548790.241468881052	7478.6388031014
0	5551	556444.40662662111	13013.419297531
0	5557	557183.241830870863	20667.566525218
0	5574	558180.94222025265	12582.99478298
0	5601	560457.204857248176	10045.662719351
0	5607	560968.612035668428	11749.505544809
0	5612	560976.332896782766	9193.215751931
0	5617	561303.322731891765	7473.9452997538
0	5622	561430.891095504079	8269.3804395472
0	5639	562267.585170637068	6329.0189545891
0	5648	562469.93226355936	5038.0695034553
0	5653	562687.334495771618	5296.6342286678
0	5661	563235.423532506067	7557.2757370981
0	5671	563578.339845541509	11984.634309991
0	5688	564209.662023516631	1108.9282452955
0	5704	565364.220080136187	7583.2763486559
0	5825	577366.44154199283	30138.263363529
0	5833	577676.164877822462	8858.1779558737
0	5845	578037.003708095052	9158.04238212
0	5853	578670.244853194644	10548.771404226
0	5863	579164.711467335218	14238.870811853
0	5874	579350.868114414728	8854.1114166707
0	5895	581817.390537201811	14485.212075687
0	5947	586890.870428378123	20356.069351823
0	6015	591992.213532264888	20671.580147702
0	6020	592116.488880927279	16234.099266434
0	6028	592158.799279047211	22287.292932515
0	6147	601082.474056345054	25114.874583771
0	6153	601747.187468377623	38125.768536182
0	6161	601999.642819691972	23696.326601389
0	6169	602082.268297624906	20942.434239318
0	6182	602993.487710202851	19391.00420658
0	6194	603767.346023911743	22116.659958974
0	6199	603968.115035302197	31648.921354404
0	6210	604544.778801161261	25329.699584525
0	6215	604546.918375110351	20807.256426736
0	6220	604679.39623481568	15926.079369665
0	6228	605055.948314839521	16163.452757557
0	6373	620528.627437343738	32233.259235617
0	6379	620657.780388793264	31481.899642594
0	6387	620759.592310421301	34401.274684001
0	6395	621642.766621165483	26146.589824672
0	6407	622363.313429310515	33135.056739419
0	6460	626715.863988466994	34576.171989904
0	6465	626742.414106563735	31678.640944808
0	6470	626897.526692221783	31572.609181549
0	6475	627195.579541896087	30894.257134526
0	6480	627412.807364616025	34642.002745249
0	6486	627489.100279913033	30271.555017927
0	6491	627637.138905708838	29795.527001273
0	6496	627721.953655911403	34337.203134071
0	6504	628347.739199990915	32600.216683086
0	6509	628565.108683118809	26487.335862466
0	6514	628921.308379668197	24199.551387347
0	6519	629071.644583834908	23647.38944608
0	6525	629717.081210114186	19268.254144426
0	6530	629781.750989670981	34209.357321313
0	6535	629860.029672383572	23486.933798258
0	6540	630075.774291614423	18117.589845704
0	6548	630570.798709732146	19990.145320094
0	6558	630814.207336693072	14993.379596543
0	6563	630845.446994262848	12343.661167581
0	6569	631096.370762409719	14927.771974387
0	6574	631597.734148020391	18976.907719223
0	6582	631965.273601792828	17453.830963459
0	6587	632174.321034338718	12738.878919013
0	6592	632175.476118423322	10480.88616939
0	6597	632296.597932421125	9403.4735956454
0	6603	632642.144222383679	9841.8795789258
0	6611	633069.920463077482	13926.344314033
0	6616	633287.356942323356	8888.508074495
0	6671	639760.910288627779	9440.921644305
0	6682	640089.603671466688	5027.9731749026
0	6693	641488.804708851164	5850.5470039089
0	6701	641725.496691690435	7770.3485756532
0	6718	644137.302250588348	6461.7994085136
0	6735	645992.230829452338	6892.9957092819
0	6752	647357.5669415189	21787.454081649
0	6807	652511.882842971202	5648.9382684128
0	6812	652518.870273577443	8077.6235647929
0	6817	652613.833925526329	5121.4869960576
0	6825	652930.130142010046	12899.02239834
0	6851	653933.83772935164	10590.577710037
0	6867	655286.497898416239	6384.472495792
0	6872	655873.210877374273	7264.7597100878
0	6880	656187.403749028581	8445.3735941015
0	6903	658689.006623171877	5774.0715925212
0	6911	659533.713191462452	5850.9271984024
0	6928	660117.883028923576	6980.0780457467
0	6994	666997.822271397216	11005.183046117
0	6999	667912.300656089055	5689.1536113431
0	7004	667995.22081295123	7083.7773610547
0	7013	668781.724858923305	6342.2937192702
0	7021	670099.201838533709	7859.5045333958
0	7030	670337.983678778505	10717.405288629
0	7038	670655.423103536721	7638.6653087374
0	7046	671139.598742294096	13624.889439334
0	7073	675896.626268030469	12505.580258633
0	7110	679867.125629761389	7981.7413239891
0	7122	680748.812483688197	4175.9319643869
0	7146	681938.117352689973	7185.5346964448
0	7163	683173.506676569325	6296.954270827
0	7183	684389.904228161104	3977.2546290752
0	7193	684877.121267331286	6246.9939846237
0	7198	684922.35183534948	3564.7664412502
0	7232	687891.62877194975	4834.553906775
0	7241	689240.527616926568	2878.8736100731
0	7249	690844.414781641668	9067.5932172823
0	7290	695269.089047950725	7937.4690955541
0	7300	695870.093978357552	12014.628641412
0	7310	697880.297509630134	5306.34812372
0	7341	700787.447207377836	14497.470644344
0	7346	700894.905959020628	6429.747974261
0	7355	701312.065232477921	10214.394280563
0	7360	701596.644098467879	9897.1928991996
0	7369	704011.108859104474	6004.5130575264
0	7389	709721.990897222107	11110.664861293
0	7425	717075.051172195347	9151.8877870827
0	7445	718538.150554499913	7345.7376811136
0	7450	718823.170645252721	6582.9918454732
0	7471	721725.528349399121	6551.860499477
0	7540	728902.612128883525	8971.0854895098
0	7603	735816.339454276269	14308.51442545
0	7608	735973.382545389034	12899.670233883
0	7613	735980.917926460873	13529.091210716
0	7618	736054.631445418154	11084.018783977
0	7623	736279.23683867601	10907.643997514
0	7628	736749.442150014413	10511.367104833
0	7643	738691.031312567921	7848.4632449455
0	7673	743440.789912989438	14555.209178363
0	7678	743509.811869540547	14321.751698099
0	7683	743512.027889530627	12818.902883915
0	7695	744168.187430081573	13710.862178882
0	7714	746337.007040263025	2546.5559877003
0	7725	747178.735390807787	15032.52094572
0	7731	747448.260006606399	6449.4805626977
0	7787	751336.923932850767	12725.43644714
0	7795	751585.538917827896	33727.946855286
0	7800	751704.49526964724	3844.1839194222
0	7805	751723.602582032054	2390.8673442045
0	7822	753729.824659539548	3296.9492585179
0	7842	755732.041946087575	3418.9231550663
0	7847	755795.192500687759	11920.357690416
0	7859	756011.746916755952	7886.6907777534
0	7881	759325.069662123747	3348.0475526431
0	7896	760282.300067784396	5263.3392282082
0	7907	761457.829285847684	13063.001439961
0	7924	762996.751886458539	3166.8911965452
0	7976	774822.333221660268	16375.355329758
0	8001	775358.296975361387	13802.247477991
0	8009	775411.246449618709	9479.3918575007
0	8019	776272.078223521579	13223.995584581
0	8036	777015.399476498632	2797.2438984459
0	8056	779886.039542090924	10111.612532776
0	8129	787970.598815268855	18829.217501261
0	8134	788036.835434727096	11406.682211556
0	8139	788346.566964750175	13141.160251278
0	8144	788406.192863631007	13046.101505106
0	8159	788785.568829822259	8939.6448565936
0	8169	789417.770808115508	8580.6337010309
0	8174	789600.66012657014	11643.956615198
0	8182	789919.18530034334	9335.9696655378
0	8202	791466.397152619901	5258.4334603077
0	8248	794876.896722497776	6417.8231453663
0	8345	800370.231573683214	17300.731941889
0	8359	800995.887433920423	9791.7187848676
0	8367	801340.986981298932	11510.063977949
0	8375	801367.463262928955	19547.444437452
0	8386	801483.417120562533	6979.4551225748
0	8404	802317.51023041524	10600.337705856
0	8422	802893.012506217047	8091.0013151031
0	8427	803075.038537351025	4965.1083334557
0	8432	803492.589246976755	8362.1704073658
0	8438	804581.334558147185	8193.8762684779
0	8443	804666.421160875213	8573.0845797006
0	8454	805477.263443853399	10920.462328233
0	8470	806207.481205085902	11635.732249254
0	8475	806491.133815463119	8308.9233570452
0	8480	806665.330314605362	14842.435259455
0	8486	807806.863261768881	12544.309087045
0	8497	808660.315717552354	6558.464931393
0	8509	809164.402643786691	7481.9470641771
0	8535	810689.558436155633	5490.8078250579
0	8544	811530.883480231203	2547.2896611621
0	8581	813383.7001298143	4352.8663597307
0	8602	813927.593988516196	13637.792052924
0	8613	814877.66447365911	5496.6874460242
0	8618	815077.690458450697	2442.6234154891
0	8627	816045.93462432506	2882.8662718061
0	8636	818633.107931622628	13162.700710885
0	8654	821715.894895203117	10110.824113426
0	8662	822804.052882669668	8951.909418886
0	8672	825254.495126115075	12043.466111671
0	8689	827805.991210033529	8827.8788792222
0	8706	828654.760490707453	3027.3586302278
0	8733	834534.520383640781	5130.5448596285
0	8745	835608.567492046905	7157.5492817332
0	8776	839543.942650511445	4096.1832349831
0	8788	840379.105597853631	6818.9068638126
0	8802	841769.159224767696	2567.3518041849
0	8819	844861.697205164836	7325.7756005729
0	8848	847827.13031365964	7901.1813799664
0	8853	847977.644077661684	5902.2310876684
0	8862	849364.323447512279	4260.5963389944
0	8910	857426.181433396637	11071.436422397
0	8915	857865.989281120093	3478.0451971819
0	8932	858950.025704284238	6912.0772191613
0	8951	864649.644781525597	6271.5946935182
0	8959	864766.762210568509	9895.9105131273
0	8968	866309.237350693088	12715.907873538
0	8985	868694.902290785444	5732.6617978447
0	9005	874374.575977585633	7517.0377204932
0	9046	885473.145830134695	13022.043355125
0	9051	885701.203321226568	6268.6660705103
0	9100	890912.357860246118	4351.008664881
0	9120	892924.633951262606	5783.6774579486
0	9174	897533.63173878001	14359.307072181
0	9179	898006.61416879959	10198.057397411
0	9191	898969.618364598884	10254.618958521
0	9196	899124.615425192527	19156.28494561
0	9201	899559.458197958376	9541.0608323093
0	9206	899971.562573034478	5140.0186406286
0	9212	900295.439688027834	5537.8978354516
0	9220	901469.088234717122	6407.9107902961
0	9246	904454.882833617402	12372.749845715
0	9266	905865.622257416439	3913.4673162469
0	9271	905902.827546049833	9888.3611819227
0	9329	912242.080569710161	7720.2571887009
0	9334	912338.750458825719	2012.0881616322
0	9339	912738.518731175667	9249.3967029941
0	9355	913635.388404631004	3238.9521113084
0	9372	914564.01655195816	6962.3095341181
0	9384	916198.932940523839	5763.7079011484
0	9389	916274.133795848153	5506.2105227391
0	9414	917788.561555775414	4147.6047343551
0	9425	918516.007543936607	5266.9537769673
0	9434	919386.0810980753	3075.2007337009
0	9563	931190.542438618831	14673.184445677
0	9568	931242.403836113916	12022.120963772
0	9573	931523.336292802305	11996.76887157
0	9578	931548.709442446807	2479.2761268378
0	9583	931778.942294035858	6247.4528459941
0	9588	931848.194629387235	3275.1478614732
0	9593	931891.263614325806	5877.7701471192
0	9598	932141.184749976949	12211.432337337
0	9615	933842.722951302614	13605.882803153
0	9632	935980.79812292999	15169.384609011
0	9641	936255.538458965137	6497.3911056482
0	9669	939248.043129810184	6755.9956777838
0	9675	939432.881230704866	14742.357685135
0	9683	940786.167063583042	3526.8864158978
0	9798	951361.797696698066	21839.576296222
0	9807	951556.13912469963	16403.510463904
0	9820	952910.413672771111	14854.91993247
0	9832	953168.680120989753	12282.123122134
0	9837	953290.65966500791	10838.627383881
0	9842	953532.172559848789	9683.9446227978
0	9847	953917.30306426009	7681.260281991
0	9852	954184.903471778669	4348.8148873046
0	9857	954517.167515836168	4603.0232782966
0	9862	954685.952086380189	6034.2051662768
0	9867	954731.566297881915	12839.75624904
0	9886	959743.498599239489	9126.1959710751
0	9895	960215.078752901107	17440.245251484
0	9904	961726.122571762503	10329.902545605
0	9934	967852.718020014392	4518.3378916317
0	9948	969680.0026007223	12857.695602112
0	9966	972346.058111174816	4829.2834378016
0	9974	972614.757399391614	7553.1235672333
0	10029	979843.383445189653	8872.5494532838
0	10034	979883.607648066398	4810.2168255058
0	10066	982566.088790722196	7389.1149646628
0	10091	985238.637687465348	10448.049578135
0	10100	986327.152613017553	9533.2544191331
0	10110	986667.745489845626	11963.822451106
0	10122	988033.018483690705	8083.7199195466
0	10127	988701.10572373507	8129.9444327001
0	10140	991096.826239514312	8649.6384946575
0	10145	991450.293068838775	8716.2776773855
0	10172	996631.97521377538	11052.383317473
0	10191	1001589.322832073187	5970.4024262523
0	10203	1003484.221654956738	8566.3787269311
0	10509	1036148.428160824592	32893.118725113
0	10514	1036216.898450115696	37160.457189777
0	10519	1036824.290838308982	33025.780093406
0	10530	1037058.103394306722	33509.134187912
0	10539	1037290.838476512186	33361.296506201
0	10547	1037702.522581388295	33421.091458801
0	10557	1038619.7803124245	28255.721669322
0	10562	1038684.506042573563	29572.401765102
0	10567	1038794.329165305421	28073.816857249
0	10573	1038975.189303700263	26351.207309064
0	10578	1039054.354050088465	28524.082388193
0	10583	1039343.892444199022	28805.898043733
0	10588	1039496.803881724148	26838.76495678
0	10593	1039856.062721160181	25535.163196119
0	10598	1039986.513121312262	23276.689185757
0	10603	1040011.231356447229	29326.772866104
0	10611	1040223.752555873538	30721.907600437
0	10617	1040809.840920150203	27200.398244603
0	10622	1040977.61881729327	21707.696465012
0	10627	1041031.743765293468	23917.233115475
0	10632	1041192.346201884406	16966.729560562
0	10637	1041236.628927165	16388.349490934
0	10642	1041854.824778350188	28280.708085834
0	10647	1042006.065544569792	11978.27105567
0	10652	1042052.806699461514	21467.843596932
0	10658	1042681.414371915818	10991.722627872
0	10663	1042846.774399281751	15038.256539094
0	10680	1045440.19497167964	12732.879962766
0	10879	1069249.434587499641	31840.718761859
0	10884	1069532.443362598443	20779.546135259
0	10890	1069703.878376229064	20635.948566832
0	10895	1069901.531195027095	23590.9453695
0	10903	1070472.886443045848	27297.68582401
0	10913	1070867.868545623166	22059.220945784
0	10921	1071335.623149970643	21752.852608898
0	10927	1071643.585317621356	15605.114136974
0	10935	1071897.186664378982	16701.046510639
0	10940	1071906.053147979441	20767.650233113
0	10948	1072022.578226904163	16480.723706249
0	10953	1072061.276664993778	20898.198869113
0	10958	1072064.448924909314	15411.030000613
0	10966	1073112.456456812162	14989.714332261
0	10972	1073426.502880387847	8101.7851429719
0	10977	1073480.426359974679	10991.212568914
0	10991	1073946.464157494646	16762.80324306
0	11044	1080976.848982266354	20483.285789657
0	11049	1081364.612193379752	23428.075218302
0	11055	1082031.626285495236	11913.521898855
0	11063	1082524.515852043418	8584.9414607223
0	11068	1082700.764991726176	21410.56037577
0	11073	1083219.559932561909	8304.7120209087
0	11082	1083668.225490702821	9487.2280290138
0	11104	1085201.767570089651	1778.8059407797
0	11120	1085870.581592488138	10313.405375218
0	11153	1088408.259171755828	1839.7308037703
0	11182	1091247.534989081262	6831.9589382498
0	11187	1091337.493739016898	5877.6890325254
0	11267	1102616.955107273249	15092.033644066
0	11272	1102641.517719042136	10024.280256966
0	11280	1103000.081413632281	14255.091829979
0	11291	1103927.173486687696	8847.7976119238
0	11303	1105470.867030232478	7601.8142580217
0	11326	1106519.383634364505	16963.52410732
0	11346	1110188.125788395928	15086.136810988
0	11356	1110417.918063312976	16261.7869886
0	11362	1111315.443528872829	11934.403445541
0	11367	1111511.571471705667	18712.351916551
0	11375	1111633.991396565218	5196.860390917
0	11383	1112286.931241534512	6578.3833286767
0	11395	1114127.676697804504	8879.4919951215
0	11401	1114862.491989320951	28650.350254742
0	11449	1118782.456070127088	3239.8042352146
0	11454	1118957.210775022268	8941.1189707596
0	11459	1119330.07375394584	2889.768629526
0	11477	1122422.114733005691	6496.6611575432
1	2105	200652.9371739813	0
1	2130	203059.039891597027	327.94196209337
1	2141	207699.894960806711	0
1	2152	208194.98497800604	447.00773963425
1	2160	208593.085769490057	18.869981409937
1	2191	211742.684547672615	0
1	2208	213944.556690082329	392.47987318634
1	2217	214334.059964527315	207.92750926547
1	2236	214952.826123704913	87.098206702894
1	2258	216792.79261097578	54.477210645029
1	2283	220417.896889342996	1338.8879808352
1	2291	221052.5336419359	1791.9957567377
1	2297	222268.178588627665	2805.5900021706
1	2312	223572.102360822363	3881.2229686936
1	2320	224437.753193492913	1979.7719177011
1	2327	226477.055312123177	3251.6932095984
1	2380	233198.402983535948	0
1	2392	235131.378568081282	956.08740639755
1	2431	239079.572514216969	0
1	2440	240984.053341364295	0
1	2456	243591.077718012457	2295.2663315442
1	2461	244804.600723060776	1609.3455333238
1	2470	245745.472704286013	18.056424776227
1	2491	248743.444742770787	702.6943540461
1	2518	250776.574174907283	0
1	2536	254583.201155848703	0
1	2555	257656.607832941031	2476.9991831605
1	2560	258626.181305727642	1102.7015765343
1	2569	260300.564741548146	463.73653222927
1	2577	260510.683296119693	13.982949667748
1	2620	261773.947513614195	0
1	2637	263734.262925301703	0
1	2663	267189.542439206795	0
1	2683	268536.440030014544	237.20961019024
1	2697	270141.001298836604	264.91620675634
1	2706	272375.811418541545	0
1	2726	274226.577213999825	298.90910081084
1	2759	279861.894062284872	0
1	2768	282627.5480860232	0
1	2785	284268.944808923954	0
1	2810	286224.82602882207	0
1	2829	290219.545125716204	0
1	2838	291998.339101638097	0
1	2855	293323.647992387056	0
1	2870	295453.895584887173	1066.8517962697
1	2875	295550.645344845381	675.72386663807
1	2891	296373.278194269182	316.8678584875
1	2914	299356.423978113863	0
1	2922	299498.841386940639	48.569249287828
1	2936	299964.823966851916	410.91941792129
1	2945	300487.587638805388	288.34691963989
1	2963	302691.631142680474	1854.594896836
1	2972	303628.200847668034	2439.9075635225
1	2991	308280.615041027538	5160.6199072168
1	2997	308784.427606266181	4066.4315979557
1	3009	310306.552007330503	4194.978805309
1	3030	313224.868000608007	6505.9037510916
1	3036	314087.64883772781	3576.9456785775
1	3044	314994.127425076836	4420.2610528516
1	3055	315146.446423088605	2491.8750260085
1	3061	316080.226166992065	967.68311002565
1	3105	319436.153194326231	357.43803180822
1	3116	320188.264064330928	241.37320749757
1	3127	320533.337466388989	202.98598392562
1	3139	321026.668924546582	661.24484148491
1	3150	321874.906505598113	1225.8161116741
1	3155	321886.790504089524	135.71801271941
1	3175	322983.342938182587	375.97294807971
1	3220	324843.059091921348	302.80765889509
1	3239	328035.366058176413	2308.9118034144
1	3244	328946.605082646411	1630.9084541074
1	3264	329546.842496573807	225.88387261017
1	3269	329804.825037419454	266.03298733386
1	3291	330869.872659004759	39.163562356757
1	3359	335397.386126617922	0
1	3372	338372.445602551373	2270.3685160582
1	3385	339260.296807000979	0
1	3397	340600.616623092409	1329.4884290463
1	3422	344156.634114501233	2626.829258652
1	3427	344408.220193886965	1775.6884404272
1	3450	349658.990820079055	3300.0349193202
1	3455	349684.313612311738	3055.2380170377
1	3464	350319.652442276157	2178.8858744692
1	3472	350705.224271999014	2359.8568533509
1	3491	353174.19433628259	2674.8850087421
1	3496	353277.300110024919	2512.1311134476
1	3504	353898.628894343639	171.4703310978
1	3555	356751.109332009004	978.00151634157
1	3605	359517.355589553604	0
1	3613	359958.76166078677	171.71000915829
1	3633	360913.154799163199	21.084454002505
1	3647	362529.953000637675	935.79577996041
1	3663	363300.976205131251	0
1	3697	366783.535201964847	0
1	3710	369437.872886231022	1676.2985797127
1	3732	371358.718811647249	10.123611018807
1	3749	372573.640500444272	0
1	3767	377084.82009962647	0
1	3776	377628.331029947244	57.624191271859
1	3784	378562.522472890934	90.312837171671
1	3806	380964.463889797923	1842.357902307
1	3821	383216.961878475743	3938.6318271964
1	3840	387173.605922976648	7649.7631738356
1	3849	387873.773082832174	4746.8272347616
1	3854	388659.619081428501	4980.5476010752
1	3859	388950.381157818116	3808.7755020387
1	3865	389145.677478249683	3775.8519719354
1	3870	389724.213679973564	1952.6244698321
1	3913	392385.644565043939	164.64700453297
1	3925	393741.453627940571	685.09860605161
1	3951	394956.830430516561	73.299515236434
1	3990	396528.787692913717	50.510793281847
1	4004	397831.797943054857	0
1	4030	401589.553140545498	0
1	4063	404456.335417039176	0
1	4072	404900.728603761831	157.54748841853
1	4098	409210.528897446569	0
1	4116	411994.240675346203	66.541279341746
1	4127	412731.912247488299	592.55226074049
1	4146	415641.172367799609	3280.6922981692
1	4155	417142.48520134187	3940.4921666353
1	4160	417207.105199386951	2615.7645516578
1	4172	418431.947876130049	3403.4685395935
1	4177	418519.452892623746	849.08178763403
1	4185	418640.329852625663	893.73262426944
1	4196	419334.94074765832	794.57803470218
1	4221	420050.575047370148	18.526786197353
1	4234	420841.658719506457	259.17405087515
1	4242	421348.525934205859	309.8658531981
1	4285	427192.908591394557	0
1	4319	430762.474865343539	0
1	4336	433206.520181551955	43.136501779182
1	4345	433909.07435131916	0
1	4378	436114.209042012434	0
1	4390	437934.350797249525	704.7622881097
1	4395	438310.469926283927	657.30411082793
1	4403	438668.453950552791	74.981613032704
1	4449	448068.474601436299	0
1	4459	451264.195505850754	0
1	4476	453679.749117564107	0
1	4494	457388.587782361572	0
1	4506	458481.369467182872	1014.3836426103
1	4518	459910.737200518022	1747.8053352514
1	4523	460192.125475666691	1584.948622386
1	4538	461142.249731995086	1380.475105919
1	4554	465972.147652812432	5423.7091274862
1	4559	466110.993044108681	4201.8592696383
1	4584	469697.97060730493	2902.9729625733
1	4596	471220.111163844864	4335.576663062
1	4605	472293.285441228701	5244.9922341034
1	4611	473564.444702523374	1632.9144265466
1	4629	474523.258652413913	309.08862371018
1	4638	475856.277430089474	1247.3041617465
1	4653	476772.874618047332	285.40815463258
1	4692	479012.346269506853	11.285209965026
1	4707	481295.602006491785	2131.2729058786
1	4712	481408.67501926273	1596.2879715747
1	4717	481663.882486821556	636.89048055835
1	4739	483413.295347622954	25.348246419479
1	4768	486925.409559258567	40.025806988278
1	4785	488654.134183884441	203.55105501788
1	4829	491523.436281787603	296.29634073657
1	4850	493638.963132427887	1626.2650701674
1	4856	493759.334561491573	763.56819780309
1	4901	495934.019225505951	0
1	4927	499515.924052965054	0
1	4942	500640.651342260814	601.63272023836
1	4947	501076.819444603282	908.22552349137
1	4965	503609.647932491645	3179.8778152256
1	4970	503751.695149626794	283.37988861441
1	4982	505270.054314171284	995.83704991471
1	4991	505758.876518600011	1161.6966829475
1	5005	507198.199709986162	1847.5758632119
1	5011	507739.660891750132	1374.74764299
1	5028	509204.929566834293	162.88037848731
1	5059	510605.750924923078	400.32430467608
1	5068	511029.026171785454	706.01690835053
1	5095	512650.82832774342	1524.4327490669
1	5103	513606.550133528445	1863.9437871947
1	5109	515049.088565290719	3230.2804817089
1	5135	516029.164731840473	625.98229046539
1	5149	516805.748391990232	1073.6045057097
1	5157	517522.282217510841	1712.0327767125
1	5163	518397.818192524172	1861.2869053301
1	5168	519217.020073121934	2670.3883460099
1	5173	519290.093078647068	2171.268160877
1	5211	521978.930199933939	20.056962040337
1	5296	528154.31363688765	0
1	5322	532478.723390448194	0
1	5331	533890.057175733372	330.24027364068
1	5348	536515.675305653045	0
1	5366	539955.139430384182	0
1	5382	542043.416152698446	1604.9828125221
1	5387	542735.490838615667	1423.888172836
1	5402	544329.23865422276	898.25132513278
1	5407	544508.373714928016	784.94627820133
1	5426	545597.947437272975	0
1	5454	547771.737957326972	543.55977886324
1	5468	549219.106490859713	0
1	5490	552271.625829853929	1860.0836919565
1	5498	552433.286236708955	839.58070115884
1	5503	553104.530814939621	1321.4136700879
1	5522	555447.82617956833	2286.3155236114
1	5533	555960.933994710294	2131.5565625723
1	5538	555981.154752510783	303.00695710277
1	5543	556406.333712244552	467.76749619657
1	5576	558180.94222025265	790.24195314884
1	5585	559437.60585954286	2005.7430994388
1	5590	559940.743316202308	2159.799584722
1	5663	563235.423532506067	134.68975428496
1	5676	563621.418932195791	0
1	5693	564925.840655482223	0
1	5710	566534.801076555352	0
1	5718	567332.178461515077	0
1	5740	569958.796297390391	1837.3228484216
1	5745	570196.039140642493	1378.0522186938
1	5750	570370.364412894994	1491.4030869199
1	5759	571009.195025259009	1137.6886787273
1	5770	571844.349809593459	1347.5931118494
1	5782	572628.638331064549	1308.0049465013
1	5791	575834.015433838389	3514.8217529399
1	5799	575964.071628349262	81.68201385578
1	5817	577315.01194951841	1347.4124769445
1	5855	578670.244853194644	366.92863489158
1	5876	579350.868114414728	135.78889777876
1	5897	581817.390537201811	677.55647889457
1	5905	582245.640626312105	594.95456137418
1	5921	584703.488064104511	1101.004560482
1	5929	585537.993388210752	1798.3314398363
1	5949	586890.870428378123	532.55280195806
1	5967	588769.778597846837	474.41039611985
1	5975	588902.567378823682	149.25051367264
1	5986	589384.433270618595	491.93771333564
1	5991	589513.036366689485	337.15562048976
1	6000	590313.537845674687	1085.2811557834
1	6030	592158.799279047211	19.107280483883
1	6048	593642.482355296229	871.67773592956
1	6056	594491.441452026807	1106.6909301862
1	6081	596845.443285713263	1781.6701239576
1	6086	596957.68666074192	1632.7691500693
1	6091	597066.731111679827	1570.5543151865
1	6096	597089.729932743132	1517.3362643851
1	6104	597281.353779982352	1533.8312630778
1	6119	598850.348196729338	2549.025789359
1	6131	600066.228496718344	2848.6832347319
1	6136	600758.955508510435	2917.3436040745
1	6171	602082.268297624906	4.495476971785
1	6230	605055.948314839521	334.19132251871
1	6243	607034.692593061827	1610.4374553065
1	6249	610156.267961587021	3783.172087461
1	6274	613344.393677820799	2895.5666121323
1	6283	613953.588249147994	3372.9348595098
1	6288	614079.502296424336	2121.3178505142
1	6302	614961.796946207912	2340.9705174102
1	6307	615072.837697871085	561.39505953683
1	6328	616951.387269590134	1130.5595294403
1	6334	617713.502262678563	1544.9034746558
1	6342	618736.896860329591	235.11103364772
1	6357	619448.372933260837	304.79678421661
1	6362	619449.216896572127	13.774781246217
1	6409	622363.313429310515	668.7234802769
1	6424	624914.78246843168	2114.5178249738
1	6433	625815.121578451439	2921.9972416757
1	6438	625816.258948899419	1417.410081071
1	6443	625964.058540147775	393.94568027774
1	6550	630570.798709732146	250.81006540935
1	6621	633955.148116037254	0
1	6630	635142.467085498518	80.836588934439
1	6638	635638.257704942298	0
1	6647	637675.502842074709	0
1	6656	639099.235120170408	0
1	6684	640089.603671466688	58.495927796515
1	6707	643343.260019314582	0
1	6723	644441.246708784519	0
1	6741	646862.944574558418	0
1	6757	647492.346929468767	0
1	6765	647863.680363872344	121.65020894526
1	6780	649332.85456054147	724.40339325503
1	6795	649882.92143964517	980.8960370209
1	6827	652930.130142010046	15.195111359381
1	6853	653933.83772935164	796.03274617473
1	6858	654173.881185320869	491.09519226079
1	6882	656187.403749028581	194.76452374836
1	6891	657532.769513653789	18.060210694166
1	6916	659620.578390149108	0
1	6933	660911.443451896574	0
1	6942	662223.147044745984	0
1	6959	663155.212005053375	915.51469991549
1	6968	664266.535176120746	1827.1040364676
1	6976	664678.200444242044	1661.4426494428
1	6985	665996.433508954456	2605.3874995569
1	7051	671885.384305772293	0
1	7061	674752.582656245173	0
1	7078	676572.880519301324	0
1	7087	677922.233174812033	1045.6807690697
1	7099	679201.796613454865	571.66933074723
1	7124	680748.812483688197	336.16288460225
1	7132	681410.756694747162	53.17130064787
1	7148	681938.117352689973	161.29578833064
1	7165	683173.506676569325	116.43181139454
1	7185	684389.904228161104	534.43889121551
1	7204	686289.976563033726	0
1	7212	686661.605311733971	299.9513048805
1	7221	687487.137269910176	155.51731751353
1	7255	691097.670951915073	0
1	7267	692790.334439548395	1090.8832402802
1	7275	694216.065478257894	1642.1160923478
1	7292	695269.089047950725	803.93106319105
1	7315	698006.595801578103	0
1	7323	698700.533088256852	89.207052327261
1	7376	707923.163385112605	0
1	7394	711192.412873386362	0
1	7404	713286.846235580942	1046.6674358014
1	7413	715173.667849922077	0
1	7430	717857.592062541721	0
1	7455	719931.526639373708	0
1	7473	721725.528349399121	217.70332057266
1	7481	723061.653132874168	609.82641712904
1	7500	725616.485005925852	2542.77269442
1	7505	726051.83604119245	1081.2233797512
1	7513	726544.290915922353	1172.69807476
1	7522	728037.329051425822	1799.2540062443
1	7542	728902.612128883525	17.031394257247
1	7564	732179.655251234869	2991.5950797932
1	7575	732970.843371300718	2513.5181201016
1	7580	733135.978926061691	2442.8539204463
1	7586	734131.043483308365	3288.475415686
1	7592	735739.90429621148	3593.6898511234
1	7645	738691.031312567921	79.543826856723
1	7664	741606.750820707013	607.97137679832
1	7697	744168.187430081573	377.73637751885
1	7702	745425.509019793986	1550.674209522
1	7736	747860.311350225022	0
1	7744	748194.875073154614	69.818934152061
1	7762	749537.815975997282	1142.9881301101
1	7767	750155.844179307578	823.10894148007
1	7779	750911.491310660318	478.61590963866
1	7810	752313.118791021239	0
1	7828	755018.960839576147	0
1	7861	756011.746916755952	34.724807275263
1	7870	758446.977891901797	0
1	7898	760282.300067784396	452.43937787104
1	7912	761556.049497369904	0
1	7929	763048.082638941026	0
1	7938	765931.854592118001	0
1	7948	769141.381314008299	0
1	7961	772480.855193791374	2706.4281844763
1	7978	774822.333221660268	604.17764360754
1	7990	775207.925913365231	2.519199892959
1	8011	775411.246449618709	51.155091093284
1	8025	776630.153223171127	0
1	8041	777956.703511372148	0
1	8058	779886.039542090924	40.115568862265
1	8073	781211.56153540571	628.34590060018
1	8085	781798.986360629852	961.8492535452
1	8103	784312.792290549623	2492.7734650728
1	8109	786035.945749481902	2966.4461176874
1	8121	787231.308060162302	1023.3443678501
1	8161	788785.568829822259	326.49525269081
1	8184	789919.18530034334	88.262296993783
1	8204	791466.397152619901	262.22850356712
1	8219	792719.590610774788	1002.4180862155
1	8224	792769.80585071793	946.91079556751
1	8250	794876.896722497776	372.93472451
1	8271	796202.212656608577	1645.4115409878
1	8276	796259.620877796175	1687.8719219647
1	8284	796443.004603537721	1640.9934124237
1	8293	797307.407922663863	2176.9890830529
1	8298	797451.258901508266	2188.7047267841
1	8315	798572.003643870318	2478.6670626957
1	8320	798705.445039841532	2317.9867501723
1	8326	798968.665069095872	858.73486520051
1	8331	799725.044707633613	1542.8342492157
1	8347	800370.231573683214	80.429638091331
1	8406	802317.51023041524	635.05465080568
1	8414	802492.449510108703	390.59872394932
1	8456	805477.263443853399	278.51283275569
1	8462	806035.006383746629	564.59916300906
1	8511	809164.402643786691	180.80882471755
1	8516	809314.823935682999	283.99016559943
1	8524	809380.977027634912	0
1	8549	811605.070781776777	0
1	8558	812635.067042961575	0
1	8583	813383.7001298143	220.63177729538
1	8588	813602.449698699103	391.42068425542
1	8604	813927.593988516196	75.450524732488
1	8641	818978.112330811284	0
1	8677	825627.401860479702	0
1	8695	828451.01821031371	0
1	8711	829403.975524012265	0
1	8722	833560.198734041056	0
1	8747	835608.567492046905	160.80807651851
1	8756	837535.921604591906	0
1	8765	839201.807420582781	0
1	8790	840379.105597853631	453.15666416044
1	8807	842075.4129899933	0
1	8824	845103.727108517885	0
1	8836	846692.538596504466	337.79358550497
1	8869	852037.94848512292	0
1	8881	854569.75810441965	976.42862726449
1	8892	855228.686374609701	840.74229067151
1	8898	855638.071545184444	767.21984774328
1	8920	858378.050088007354	0
1	8939	862962.24049294079	0
1	8973	866857.538257092421	0
1	8992	872451.102475009871	0
1	9013	879432.537250716263	0
1	9026	884157.990517510637	4189.6600379279
1	9034	884347.656074292121	1173.3314076928
1	9057	886561.349195365167	0
1	9065	887414.207995476911	273.25150216289
1	9073	887938.599230697213	130.04245930841
1	9082	888920.823226864705	205.82382078681
1	9102	890912.357860246118	893.96049459701
1	9122	892924.633951262606	842.5009633598
1	9144	895539.54096545845	781.99911288225
1	9152	895982.578094012439	1151.0341616065
1	9160	896151.848865403189	1090.6714209822
1	9165	896493.835150708333	479.36878658125
1	9226	901952.154941169525	0
1	9238	904305.743560087779	816.62153190626
1	9251	904521.823381009277	0
1	9277	907601.707017840094	0
1	9287	910326.662297193487	0
1	9295	910416.846900885651	20.410607563054
1	9303	910619.358100802461	184.13306142699
1	9311	910767.923273109088	0
1	9344	913249.053766969348	0
1	9360	913640.956821420356	0
1	9394	916310.880364374383	0
1	9403	917138.439320578168	621.08132763677
1	9436	919386.0810980753	165.79822573341
1	9444	919526.567421232587	0
1	9455	920366.820509717473	437.06809707726
1	9460	920476.15549750074	239.3153493511
1	9469	921439.975617665262	628.56210374645
1	9499	928729.790396460708	4039.2668508905
1	9504	928990.475144521607	3458.9856964799
1	9516	929633.791969546356	3620.2985023397
1	9521	929742.528004555535	1169.4812366415
1	9529	929816.08921872008	746.65590311106
1	9534	929998.377491874637	476.15609139867
1	9539	930163.271368044248	405.12401472735
1	9603	932492.04745202641	0
1	9621	935152.628660795819	0
1	9646	937259.280647685267	0
1	9655	938055.493740300982	0
1	9688	940886.556998855849	0
1	9713	944410.707783628811	2518.8977347871
1	9719	944688.609726288959	2236.5774451622
1	9734	946808.056909333862	4033.2234079172
1	9739	947430.643819976813	3582.4158829258
1	9751	949224.738483860076	2988.695701591
1	9756	949447.703066702197	795.95614659879
1	9771	950043.141951247356	207.0533667733
1	9776	950163.447736638088	249.30349909853
1	9787	951044.71285547116	427.41022730678
1	9809	951556.13912469963	159.91909854169
1	9874	956822.306998610501	0
1	9909	963334.380128382739	0
1	9919	965247.970448841162	186.3366166828
1	9936	967852.718020014392	335.94334664113
1	9954	970970.833991905864	0
1	9980	974703.92303874008	0
1	9999	977300.780932382363	2510.1928230524
1	10004	977503.792023582346	2430.4012010217
1	10012	978480.177464132622	3303.2036380732
1	10017	978494.001335638496	1700.103141754
1	10039	979949.298564144064	0
1	10054	982010.90162880785	1439.7403377729
1	10068	982566.088790722196	118.90104586537
1	10079	983233.76898097706	499.75358952379
1	10102	986327.152613017553	747.56071671561
1	10152	994917.842928025671	0
1	10160	995618.920405820838	0
1	10178	999056.441260338871	0
1	10205	1003484.221654956738	228.91221924532
1	10219	1004040.660872916037	491.69166652113
1	10228	1005226.492539835521	1427.9817949329
1	10237	1006548.54960695176	2619.0076366408
1	10243	1008526.547736811636	4245.1166142241
1	10280	1011850.943979679528	2738.8397022078
1	10288	1012567.041494828094	3065.1965393919
1	10302	1013002.575612480772	2638.5169693787
1	10318	1015230.350555614529	4700.0788937194
1	10323	1015303.130357977414	4765.1359575119
1	10328	1016047.137739768012	5362.6792494252
1	10344	1018849.260869573818	8128.7485615178
1	10352	1019172.729222863204	6548.7472282272
1	10360	1019918.809026326635	7260.7701013821
1	10372	1020608.908791126438	7034.7920986105
1	10381	1021761.463320677629	8152.0206451302
1	10389	1023012.548855413341	8691.6493303721
1	10394	1023114.037171976352	6404.2132364211
1	10413	1026164.763254884407	9050.2526050662
1	10418	1026332.804059762577	7062.8817074809
1	10447	1031127.787152974513	10542.824050445
1	10455	1031926.793357579708	7701.1767162576
1	10471	1033891.975046267457	9043.6956100365
1	10476	1033891.986868809984	6083.4690086223
1	10481	1034295.27565792943	4267.4811690293
1	10493	1035567.14931976878	3877.4575757252
1	10501	1035973.039409102094	3265.7244001883
1	10549	1037702.522581388295	293.80675574782
1	10668	1043175.200619035876	0
1	10686	1046310.585825527185	0
1	10695	1048752.897227339773	0
1	10713	1049752.510973614452	943.86337377529
1	10725	1051663.442842683168	2595.5130332861
1	10733	1052104.141809356834	2521.3712682837
1	10738	1052265.346698267681	1126.9437834009
1	10754	1054355.464229860122	3192.3864339796
1	10778	1057565.478584774884	2369.3384310347
1	10783	1057590.931346940461	2049.0768262856
1	10798	1059154.673617116463	3116.2024364695
1	10804	1059567.040203721978	2913.6212794258
1	10809	1059771.101545479459	2587.4406310446
1	10836	1062363.244481840395	4426.7075067625
1	10845	1064079.009282004334	5956.2671574527
1	10851	1064822.017419909167	4328.4542273001
1	10859	1066137.893992284469	4847.689376328
1	10865	1066283.646363123009	3794.4325720622
1	10871	1068477.590813415451	3152.8730759995
1	10905	1070472.886443045848	354.78205640552
1	10993	1073946.464157494646	6.889766173521
1	11005	1075016.405603623997	835.40814193499
1	11013	1075638.306949401158	723.459037748
1	11025	1076916.975860021435	1359.7996427511
1	11084	1083668.225490702821	245.26386139287
1	11092	1084415.576050831458	0
1	11109	1085459.804706491521	0
1	11125	1086212.14173457862	0
1	11134	1087043.914867843217	475.38649985768
1	11142	1087524.921463207559	0
1	11159	1088744.989583653369	0
1	11167	1089555.859527044664	0
1	11193	1092617.237462076569	0
1	11208	1094662.660160993246	1863.4406058388
1	11225	1098924.473363856587	4768.3422891437
1	11230	1099227.619931451886	4148.244056688
1	11241	1100377.559169068893	5275.5701916608
1	11250	1100955.409436532435	3086.3566643217
1	11258	1102211.265171978594	2830.2250886466
1	11305	1105470.867030232478	222.68232754949
1	11328	1106519.383634364505	810.83572150673
1	11334	1107730.269642990205	1293.138637342
1	11348	1110188.125788395928	172.03398413327
1	11406	1115542.65183491246	0
1	11418	1116705.501814897915	780.04823943537
1	11423	1116713.382725860498	273.07760144067
1	11434	1117630.694976206284	61.372104795529
1	11465	1119585.529892247469	0
2	2103	200652.9371739813	1
2	2105	200652.9371739813	0
2	2125	202731.097929503661	1
2	2130	203059.039891597027	0
2	2139	207699.894960806711	1
2	2141	207699.894960806711	0
2	2144	207747.97723837179	1
2	2152	208194.98497800604	0
2	2155	208574.21578808012	1
2	2160	208593.085769490057	0
2	2189	211742.684547672615	1
2	2191	211742.684547672615	0
2	2203	213552.076816895992	1
2	2208	213944.556690082329	0
2	2211	214126.132455261841	1
2	2217	214334.059964527315	0
2	2231	214865.727917002019	1
2	2236	214952.826123704913	0
2	2253	216738.315400330751	1
2	2258	216792.79261097578	0
2	2268	219079.008908507796	1
2	2271	219260.537885198227	2
2	2275	219462.588586457079	3
2	2278	219690.87939212877	4
2	2283	220417.896889342996	3
2	2291	221052.5336419359	2
2	2297	222268.178588627665	1
2	2300	222457.981275791765	2
2	2307	223225.362102524732	3
2	2312	223572.102360822363	2
2	2320	224437.753193492913	1
2	2327	226477.055312123177	0
2	2378	233198.402983535948	1
2	2380	233198.402983535948	0
2	2386	234175.291161683729	1
2	2392	235131.378568081282	0
2	2429	239079.572514216969	1
2	2431	239079.572514216969	0
2	2438	240984.053341364295	1
2	2440	240984.053341364295	0
2	2443	241295.811386468237	1
2	2450	243195.255189737002	2
2	2456	243591.077718012457	1
2	2461	244804.600723060776	0
2	2465	245727.416279509786	1
2	2470	245745.472704286013	0
2	2485	248040.750388724685	1
2	2491	248743.444742770787	0
2	2516	250776.574174907283	1
2	2518	250776.574174907283	0
2	2534	254583.201155848703	1
2	2536	254583.201155848703	0
2	2542	255179.608649780503	1
2	2547	257523.479729193314	2
2	2555	257656.607832941031	1
2	2560	258626.181305727642	0
2	2564	259836.828209318873	1
2	2569	260300.564741548146	0
2	2572	260496.700346451945	1
2	2577	260510.683296119693	0
2	2618	261773.947513614195	1
2	2620	261773.947513614195	0
2	2635	263734.262925301703	1
2	2637	263734.262925301703	0
2	2661	267189.542439206795	1
2	2663	267189.542439206795	0
2	2675	268299.230419824308	1
2	2683	268536.440030014544	0
2	2692	269876.085092080266	1
2	2697	270141.001298836604	0
2	2704	272375.811418541545	1
2	2706	272375.811418541545	0
2	2721	273927.668113188982	1
2	2726	274226.577213999825	0
2	2757	279861.894062284872	1
2	2759	279861.894062284872	0
2	2766	282627.5480860232	1
2	2768	282627.5480860232	0
2	2783	284268.944808923954	1
2	2785	284268.944808923954	0
2	2808	286224.82602882207	1
2	2810	286224.82602882207	0
2	2827	290219.545125716204	1
2	2829	290219.545125716204	0
2	2836	291998.339101638097	1
2	2838	291998.339101638097	0
2	2853	293323.647992387056	1
2	2855	293323.647992387056	0
2	2858	294387.04378861752	1
2	2862	294874.921478207308	2
2	2870	295453.895584887173	1
2	2875	295550.645344845381	0
2	2886	296056.410335781679	1
2	2891	296373.278194269182	0
2	2912	299356.423978113863	1
2	2914	299356.423978113863	0
2	2917	299450.272137652811	1
2	2922	299498.841386940639	0
2	2925	299553.904548930625	1
2	2936	299964.823966851916	0
2	2940	300199.240719165503	1
2	2945	300487.587638805388	0
2	2948	300837.0362458445	1
2	2954	301188.293284145519	2
2	2963	302691.631142680474	1
2	2966	303119.995133810736	2
2	2972	303628.200847668034	1
2	2975	304717.996008310437	2
2	2982	306111.573202021484	3
2	2985	306718.964249516362	4
2	2991	308280.615041027538	3
2	2997	308784.427606266181	2
2	3009	310306.552007330503	1
2	3015	310510.703159150262	2
2	3018	310573.866372225283	3
2	3025	312654.57139708008	4
2	3030	313224.868000608007	3
2	3036	314087.64883772781	2
2	3044	314994.127425076836	1
2	3050	315112.543056966418	2
2	3055	315146.446423088605	1
2	3061	316080.226166992065	0
2	3100	319078.715162518009	1
2	3105	319436.153194326231	0
2	3108	319946.890856833357	1
2	3116	320188.264064330928	0
2	3119	320330.351482463372	1
2	3122	320365.424083061673	2
2	3127	320533.337466388989	1
2	3131	320649.090393924063	2
2	3139	321026.668924546582	1
2	3142	321751.072491370111	2
2	3150	321874.906505598113	1
2	3155	321886.790504089524	0
2	3167	322607.369990102882	1
2	3175	322983.342938182587	0
2	3215	324540.251433026255	1
2	3220	324843.059091921348	0
2	3227	325726.454254762045	1
2	3233	327315.696628539034	2
2	3239	328035.366058176413	1
2	3244	328946.605082646411	0
2	3256	329320.958623963632	1
2	3259	329538.792050085591	2
2	3264	329546.842496573807	1
2	3269	329804.825037419454	0
2	3285	330830.709096648002	1
2	3291	330869.872659004759	0
2	3357	335397.386126617922	1
2	3359	335397.386126617922	0
2	3363	336102.077086493134	1
2	3372	338372.445602551373	0
2	3383	339260.296807000979	1
2	3385	339260.296807000979	0
2	3388	339271.128194046129	1
2	3397	340600.616623092409	0
2	3401	341529.804855849222	1
2	3407	342632.5317534598	2
2	3422	344156.634114501233	1
2	3427	344408.220193886965	0
2	3435	346358.955900758856	1
2	3438	346629.075595274088	2
2	3442	348140.76656780698	3
2	3445	348345.367418648091	4
2	3450	349658.990820079055	3
2	3455	349684.313612311738	2
2	3464	350319.652442276157	1
2	3467	350499.309327540514	2
2	3472	350705.224271999014	1
2	3475	350765.16899657732	2
2	3491	353174.19433628259	1
2	3496	353277.300110024919	0
2	3499	353727.15856324584	1
2	3504	353898.628894343639	0
2	3549	355773.107815667433	1
2	3555	356751.109332009004	0
2	3603	359517.355589553604	1
2	3605	359517.355589553604	0
2	3608	359787.051651628476	1
2	3613	359958.76166078677	0
2	3628	360892.070345160694	1
2	3633	360913.154799163199	0
2	3641	361594.157220677261	1
2	3647	362529.953000637675	0
2	3661	363300.976205131251	1
2	3663	363300.976205131251	0
2	3695	366783.535201964847	1
2	3697	366783.535201964847	0
2	3701	367761.574306518294	1
2	3710	369437.872886231022	0
2	3727	371348.595200628442	1
2	3732	371358.718811647249	0
2	3747	372573.640500444272	1
2	3749	372573.640500444272	0
2	3765	377084.82009962647	1
2	3767	377084.82009962647	0
2	3771	377570.706838675385	1
2	3776	377628.331029947244	0
2	3779	378472.209635719263	1
2	3784	378562.522472890934	0
2	3788	379122.105987490895	1
2	3791	379278.330051279305	2
2	3794	379523.842749141093	3
2	3806	380964.463889797923	2
2	3816	383126.945848070591	3
2	3821	383216.961878475743	2
2	3824	383679.071480353257	3
2	3828	385141.605655779402	4
2	3831	385369.825506314272	5
2	3840	387173.605922976648	4
2	3844	387771.589210141475	5
2	3849	387873.773082832174	4
2	3854	388659.619081428501	3
2	3859	388950.381157818116	2
2	3865	389145.677478249683	1
2	3870	389724.213679973564	0
2	3908	392220.997560510967	1
2	3913	392385.644565043939	0
2	3917	393056.355021888959	1
2	3925	393741.453627940571	0
2	3946	394883.530915280127	1
2	3951	394956.830430516561	0
2	3985	396478.27689963187	1
2	3990	396528.787692913717	0
2	4002	397831.797943054857	1
2	4004	397831.797943054857	0
2	4028	401589.553140545498	1
2	4030	401589.553140545498	0
2	4061	404456.335417039176	1
2	4063	404456.335417039176	0
2	4067	404743.181115343297	1
2	4072	404900.728603761831	0
2	4096	409210.528897446569	1
2	4098	409210.528897446569	0
2	4111	411927.699396004457	1
2	4116	411994.240675346203	0
2	4119	412139.359986747812	1
2	4122	412360.480069630367	2
2	4127	412731.912247488299	1
2	4131	413201.993034706549	2
2	4134	414591.340647729139	3
2	4141	415028.479336536578	4
2	4146	415641.172367799609	3
2	4155	417142.48520134187	2
2	4160	417207.105199386951	1
2	4163	417670.371104989713	2
2	4166	417746.597228356224	3
2	4172	418431.947876130049	2
2	4177	418519.452892623746	1
2	4180	418540.362712956138	2
2	4185	418640.329852625663	1
2	4196	419334.94074765832	0
2	4216	420032.048261172795	1
2	4221	420050.575047370148	0
2	4229	420582.484668631308	1
2	4234	420841.658719506457	0
2	4237	421038.660081007763	1
2	4242	421348.525934205859	0
2	4283	427192.908591394557	1
2	4285	427192.908591394557	0
2	4317	430762.474865343539	1
2	4319	430762.474865343539	0
2	4331	433163.383679772773	1
2	4336	433206.520181551955	0
2	4343	433909.07435131916	1
2	4345	433909.07435131916	0
2	4376	436114.209042012434	1
2	4378	436114.209042012434	0
2	4382	437229.58850913982	1
2	4385	437653.165815455997	2
2	4390	437934.350797249525	1
2	4395	438310.469926283927	0
2	4398	438593.472337520087	1
2	4403	438668.453950552791	0
2	4447	448068.474601436299	1
2	4449	448068.474601436299	0
2	4457	451264.195505850754	1
2	4459	451264.195505850754	0
2	4474	453679.749117564107	1
2	4476	453679.749117564107	0
2	4492	457388.587782361572	1
2	4494	457388.587782361572	0
2	4497	457466.985824572537	1
2	4501	458162.931865266605	2
2	4506	458481.369467182872	1
2	4509	458607.176853280684	2
2	4513	459761.774626076102	3
2	4518	459910.737200518022	2
2	4523	460192.125475666691	1
2	4526	460548.43852532626	2
2	4538	461142.249731995086	1
2	4541	461909.133774470338	2
2	4554	465972.147652812432	1
2	4559	466110.993044108681	0
2	4566	466794.997644731656	1
2	4569	466884.534500782869	2
2	4572	467048.293207125277	3
2	4584	469697.97060730493	2
2	4596	471220.111163844864	1
2	4600	471931.530275976783	2
2	4605	472293.285441228701	1
2	4611	473564.444702523374	0
2	4624	474214.170028703733	1
2	4629	474523.258652413913	0
2	4632	474608.973268343023	1
2	4638	475856.277430089474	0
2	4647	476487.46646341475	1
2	4653	476772.874618047332	0
2	4684	479001.061059541827	1
2	4692	479012.346269506853	0
2	4695	479164.329100613215	1
2	4698	479812.387047688025	2
2	4702	481026.99200626321	3
2	4707	481295.602006491785	2
2	4712	481408.67501926273	1
2	4717	481663.882486821556	0
2	4734	483387.947101203475	1
2	4739	483413.295347622954	0
2	4763	486885.383752270289	1
2	4768	486925.409559258567	0
2	4776	488450.58312886656	1
2	4785	488654.134183884441	0
2	4824	491227.139941051035	1
2	4829	491523.436281787603	0
2	4839	492012.698062260478	1
2	4842	492995.766363688486	2
2	4850	493638.963132427887	1
2	4856	493759.334561491573	0
2	4899	495934.019225505951	1
2	4901	495934.019225505951	0
2	4925	499515.924052965054	1
2	4927	499515.924052965054	0
2	4930	500039.018622022455	1
2	4933	500168.593921111917	2
2	4936	500429.770117266057	3
2	4942	500640.651342260814	2
2	4947	501076.819444603282	1
2	4960	503468.315261012379	2
2	4965	503609.647932491645	1
2	4970	503751.695149626794	0
2	4974	504274.217264256571	1
2	4977	504597.179835652505	2
2	4982	505270.054314171284	1
2	4985	505350.623846774222	2
2	4991	505758.876518600011	1
2	4994	506364.913248760135	2
2	5005	507198.199709986162	1
2	5011	507739.660891750132	0
2	5022	509042.04918834698	1
2	5028	509204.929566834293	0
2	5051	510205.426620247001	1
2	5054	510323.00926343492	2
2	5059	510605.750924923078	1
2	5068	511029.026171785454	0
2	5074	511126.395578676511	1
2	5080	511742.606346333717	2
2	5083	511818.808083581865	3
2	5095	512650.82832774342	2
2	5103	513606.550133528445	1
2	5109	515049.088565290719	0
2	5120	515403.182441375083	1
2	5123	515732.1438862805	2
2	5129	515810.249440798316	3
2	5135	516029.164731840473	2
2	5138	516536.531287194059	3
2	5141	516546.631727112065	4
2	5149	516805.748391990232	3
2	5152	517118.82491777003	4
2	5157	517522.282217510841	3
2	5163	518397.818192524172	2
2	5168	519217.020073121934	1
2	5173	519290.093078647068	0
2	5206	521958.873237893602	1
2	5211	521978.930199933939	0
2	5294	528154.31363688765	1
2	5296	528154.31363688765	0
2	5320	532478.723390448194	1
2	5322	532478.723390448194	0
2	5326	533559.816902092693	1
2	5331	533890.057175733372	0
2	5346	536515.675305653045	1
2	5348	536515.675305653045	0
2	5364	539955.139430384182	1
2	5366	539955.139430384182	0
2	5370	540438.433340176339	1
2	5376	541311.60266577963	2
2	5382	542043.416152698446	1
2	5387	542735.490838615667	0
2	5391	543430.987329089976	1
2	5397	543723.427436726682	2
2	5402	544329.23865422276	1
2	5407	544508.373714928016	0
2	5424	545597.947437272975	1
2	5426	545597.947437272975	0
2	5449	547228.178178463734	1
2	5454	547771.737957326972	0
2	5466	549219.106490859713	1
2	5468	549219.106490859713	0
2	5472	550411.542137897419	1
2	5481	551593.705535550113	2
2	5484	551783.117144851732	3
2	5490	552271.625829853929	2
2	5498	552433.286236708955	1
2	5503	553104.530814939621	0
2	5506	553161.510655956925	1
2	5510	553829.377432137975	2
2	5522	555447.82617956833	1
2	5525	555678.147795408009	2
2	5528	555938.566216047983	3
2	5533	555960.933994710294	2
2	5538	555981.154752510783	1
2	5543	556406.333712244552	0
2	5565	557390.700267103806	1
2	5568	557431.862760104103	2
2	5571	557780.943731480267	3
2	5576	558180.94222025265	2
2	5585	559437.60585954286	1
2	5590	559940.743316202308	0
2	5658	563100.733778221107	1
2	5663	563235.423532506067	0
2	5674	563621.418932195791	1
2	5676	563621.418932195791	0
2	5691	564925.840655482223	1
2	5693	564925.840655482223	0
2	5708	566534.801076555352	1
2	5710	566534.801076555352	0
2	5716	567332.178461515077	1
2	5718	567332.178461515077	0
2	5725	568121.47344896884	1
2	5728	568817.986921948731	2
2	5731	568878.961325975045	3
2	5735	569871.506346531742	4
2	5740	569958.796297390391	3
2	5745	570196.039140642493	2
2	5750	570370.364412894994	1
2	5753	570496.756697744072	2
2	5759	571009.195025259009	1
2	5762	571320.633384563266	2
2	5770	571844.349809593459	1
2	5776	572319.193680898454	2
2	5782	572628.638331064549	1
2	5791	575834.015433838389	0
2	5794	575882.389614493482	1
2	5799	575964.071628349262	0
2	5802	575967.59947257395	1
2	5817	577315.01194951841	0
2	5850	578303.316218303063	1
2	5855	578670.244853194644	0
2	5868	579215.079216635969	1
2	5876	579350.868114414728	0
2	5889	581139.834058307241	1
2	5892	581650.686064937928	2
2	5897	581817.390537201811	1
2	5905	582245.640626312105	0
2	5912	583602.483503622497	1
2	5915	583739.661948374463	2
2	5921	584703.488064104511	1
2	5929	585537.993388210752	0
2	5938	586358.317626420066	1
2	5949	586890.870428378123	0
2	5959	588295.368201726989	1
2	5962	588753.316865151042	2
2	5967	588769.778597846837	1
2	5970	588892.495557282957	2
2	5975	588902.567378823682	1
2	5978	589175.880746199721	2
2	5981	589228.256689891244	3
2	5986	589384.433270618595	2
2	5991	589513.036366689485	1
2	6000	590313.537845674687	0
2	6025	592139.691998563328	1
2	6030	592158.799279047211	0
2	6039	592770.804619366672	1
2	6043	593384.750521840642	2
2	6048	593642.482355296229	1
2	6056	594491.441452026807	0
2	6060	595063.773161755632	1
2	6063	595324.917510672648	2
2	6066	595496.176796493374	3
2	6069	595572.393668358082	4
2	6072	595747.522516904582	5
2	6075	596301.322407370351	6
2	6081	596845.443285713263	5
2	6086	596957.68666074192	4
2	6091	597066.731111679827	3
2	6096	597089.729932743132	2
2	6099	597217.545261986449	3
2	6104	597281.353779982352	2
2	6113	597841.611904435948	3
2	6119	598850.348196729338	2
2	6131	600066.228496718344	1
2	6136	600758.955508510435	0
2	6166	602077.772820653121	1
2	6171	602082.268297624906	0
2	6225	604721.756992320813	1
2	6230	605055.948314839521	0
2	6234	605424.255137755289	1
2	6237	606373.09587412605	2
2	6243	607034.692593061827	1
2	6249	610156.267961587021	0
2	6256	610448.82706568854	1
2	6259	610580.653389638235	2
2	6262	611958.184445910111	3
2	6266	612620.826428797727	4
2	6274	613344.393677820799	3
2	6283	613953.588249147994	2
2	6288	614079.502296424336	1
2	6294	614511.442638334255	2
2	6302	614961.796946207912	1
2	6307	615072.837697871085	0
2	6320	615820.827740149826	1
2	6323	616168.598788022797	2
2	6328	616951.387269590134	1
2	6334	617713.502262678563	0
2	6337	618501.78582668187	1
2	6342	618736.896860329591	0
2	6349	619143.576149044222	1
2	6352	619435.44211532591	2
2	6357	619448.372933260837	1
2	6362	619449.216896572127	0
2	6400	621694.589949033611	1
2	6409	622363.313429310515	0
2	6412	622800.264643457862	1
2	6415	622893.124336775773	2
2	6419	624398.848867828383	3
2	6424	624914.78246843168	2
2	6427	625570.112859870034	3
2	6433	625815.121578451439	2
2	6438	625816.258948899419	1
2	6443	625964.058540147775	0
2	6545	630319.988644322796	1
2	6550	630570.798709732146	0
2	6619	633955.148116037254	1
2	6621	633955.148116037254	0
2	6625	635061.630496564079	1
2	6630	635142.467085498518	0
2	6636	635638.257704942298	1
2	6638	635638.257704942298	0
2	6645	637675.502842074709	1
2	6647	637675.502842074709	0
2	6654	639099.235120170408	1
2	6656	639099.235120170408	0
2	6679	640031.107743670173	1
2	6684	640089.603671466688	0
2	6705	643343.260019314582	1
2	6707	643343.260019314582	0
2	6721	644441.246708784519	1
2	6723	644441.246708784519	0
2	6739	646862.944574558418	1
2	6741	646862.944574558418	0
2	6755	647492.346929468767	1
2	6757	647492.346929468767	0
2	6760	647742.030154927084	1
2	6765	647863.680363872344	0
2	6772	648608.451167286442	1
2	6775	648902.02540262427	2
2	6780	649332.85456054147	1
2	6795	649882.92143964517	0
2	6822	652914.935030650665	1
2	6827	652930.130142010046	0
2	6836	653137.804983176908	1
2	6848	653682.785993060083	2
2	6853	653933.83772935164	1
2	6858	654173.881185320869	0
2	6877	655992.63922528022	1
2	6882	656187.403749028581	0
2	6886	657514.709302959623	1
2	6891	657532.769513653789	0
2	6914	659620.578390149108	1
2	6916	659620.578390149108	0
2	6931	660911.443451896574	1
2	6933	660911.443451896574	0
2	6940	662223.147044745984	1
2	6942	662223.147044745984	0
2	6945	662239.69730513788	1
2	6948	662439.431139653154	2
2	6954	663016.757794799287	3
2	6959	663155.212005053375	2
2	6962	663391.046009397507	3
2	6968	664266.535176120746	2
2	6976	664678.200444242044	1
2	6985	665996.433508954456	0
2	7049	671885.384305772293	1
2	7051	671885.384305772293	0
2	7059	674752.582656245173	1
2	7061	674752.582656245173	0
2	7076	676572.880519301324	1
2	7078	676572.880519301324	0
2	7081	676876.552405742286	1
2	7087	677922.233174812033	0
2	7093	678630.127282707632	1
2	7099	679201.796613454865	0
2	7118	680412.649599085947	1
2	7124	680748.812483688197	0
2	7127	681357.585394099292	1
2	7132	681410.756694747162	0
2	7143	681776.821564359331	1
2	7148	681938.117352689973	0
2	7160	683057.074865174789	1
2	7165	683173.506676569325	0
2	7176	683855.465336945597	1
2	7185	684389.904228161104	0
2	7202	686289.976563033726	1
2	7204	686289.976563033726	0
2	7207	686361.654006853471	1
2	7212	686661.605311733971	0
2	7215	687331.619952396648	1
2	7221	687487.137269910176	0
2	7253	691097.670951915073	1
2	7255	691097.670951915073	0
2	7258	691699.451199268239	1
2	7262	692573.949385910138	2
2	7267	692790.334439548395	1
2	7275	694216.065478257894	0
2	7284	694465.15798475967	1
2	7292	695269.089047950725	0
2	7313	698006.595801578103	1
2	7315	698006.595801578103	0
2	7318	698611.326035929591	1
2	7323	698700.533088256852	0
2	7374	707923.163385112605	1
2	7376	707923.163385112605	0
2	7392	711192.412873386362	1
2	7394	711192.412873386362	0
2	7398	712240.178799779556	1
2	7404	713286.846235580942	0
2	7411	715173.667849922077	1
2	7413	715173.667849922077	0
2	7428	717857.592062541721	1
2	7430	717857.592062541721	0
2	7453	719931.526639373708	1
2	7455	719931.526639373708	0
2	7467	721507.825028826465	1
2	7473	721725.528349399121	0
2	7476	722451.826715745125	1
2	7481	723061.653132874168	0
2	7484	723073.71231150586	1
2	7491	724970.612661441241	2
2	7495	725371.59284116237	3
2	7500	725616.485005925852	2
2	7505	726051.83604119245	1
2	7508	726238.075045181532	2
2	7513	726544.290915922353	1
2	7522	728037.329051425822	0
2	7537	728885.580734626278	1
2	7542	728902.612128883525	0
2	7545	729188.060171441639	1
2	7549	730457.325251199163	2
2	7552	730693.125005615423	3
2	7555	730842.568067622397	4
2	7559	732146.214445088068	5
2	7564	732179.655251234869	4
2	7575	732970.843371300718	3
2	7580	733135.978926061691	2
2	7586	734131.043483308365	1
2	7592	735739.90429621148	0
2	7640	738611.487485711198	1
2	7645	738691.031312567921	0
2	7659	740998.779443908696	1
2	7664	741606.750820707013	0
2	7688	743790.451052562718	1
2	7691	743874.834810271981	2
2	7697	744168.187430081573	1
2	7702	745425.509019793986	0
2	7734	747860.311350225022	1
2	7736	747860.311350225022	0
2	7739	748125.056139002553	1
2	7744	748194.875073154614	0
2	7750	748394.827845887148	1
2	7757	749332.735237827508	2
2	7762	749537.815975997282	1
2	7767	750155.844179307578	0
2	7770	750432.87540102166	1
2	7779	750911.491310660318	0
2	7808	752313.118791021239	1
2	7810	752313.118791021239	0
2	7826	755018.960839576147	1
2	7828	755018.960839576147	0
2	7855	755977.022109480689	1
2	7861	756011.746916755952	0
2	7868	758446.977891901797	1
2	7870	758446.977891901797	0
2	7890	759829.860689913353	1
2	7898	760282.300067784396	0
2	7910	761556.049497369904	1
2	7912	761556.049497369904	0
2	7927	763048.082638941026	1
2	7929	763048.082638941026	0
2	7936	765931.854592118001	1
2	7938	765931.854592118001	0
2	7946	769141.381314008299	1
2	7948	769141.381314008299	0
2	7952	769774.427009315115	1
2	7961	772480.855193791374	0
2	7973	774218.155578052731	1
2	7978	774822.333221660268	0
2	7985	775205.406713472272	1
2	7990	775207.925913365231	0
2	8006	775360.091358525425	1
2	8011	775411.246449618709	0
2	8023	776630.153223171127	1
2	8025	776630.153223171127	0
2	8039	777956.703511372148	1
2	8041	777956.703511372148	0
2	8053	779845.923973228659	1
2	8058	779886.039542090924	0
2	8062	780583.215634805528	1
2	8065	780837.13710708465	2
2	8073	781211.56153540571	1
2	8085	781798.986360629852	0
2	8088	781820.018825476819	1
2	8094	783069.499631794546	2
2	8103	784312.792290549623	1
2	8109	786035.945749481902	0
2	8112	786207.963692312242	1
2	8121	787231.308060162302	0
2	8149	788459.073577131451	1
2	8161	788785.568829822259	0
2	8179	789830.923003349557	1
2	8184	789919.18530034334	0
2	8196	791204.168649052783	1
2	8204	791466.397152619901	0
2	8210	791717.172524559263	1
2	8213	791822.895055150423	2
2	8219	792719.590610774788	1
2	8224	792769.80585071793	0
2	8233	794503.961997987776	1
2	8236	794556.801115620799	2
2	8239	794571.748955831506	3
2	8245	794802.011191113973	4
2	8250	794876.896722497776	3
2	8253	795130.418839610957	4
2	8256	795262.554174724134	5
2	8266	796093.336581174631	6
2	8271	796202.212656608577	5
2	8276	796259.620877796175	4
2	8279	796387.458289669249	5
2	8284	796443.004603537721	4
2	8293	797307.407922663863	3
2	8298	797451.258901508266	2
2	8307	798109.930203895358	3
2	8310	798182.210458417943	4
2	8315	798572.003643870318	3
2	8320	798705.445039841532	2
2	8326	798968.665069095872	1
2	8331	799725.044707633613	0
2	8342	800289.801935591883	1
2	8347	800370.231573683214	0
2	8391	801682.455579609565	1
2	8397	802101.850786159387	2
2	8406	802317.51023041524	1
2	8414	802492.449510108703	0
2	8448	805198.750611097711	1
2	8451	805470.407220737569	2
2	8456	805477.263443853399	1
2	8462	806035.006383746629	0
2	8502	808983.593819069137	1
2	8505	809030.833770083566	2
2	8511	809164.402643786691	1
2	8516	809314.823935682999	0
2	8522	809380.977027634912	1
2	8524	809380.977027634912	0
2	8547	811605.070781776777	1
2	8549	811605.070781776777	0
2	8556	812635.067042961575	1
2	8558	812635.067042961575	0
2	8572	813163.068352518923	1
2	8575	813211.029014443683	2
2	8583	813383.7001298143	1
2	8588	813602.449698699103	0
2	8599	813852.143463783708	1
2	8604	813927.593988516196	0
2	8639	818978.112330811284	1
2	8641	818978.112330811284	0
2	8675	825627.401860479702	1
2	8677	825627.401860479702	0
2	8693	828451.01821031371	1
2	8695	828451.01821031371	0
2	8709	829403.975524012265	1
2	8711	829403.975524012265	0
2	8720	833560.198734041056	1
2	8722	833560.198734041056	0
2	8742	835447.759415528392	1
2	8747	835608.567492046905	0
2	8754	837535.921604591906	1
2	8756	837535.921604591906	0
2	8763	839201.807420582781	1
2	8765	839201.807420582781	0
2	8784	839925.948933693196	1
2	8790	840379.105597853631	0
2	8805	842075.4129899933	1
2	8807	842075.4129899933	0
2	8822	845103.727108517885	1
2	8824	845103.727108517885	0
2	8831	846354.745010999492	1
2	8836	846692.538596504466	0
2	8867	852037.94848512292	1
2	8869	852037.94848512292	0
2	8872	853593.329477155164	1
2	8876	854387.944083938194	2
2	8881	854569.75810441965	1
2	8884	854870.851697441167	2
2	8892	855228.686374609701	1
2	8898	855638.071545184444	0
2	8918	858378.050088007354	1
2	8920	858378.050088007354	0
2	8937	862962.24049294079	1
2	8939	862962.24049294079	0
2	8971	866857.538257092421	1
2	8973	866857.538257092421	0
2	8990	872451.102475009871	1
2	8992	872451.102475009871	0
2	9011	879432.537250716263	1
2	9013	879432.537250716263	0
2	9016	879968.330479582766	1
2	9021	883174.324666599315	2
2	9026	884157.990517510637	1
2	9034	884347.656074292121	0
2	9055	886561.349195365167	1
2	9057	886561.349195365167	0
2	9060	887140.956493314024	1
2	9065	887414.207995476911	0
2	9068	887808.556771388802	1
2	9073	887938.599230697213	0
2	9077	888714.99940607789	1
2	9082	888920.823226864705	0
2	9097	890018.397365649107	1
2	9102	890912.357860246118	0
2	9117	892082.132987902802	1
2	9122	892924.633951262606	0
2	9129	894757.541852576201	1
2	9132	894831.543932405898	2
2	9136	895061.17744442101	3
2	9144	895539.54096545845	2
2	9152	895982.578094012439	1
2	9155	896014.466364127083	2
2	9160	896151.848865403189	1
2	9165	896493.835150708333	0
2	9224	901952.154941169525	1
2	9226	901952.154941169525	0
2	9233	903489.12202818152	1
2	9238	904305.743560087779	0
2	9249	904521.823381009277	1
2	9251	904521.823381009277	0
2	9275	907601.707017840094	1
2	9277	907601.707017840094	0
2	9285	910326.662297193487	1
2	9287	910326.662297193487	0
2	9290	910396.436293322597	1
2	9295	910416.846900885651	0
2	9298	910435.225039375471	1
2	9303	910619.358100802461	0
2	9309	910767.923273109088	1
2	9311	910767.923273109088	0
2	9342	913249.053766969348	1
2	9344	913249.053766969348	0
2	9358	913640.956821420356	1
2	9360	913640.956821420356	0
2	9392	916310.880364374383	1
2	9394	916310.880364374383	0
2	9397	916517.357992941395	1
2	9403	917138.439320578168	0
2	9431	919220.282872341885	1
2	9436	919386.0810980753	0
2	9442	919526.567421232587	1
2	9444	919526.567421232587	0
2	9447	919929.75241264021	1
2	9450	920236.84014814964	2
2	9455	920366.820509717473	1
2	9460	920476.15549750074	0
2	9464	920811.413513918815	1
2	9469	921439.975617665262	0
2	9477	924690.523545570221	1
2	9480	925531.489448041727	2
2	9484	926013.493467206621	3
2	9494	928573.046767913995	4
2	9499	928729.790396460708	3
2	9504	928990.475144521607	2
2	9507	929069.43331560902	3
2	9511	929522.221400475963	4
2	9516	929633.791969546356	3
2	9521	929742.528004555535	2
2	9524	929758.147353316895	3
2	9529	929816.08921872008	2
2	9534	929998.377491874637	1
2	9539	930163.271368044248	0
2	9601	932492.04745202641	1
2	9603	932492.04745202641	0
2	9619	935152.628660795819	1
2	9621	935152.628660795819	0
2	9644	937259.280647685267	1
2	9646	937259.280647685267	0
2	9653	938055.493740300982	1
2	9655	938055.493740300982	0
2	9686	940886.556998855849	1
2	9688	940886.556998855849	0
2	9692	941891.810048841664	1
2	9698	942452.032281126733	2
2	9704	942774.833501416682	3
2	9708	943848.227937051025	4
2	9713	944410.707783628811	3
2	9719	944688.609726288959	2
2	9728	946236.042782269043	3
2	9734	946808.056909333862	2
2	9739	947430.643819976813	1
2	9746	948651.746920103408	2
2	9751	949224.738483860076	1
2	9756	949447.703066702197	0
2	9760	949836.088584474059	1
2	9763	949914.144237539559	2
2	9771	950043.141951247356	1
2	9776	950163.447736638088	0
2	9782	950617.302628164375	1
2	9787	951044.71285547116	0
2	9803	951396.220026157939	1
2	9809	951556.13912469963	0
2	9872	956822.306998610501	1
2	9874	956822.306998610501	0
2	9907	963334.380128382739	1
2	9909	963334.380128382739	0
2	9913	965061.633832158362	1
2	9919	965247.970448841162	0
2	9931	967516.774673373265	1
2	9936	967852.718020014392	0
2	9952	970970.833991905864	1
2	9954	970970.833991905864	0
2	9978	974703.92303874008	1
2	9980	974703.92303874008	0
2	9983	974790.588109329984	1
2	9986	975073.390822560638	2
2	9989	975176.973826059376	3
2	9993	976793.898193884459	4
2	9999	977300.780932382363	3
2	10004	977503.792023582346	2
2	10012	978480.177464132622	1
2	10017	978494.001335638496	0
2	10037	979949.298564144064	1
2	10039	979949.298564144064	0
2	10043	980571.161291034972	1
2	10054	982010.90162880785	0
2	10063	982447.18774485683	1
2	10068	982566.088790722196	0
2	10071	982734.015391453274	1
2	10079	983233.76898097706	0
2	10096	985579.591896301941	1
2	10102	986327.152613017553	0
2	10150	994917.842928025671	1
2	10152	994917.842928025671	0
2	10158	995618.920405820838	1
2	10160	995618.920405820838	0
2	10176	999056.441260338871	1
2	10178	999056.441260338871	0
2	10200	1003255.309435711422	1
2	10205	1003484.221654956738	0
2	10208	1003548.969206394907	1
2	10211	1003798.510744902597	2
2	10214	1003929.541970310963	3
2	10219	1004040.660872916037	2
2	10222	1004281.431122587526	3
2	10228	1005226.492539835521	2
2	10237	1006548.54960695176	1
2	10243	1008526.547736811636	0
2	10246	1009112.104277471746	1
2	10255	1009501.844955436236	2
2	10259	1010364.05864310212	3
2	10265	1010530.271661895084	4
2	10268	1010537.994400465521	5
2	10271	1010684.458490342762	6
2	10274	1010720.512308056052	7
2	10280	1011850.943979679528	6
2	10288	1012567.041494828094	5
2	10291	1012623.981994635977	6
2	10294	1012658.038924944537	7
2	10302	1013002.575612480772	6
2	10306	1013574.116692515897	7
2	10309	1013609.442675547392	8
2	10312	1014320.899525041245	9
2	10318	1015230.350555614529	8
2	10323	1015303.130357977414	7
2	10328	1016047.137739768012	6
2	10332	1016709.823935555215	7
2	10338	1017114.51064981823	8
2	10344	1018849.260869573818	7
2	10352	1019172.729222863204	6
2	10355	1019269.922352281644	7
2	10360	1019918.809026326635	6
2	10367	1020584.963102529075	7
2	10372	1020608.908791126438	6
2	10381	1021761.463320677629	5
2	10389	1023012.548855413341	4
2	10394	1023114.037171976352	3
2	10401	1024225.616641322072	4
2	10407	1024848.279436230975	5
2	10413	1026164.763254884407	4
2	10418	1026332.804059762577	3
2	10434	1027808.517860187673	4
2	10441	1030027.79448890016	5
2	10447	1031127.787152974513	4
2	10450	1031689.691744043533	5
2	10455	1031926.793357579708	4
2	10465	1032707.31500891384	5
2	10471	1033891.975046267457	4
2	10476	1033891.986868809984	3
2	10481	1034295.27565792943	2
2	10493	1035567.14931976878	1
2	10501	1035973.039409102094	0
2	10544	1037408.715825640474	1
2	10549	1037702.522581388295	0
2	10666	1043175.200619035876	1
2	10668	1043175.200619035876	0
2	10684	1046310.585825527185	1
2	10686	1046310.585825527185	0
2	10693	1048752.897227339773	1
2	10695	1048752.897227339773	0
2	10698	1048808.647599839165	1
2	10704	1049067.929809397034	2
2	10708	1049582.770541073113	3
2	10713	1049752.510973614452	2
2	10717	1051138.402914866773	3
2	10720	1051163.077795880545	4
2	10725	1051663.442842683168	3
2	10733	1052104.141809356834	2
2	10738	1052265.346698267681	1
2	10754	1054355.464229860122	0
2	10757	1055196.140153740168	1
2	10760	1055541.854520654828	2
2	10764	1056038.471180646961	3
2	10767	1056653.418924296165	4
2	10773	1057183.660914434886	5
2	10778	1057565.478584774884	4
2	10783	1057590.931346940461	3
2	10787	1057936.536975077907	4
2	10790	1058122.742124551643	5
2	10798	1059154.673617116463	4
2	10804	1059567.040203721978	3
2	10809	1059771.101545479459	2
2	10815	1060493.563192609075	3
2	10828	1061290.204615956428	4
2	10836	1062363.244481840395	3
2	10839	1062489.213791060761	4
2	10845	1064079.009282004334	3
2	10851	1064822.017419909167	2
2	10854	1065324.717737415936	3
2	10859	1066137.893992284469	2
2	10865	1066283.646363123009	1
2	10871	1068477.590813415451	0
2	10900	1070118.104386640328	1
2	10905	1070472.886443045848	0
2	10988	1073939.574391321125	1
2	10993	1073946.464157494646	0
2	10996	1074180.997461689004	1
2	11000	1074914.847911653159	2
2	11005	1075016.405603623997	1
2	11008	1075557.176217270305	2
2	11013	1075638.306949401158	1
2	11025	1076916.975860021435	0
2	11079	1083422.961629309947	1
2	11084	1083668.225490702821	0
2	11090	1084415.576050831458	1
2	11092	1084415.576050831458	0
2	11107	1085459.804706491521	1
2	11109	1085459.804706491521	0
2	11123	1086212.14173457862	1
2	11125	1086212.14173457862	0
2	11128	1086568.52836798554	1
2	11134	1087043.914867843217	0
2	11140	1087524.921463207559	1
2	11142	1087524.921463207559	0
2	11157	1088744.989583653369	1
2	11159	1088744.989583653369	0
2	11165	1089555.859527044664	1
2	11167	1089555.859527044664	0
2	11191	1092617.237462076569	1
2	11193	1092617.237462076569	0
2	11196	1092799.219555154402	1
2	11203	1094156.131074712927	2
2	11208	1094662.660160993246	1
2	11211	1095079.375874763871	2
2	11214	1095101.988977408083	3
2	11219	1097869.052772210775	4
2	11225	1098924.473363856587	3
2	11230	1099227.619931451886	2
2	11236	1099381.040083331987	3
2	11241	1100377.559169068893	2
2	11250	1100955.409436532435	1
2	11258	1102211.265171978594	0
2	11300	1105248.184702682985	1
2	11305	1105470.867030232478	0
2	11314	1105708.547912857778	1
2	11323	1106437.13100564823	2
2	11328	1106519.383634364505	1
2	11334	1107730.269642990205	0
2	11343	1110016.09180426266	1
2	11348	1110188.125788395928	0
2	11404	1115542.65183491246	1
2	11406	1115542.65183491246	0
2	11409	1115925.45357546254	1
2	11413	1116440.305124419825	2
2	11418	1116705.501814897915	1
2	11423	1116713.382725860498	0
2	11429	1117569.322871410755	1
2	11434	1117630.694976206284	0
2	11463	1119585.529892247469	1
2	11465	1119585.529892247469	0
3	2113	201950.061091314382	0
3	2122	202539.52798563589	0
3	2165	208819.376530368631	1055.2198025204
3	2173	208998.37179691025	0
3	2182	210778.484251071321	0
3	2200	213460.330443357859	0
3	2225	214392.255972524292	0
3	2241	215217.179157851433	601.02796865623
3	2250	216124.069316470852	0
3	2333	228294.766364031696	11136.141756405
3	2338	228707.631096900777	10458.783215818
3	2343	228999.793700456418	8286.4589645665
3	2348	229001.00942401922	6496.5274368212
3	2353	229224.080333503937	5112.2141896085
3	2362	230687.432872717357	0
3	2371	231966.734193920265	0
3	2400	236339.17688312529	2774.285723568
3	2409	236598.5021208345	528.06717425941
[...]
7	5721	567782.832955885537	2
7	5738	569958.796297390391	3
7	5743	570196.039140642493	4
7	5748	570370.364412894994	5
7	5757	571009.195025259009	6
7	5764	571450.437788026279	5
7	5768	571844.349809593459	6
7	5772	571930.012515770455	5
7	5780	572628.638331064549	6
7	5785	575557.10543026579	5
7	5789	575834.015433838389	6
7	5797	575964.071628349262	7
7	5805	575996.776631728132	6
7	5808	576418.30891283311	5
7	5811	576969.472652537773	4
7	5815	577315.01194951841	5
7	5820	577356.818940015226	6
7	5829	577516.320838930459	5
7	5838	577754.708457345263	4
7	5841	577859.899549660393	3
7	5858	578814.293918285715	4
7	5870	579346.019616639065	3
7	5879	579936.76255576019	2
7	5883	580495.641701161888	3
7	5899	582109.555182213103	2
7	5903	582245.640626312105	3
7	5908	582967.62377018301	2
7	5919	584703.488064104511	3
7	5923	585446.619072247107	2
7	5927	585537.993388210752	3
7	5932	586174.517295188844	4
7	5940	586667.309385714201	3
7	5943	586740.357624982306	2
7	5951	587324.825898311852	1
7	5954	587867.083706429201	0
7	5965	588769.778597846837	1
7	5973	588902.567378823682	2
7	5984	589384.433270618595	3
7	5989	589513.036366689485	4
7	5994	590205.94419279299	3
7	5998	590313.537845674687	4
7	6002	591101.778657312003	3
7	6007	591676.976153972968	4
7	6011	591860.078003131634	3
7	6032	592519.44316273357	2
7	6035	592717.054435535715	1
7	6046	593642.482355296229	2
7	6050	593757.930036553238	1
7	6054	594491.441452026807	2
7	6079	596845.443285713263	3
7	6084	596957.68666074192	4
7	6089	597066.731111679827	5
7	6094	597089.729932743132	6
7	6102	597281.353779982352	7
7	6106	597526.281411795293	6
7	6109	597533.948229666961	5
7	6117	598850.348196729338	6
7	6121	599051.146910339567	5
7	6124	599101.866719626176	4
7	6129	600066.228496718344	5
7	6134	600758.955508510435	6
7	6138	600785.189909464811	5
7	6142	600991.454330146357	6
7	6157	601897.669028946908	5
7	6173	602849.010325112833	4
7	6177	602880.4407266071	5
7	6187	603547.10269256195	4
7	6190	603629.860776699896	3
7	6203	604003.027574318122	2
7	6206	604526.48737570313	1
7	6241	607034.692593061827	2
7	6247	610156.267961587021	3
7	6252	610369.961153456481	2
7	6268	613062.549250020995	1
7	6272	613344.393677820799	2
7	6276	613603.435672955978	1
7	6281	613953.588249147994	2
7	6286	614079.502296424336	3
7	6290	614266.852930182236	2
7	6296	614674.357911386312	1
7	6300	614961.796946207912	2
7	6305	615072.837697871085	3
7	6309	615078.27233590261	2
7	6313	615423.02223631106	1
7	6316	615647.708282742318	0
7	6326	616951.387269590134	1
7	6332	617713.502262678563	2
7	6340	618736.896860329591	3
7	6345	619016.27804183075	2
7	6355	619448.372933260837	3
7	6360	619449.216896572127	4
7	6365	619500.807862937465	5
7	6369	619843.343580553794	4
7	6383	620697.158673277538	3
7	6391	621213.780574717035	2
7	6402	621985.752655186821	1
7	6422	624914.78246843168	2
7	6431	625815.121578451439	3
7	6436	625816.258948899419	4
7	6441	625964.058540147775	5
7	6445	625982.675852036281	4
7	6448	626232.445994107929	3
7	6451	626320.392230464958	2
7	6455	626663.014417222952	3
7	6500	627810.272091766918	2
7	6553	630771.922077010983	3
7	6578	631744.829864590311	2
7	6607	632788.724190364012	1
7	6628	635142.467085498518	2
7	6633	635207.952118681026	3
7	6642	636017.906835846144	4
7	6651	638028.642734479707	5
7	6658	639241.870735240498	4
7	6663	639632.827342291691	5
7	6667	639667.799482377247	4
7	6675	639841.540986543117	3
7	6688	641172.629633129152	4
7	6695	641717.47108740899	3
7	6709	644102.72608101689	2
7	6713	644104.213257857098	3
7	6727	645728.864764391753	4
7	6729	645957.311282069108	3
7	6744	646872.899793888968	4
7	6746	647112.383265954389	3
7	6763	647863.680363872344	4
7	6767	647875.1529449946	3
7	6778	649332.85456054147	4
7	6782	649649.065204623678	3
7	6786	649724.659295612508	2
7	6789	649744.273746866846	1
7	6793	649882.92143964517	2
7	6798	652215.335714258041	1
7	6802	652487.983051041135	2
7	6830	653060.73044810568	3
7	6838	653295.951504039282	2
7	6841	653343.88803071064	1
7	6844	653507.384015025436	0
7	6856	654173.881185320869	1
7	6862	655018.661184922226	2
7	6889	657532.769513653789	3
7	6893	658195.47422285923	2
7	6898	658561.384252284435	3
7	6905	659295.146279045021	2
7	6919	659666.699190699252	3
7	6921	659952.905946506668	2
7	6936	661252.863164842844	3
7	6950	662899.994310762574	2
7	6957	663155.212005053375	3
7	6966	664266.535176120746	4
7	6970	664508.689483127066	3
7	6974	664678.200444242044	4
7	6978	664712.586236430597	3
7	6983	665996.433508954456	4
7	6988	666578.718481245371	5
7	7007	668589.250937450099	4
7	7015	669442.437007907018	3
7	7023	670202.337068358054	2
7	7032	670442.665963450634	1
7	7040	671013.939140854426	0
7	7055	672168.385363806504	1
7	7064	674944.655737194002	2
7	7067	675788.567154521988	1
7	7085	677922.233174812033	2
7	7089	678626.669863827091	1
7	7097	679201.796613454865	2
7	7102	679215.926759555566	3
7	7106	679471.150968781652	2
7	7114	680391.398734026379	1
7	7130	681410.756694747162	2
7	7134	681496.999244464591	1
7	7138	681736.914077188627	2
7	7151	682298.782007777522	1
7	7155	682468.132304042127	2
7	7168	683538.896676512272	3
7	7172	683632.527096176031	2
7	7178	683909.501131389491	1
7	7188	684634.643738765335	2
7	7210	686661.605311733971	3
7	7219	687487.137269910176	4
7	7223	687523.630840328179	3
7	7227	687735.957746150179	4
7	7234	688338.414667761726	3
7	7243	689861.944895018388	2
7	7265	692790.334439548395	3
7	7269	693489.933417339592	2
7	7273	694216.065478257894	3
7	7279	694292.106219800774	4
7	7286	694689.081403678641	3
7	7295	695718.530225332504	4
7	7302	695955.451996076281	3
7	7321	698700.533088256852	4
7	7326	699836.219093495944	3
7	7329	700237.096272753628	2
7	7332	700434.274792696342	1
7	7336	700554.926752188507	2
7	7351	701237.271397198536	1
7	7363	703901.666639032493	0
7	7380	708782.044468650362	1
7	7382	709556.67024483305	0
7	7402	713286.846235580942	1
7	7407	714724.20880492617	2
7	7415	715408.206450780133	1
7	7420	716910.713532819303	2
7	7433	717921.588344775112	3
7	7435	718032.756205707197	2
7	7441	718324.438057671963	1
7	7459	720755.612083907184	2
7	7461	721506.567448467319	1
7	7479	723061.653132874168	2
7	7487	723838.630891969448	1
7	7498	725616.485005925852	2
7	7503	726051.83604119245	3
7	7511	726544.290915922353	4
7	7516	727769.19974320998	3
7	7520	728037.329051425822	4
7	7524	728159.65395884808	3
7	7527	728472.178125586385	2
7	7532	728696.354620919993	3
7	7562	732179.655251234869	4
7	7566	732493.037937929568	3
7	7569	732685.313180155037	2
7	7573	732970.843371300718	3
7	7578	733135.978926061691	4
7	7584	734131.043483308365	5
7	7590	735739.90429621148	6
7	7595	735749.56609198068	7
7	7599	735812.243326173795	6
7	7631	737888.445027797958	5
7	7636	738239.042992204546	4
7	7648	739025.205824006465	3
7	7651	739288.713761431322	2
7	7654	739534.498527404473	1
7	7662	741606.750820707013	2
7	7668	743171.002355928055	3
7	7700	745425.509019793986	4
7	7706	745844.54015267261	5
7	7708	746311.061724302743	4
7	7716	746702.570790401173	3
7	7721	746871.706645353879	2
7	7742	748194.875073154614	3
7	7746	748319.104294318769	2
7	7752	748578.606977088448	1
7	7760	749537.815975997282	2
7	7765	750155.844179307578	3
7	7772	750776.325840279256	2
7	7777	750911.491310660318	3
7	7782	751313.436039820462	4
7	7791	751393.320214770955	3
7	7814	753498.856769628754	4
7	7816	753555.671358589711	3
7	7831	755183.047658816776	4
7	7833	755434.744486758153	3
7	7838	755441.098820420956	2
7	7849	755882.886711334254	1
7	7865	758001.925925005443	2
7	7873	758844.374875885803	3
7	7875	758965.210465123617	2
7	7884	759606.760462655828	1
7	7892	760053.190970185316	0
7	7902	761320.489742147724	1
7	7915	762290.09215865905	2
7	7917	762753.66285513384	1
7	7932	764481.685566805775	2
7	7942	767864.611409215761	3
7	7955	771607.455263210046	2
7	7959	772480.855193791374	3
7	7965	773687.90838997086	4
7	7969	774137.744110328759	3
7	7981	775045.736152893365	2
7	7988	775207.925913365231	3
7	7992	775220.765611885809	2
7	7996	775345.187875809548	3
7	8014	776267.925554348883	4
7	8027	776711.237138950852	3
7	8031	776981.744430654582	4
7	8045	778519.474586968355	5
7	8047	779765.900761679907	4
7	8067	780842.897104929172	3
7	8071	781211.56153540571	4
7	8075	781404.727839263138	3
7	8078	781508.602612717887	2
7	8083	781798.986360629852	3
7	8090	782947.28836746305	2
7	8097	783501.176479513306	1
7	8101	784312.792290549623	2
7	8107	786035.945749481902	3
7	8114	786646.939922383314	2
7	8119	787231.308060162302	3
7	8124	787751.763606660024	4
7	8151	788481.565610912156	3
7	8155	788761.568078296006	2
7	8164	789390.764927097539	3
7	8187	790344.271547313664	2
7	8191	790993.564544914808	3
7	8198	791304.834863579266	2
7	8206	791644.990290723478	1
7	8217	792719.590610774788	2
7	8222	792769.80585071793	3
7	8227	793085.841796125841	4
7	8241	794752.966041342671	3
7	8259	795428.776759097032	2
7	8262	795975.745432716376	1
7	8269	796202.212656608577	2
7	8274	796259.620877796175	3
7	8282	796443.004603537721	4
7	8286	796929.361241423335	3
7	8291	797307.407922663863	4
7	8296	797451.258901508266	5
7	8300	797681.809845451293	4
7	8303	797735.047855295043	3
7	8313	798572.003643870318	4
7	8318	798705.445039841532	5
7	8324	798968.665069095872	6
7	8329	799725.044707633613	7
7	8334	799792.169623517644	8
7	8338	799956.341182540636	7
7	8350	800832.732233627422	6
7	8354	800982.396751468441	7
7	8363	801080.12078997979	6
7	8371	801358.628593824073	5
7	8379	801386.244238597285	4
7	8382	801450.560151272864	3
7	8393	802048.631683144752	2
7	8400	802306.943182651171	1
7	8408	802359.078501001692	0
7	8412	802492.449510108703	1
7	8417	802856.400359865244	2
7	8460	806035.006383746629	3
7	8465	806061.488755472439	4
7	8488	807868.171907557153	3
7	8493	808504.338530832772	2
7	8514	809314.823935682999	3
7	8519	809327.404857950084	4
7	8526	809699.769192365585	3
7	8530	810123.751999545605	4
7	8538	811450.24612640796	3
7	8552	812184.794452359297	4
7	8560	812769.148262064773	3
7	8563	813118.860349783733	2
7	8567	813124.358067022545	3
7	8577	813361.604696266292	2
7	8586	813602.449698699103	3
7	8590	813636.822215644315	2
7	8594	813743.118945857573	3
7	8608	814736.96841708806	4
7	8620	815957.224363230224	3
7	8629	817647.475404536949	2
7	8644	819175.716532261917	3
7	8648	821504.670786560323	2
7	8656	822329.856278348875	1
7	8666	825064.73311012566	0
7	8680	826026.996489048737	1
7	8683	827781.084242562427	0
7	8698	828574.643701256256	1
7	8700	828607.300304464453	0
7	8716	832447.181641118825	1
7	8725	833659.885966406312	2
7	8727	834298.785066079611	1
7	8735	834842.354295779595	0
7	8750	836045.751662811875	1
7	8759	837560.883019445489	2
7	8768	839414.055503859649	3
7	8770	839414.585568072787	2
7	8778	839652.565172567227	1
7	8793	840860.193689124371	2
7	8795	840895.70464797869	1
7	8810	842843.70725353504	2
7	8813	843722.495117538048	1
7	8827	845805.206509891759	0
7	8834	846692.538596504466	1
7	8840	846931.714909505502	2
7	8844	847108.157603629853	1
7	8856	849292.705219393119	0
7	8879	854569.75810441965	1
7	8886	855193.382444720129	0
7	8890	855228.686374609701	1
7	8896	855638.071545184444	2
7	8901	856713.927606877001	3
7	8905	856789.419913945148	2
7	8922	858545.644345327586	1
7	8927	858947.111616954602	2
7	8942	863143.40355264191	3
7	8945	864541.83382569331	2
7	8953	864654.353248746962	1
7	8962	865930.500070289208	0
7	8977	868091.037967097629	1
7	8979	868519.61418564528	0
7	8996	873590.548449820199	1
7	8999	874363.285448317246	0
7	9024	884157.990517510637	1
7	9028	884191.911647267769	0
7	9032	884347.656074292121	1
7	9038	885262.7956131051	2
7	9042	885434.797790362202	1
7	9063	887414.207995476911	2
7	9071	887938.599230697213	3
7	9080	888920.823226864705	4
7	9084	889234.391471694505	3
7	9087	889479.562634516007	2
7	9091	889643.829014749464	3
7	9104	890955.773763194762	2
7	9108	891650.916150445678	1
7	9112	891893.776724318419	2
7	9124	893032.955039281323	1
7	9138	895179.680639568196	0
7	9142	895539.54096545845	1
7	9146	895678.201281998166	0
7	9150	895982.578094012439	1
7	9158	896151.848865403189	2
7	9163	896493.835150708333	3
7	9169	897398.610650426617	4
7	9183	898264.383315618831	3
7	9187	898787.341623557142	2
7	9214	901159.719921391264	1
7	9228	902206.620014105955	0
7	9236	904305.743560087779	1
7	9241	904383.865319257366	2
7	9253	904608.059570531787	1
7	9256	905011.476150491464	0
7	9261	905776.797618368891	1
7	9280	908436.151342800082	2
7	9293	910416.846900885651	3
7	9301	910619.358100802461	4
7	9306	910757.139188795763	5
7	9313	910815.748825829728	4
7	9316	911234.631429090637	3
7	9319	911845.411035027101	2
7	9323	911888.655763545781	3
7	9346	913453.279324642469	2
7	9350	913560.825622792091	3
7	9363	913752.876131593138	2
7	9367	914205.596139231348	3
7	9375	915689.066068349544	2
7	9380	916146.014863854907	1
7	9401	917138.439320578168	2
7	9406	917237.221704942637	3
7	9408	917700.768786544891	2
7	9416	918239.75132684075	1
7	9421	918264.494138610971	0
7	9439	919427.860526734982	1
7	9453	920366.820509717473	2
7	9458	920476.15549750074	3
7	9467	921439.975617665262	4
7	9471	921458.768623812663	3
7	9486	926600.215443127123	2
7	9490	927527.676351793266	1
7	9497	928729.790396460708	2
7	9502	928990.475144521607	3
7	9514	929633.791969546356	4
7	9519	929742.528004555535	5
7	9527	929816.08921872008	6
7	9532	929998.377491874637	7
7	9537	930163.271368044248	8
7	9541	930342.914431179458	7
7	9544	930528.792592454368	6
7	9547	930711.837559407493	5
7	9551	930904.771853380526	4
7	9554	930954.54936831122	3
7	9558	931157.34519872417	4
7	9606	933096.983806167858	3
7	9610	933779.268447446579	4
7	9623	935428.254908592643	3
7	9627	935883.29354721065	4
7	9635	936072.092384048424	3
7	9650	937888.040925583181	4
7	9658	938693.610569570622	5
7	9660	938983.095827322614	4
7	9665	939063.461793248802	3
7	9677	940711.117196026931	2
7	9694	942282.207976059208	1
7	9700	942696.704483754203	0
7	9711	944410.707783628811	1
7	9717	944688.609726288959	2
7	9721	945343.804052995581	1
7	9724	945530.189530935545	0
7	9732	946808.056909333862	1
7	9737	947430.643819976813	2
7	9741	947746.800650532192	1
7	9749	949224.738483860076	2
7	9754	949447.703066702197	3
7	9765	949916.438553440697	2
7	9769	950043.141951247356	3
7	9774	950163.447736638088	4
7	9778	950361.175613978522	3
7	9785	951044.71285547116	4
7	9789	951177.577401632985	3
7	9793	951324.661143937988	4
7	9811	952400.562255671283	3
7	9815	952557.840469835868	4
7	9824	953009.282760796358	3
7	9828	953129.433717340488	2
7	9877	957486.978335634698	3
7	9880	959538.572556354582	2
7	9889	960120.418993901282	1
7	9897	961622.404252285633	0
7	9917	965247.970448841162	1
7	9922	966364.694947067171	2
7	9925	967273.003645850992	1
7	9940	968939.946287648209	2
7	9942	969602.093745428422	1
7	9957	971977.765195049909	2
7	9960	972018.349083007618	1
7	9968	972491.270852403299	0
7	9997	977300.780932382363	1
7	10002	977503.792023582346	2
7	10006	977783.274527033147	1
7	10010	978480.177464132622	2
7	10015	978494.001335638496	3
7	10020	979081.242482862022	2
7	10024	979721.055948277725	3
7	10045	981046.373681856262	2
7	10048	981289.012468839825	1
7	10052	982010.90162880785	2
7	10058	982435.943349897607	3
7	10073	983012.653421468099	2
7	10077	983233.76898097706	3
7	10081	983948.121061391826	2
7	10086	984862.831699138926	3
7	10105	986658.729106691813	4
7	10112	987309.258741898783	3
7	10118	988021.490054249928	2
7	10131	990863.83131348606	1
7	10136	990920.360136204563	0
7	10155	994953.598898202949	1
7	10164	996312.400638689248	2
7	10166	996531.908492668802	1
7	10182	1000850.945333316779	2
7	10185	1001573.401314601649	1
7	10194	1002952.354635238902	0
7	10217	1004040.660872916037	1
7	10226	1005226.492539835521	2
7	10230	1006231.120170926502	1
7	10235	1006548.54960695176	2
7	10241	1008526.547736811636	3
7	10248	1009127.243254649547	2
7	10251	1009230.204569599964	1
7	10261	1010443.34552129061	0
7	10278	1011850.943979679528	1
7	10282	1011924.175992791048	0
7	10286	1012567.041494828094	1
7	10296	1012672.030405010044	0
7	10300	1013002.575612480772	1
7	10316	1015230.350555614529	2
7	10321	1015303.130357977414	3
7	10326	1016047.137739768012	4
7	10334	1017057.249946504463	3
7	10342	1018849.260869573818	4
7	10346	1018988.475004212144	3
7	10350	1019172.729222863204	4
7	10358	1019918.809026326635	5
7	10363	1020492.216714121162	4
7	10370	1020608.908791126438	5
7	10374	1021499.554242348925	4
7	10379	1021761.463320677629	5
7	10383	1022201.606409374134	4
7	10387	1023012.548855413341	5
7	10392	1023114.037171976352	6
7	10397	1023646.842607061644	5
7	10403	1024611.952826408886	4
7	10411	1026164.763254884407	5
7	10416	1026332.804059762577	6
7	10420	1026798.301330282998	5
7	10424	1027030.035939245854	4
7	10427	1027149.968454697934	3
7	10430	1027580.141373709525	2
7	10437	1029161.30068778264	1
7	10445	1031127.787152974513	2
7	10453	1031926.793357579708	3
7	10458	1032029.583293243239	2
7	10461	1032623.683926123524	1
7	10469	1033891.975046267457	2
7	10474	1033891.986868809984	3
7	10479	1034295.27565792943	4
7	10483	1035189.508578049674	3
7	10487	1035473.342777060911	2
7	10491	1035567.14931976878	3
7	10495	1035846.774967851491	2
7	10499	1035973.039409102094	3
7	10504	1036109.576782763222	4
7	10523	1036972.924254697689	3
7	10526	1036985.846329976243	2
7	10534	1037085.864518335535	1
7	10552	1038290.591216222327	2
7	10607	1040174.630070045484	1
7	10671	1043306.735219151679	2
7	10674	1045031.762123795147	1
7	10689	1046784.350682169677	2
7	10700	1048935.621219830779	1
7	10711	1049752.510973614452	2
7	10723	1051663.442842683168	3
7	10727	1052070.841512402728	2
7	10731	1052104.141809356834	3
7	10736	1052265.346698267681	4
7	10741	1052607.402070681952	3
7	10744	1053389.103123530645	2
7	10747	1053912.052471679483	1
7	10752	1054355.464229860122	2
7	10769	1056869.693377855638	1
7	10776	1057565.478584774884	2
7	10781	1057590.931346940461	3
7	10792	1058519.028024527176	2
7	10796	1059154.673617116463	3
7	10802	1059567.040203721978	4
7	10807	1059771.101545479459	5
7	10811	1060223.187407709226	4
7	10817	1060739.386506102597	3
7	10820	1060893.492600961344	2
7	10824	1061231.720385345512	1
7	10830	1061333.6922184767	0
7	10834	1062363.244481840395	1
7	10843	1064079.009282004334	2
7	10849	1064822.017419909167	3
7	10857	1066137.893992284469	4
7	10863	1066283.646363123009	5
7	10869	1068477.590813415451	6
7	10874	1068999.250721527967	7
7	10908	1070780.098095628688	8
7	10917	1071081.688233890123	7
7	10931	1071674.938086024469	6
7	10944	1071994.356476796671	5
7	10962	1072140.65219552924	4
7	10979	1073804.717238514318	3
7	10984	1073836.374861282083	2
7	11003	1075016.405603623997	3
7	11011	1075638.306949401158	4
7	11015	1076005.598668381353	3
7	11019	1076626.776462208247	2
7	11023	1076916.975860021435	3
7	11027	1077369.529945237532	2
7	11031	1078706.310838530275	1
7	11035	1079657.007498462882	2
7	11039	1079905.041783037729	1
7	11059	1082128.121151471477	0
7	11087	1083781.958833143031	1
7	11095	1084897.552804016283	2
7	11097	1085039.297465798676	1
7	11111	1085543.674298700074	0
7	11115	1085785.019256873698	1
7	11132	1087043.914867843217	2
7	11137	1087050.708214306835	3
7	11145	1087830.672245382998	4
7	11147	1088009.731273501828	3
7	11162	1088849.897352753729	4
7	11169	1089732.480926825615	3
7	11174	1090591.538942634329	4
7	11178	1090861.141404905068	3
7	11198	1093561.334222003653	2
7	11206	1094662.660160993246	3
7	11223	1098924.473363856587	4
7	11228	1099227.619931451886	5
7	11232	1099334.043337833282	4
7	11239	1100377.559169068893	5
7	11244	1100874.463268776729	4
7	11248	1100955.409436532435	5
7	11252	1101796.094284830678	4
7	11256	1102211.265171978594	5
7	11262	1102478.061612779469	6
7	11276	1102892.81963558244	5
7	11284	1103039.035621819016	4
7	11287	1103357.434191702391	3
7	11296	1104823.898323086033	2
7	11308	1105596.384957565185	3
7	11316	1105726.942390924654	2
7	11319	1106365.284767544248	1
7	11332	1107730.269642990205	2
7	11338	1109243.512232946368	3
7	11351	1110417.770374991762	4
7	11369	1111567.361522132027	3
7	11377	1112176.974594966748	2
7	11386	1113879.949332126459	1
7	11391	1113907.217041953451	0
7	11416	1116705.501814897915	1
7	11421	1116713.382725860498	2
7	11425	1116864.969516641632	1
7	11432	1117630.694976206284	2
7	11437	1118028.975231749974	1
7	11441	1118511.294246333661	2
7	11445	1118739.501773541621	1
7	11468	1120374.569176591593	2
7	11471	1122049.21541130926	1
