version 2
run QueueMeasurement-4-20170105-13:04:55-3457
attr configname QueueMeasurement
attr datetime 20170105-13:04:55
attr experiment QueueMeasurement
attr inifile queueStudy.ini
attr iterationvars ""
attr iterationvars2 $repetition=4
attr measurement ""
attr network SimNetwork
attr processid 3457
attr repetition 4
attr replication #4
attr resultdir results
attr runnumber 4
attr seedset 4
param SimNetwork.a.parkingLot.parkingDelay 45min
param SimNetwork.a.runway.landingTime 5min
param SimNetwork.a.runway.takeoffTime 5min
param SimNetwork.a.runway.throughputCheckInterval 14.286min
param SimNetwork.wg.interArrivalTime 14.286min

statistic SimNetwork.wg 	responseTime:stats
field count 1045
field mean 4157.1600000001
field stddev 0
field sum 4344232.2000001
field sqrsum 18059668332.552
field min 4157.16
field max 4157.16
attr source  responseTimeSignal
scalar SimNetwork.a.landingQueue 	queueLength:timeavg 	0
attr source  queueLengthSignal
statistic SimNetwork.a.landingQueue 	queueLength:stats
field count 2092
field mean 0.5
field stddev 0.50011954572795
field sum 1046
field sqrsum 1046
field min 0
field max 1
attr source  queueLengthSignal
statistic SimNetwork.a.landingQueue 	queueTime:stats
field count 1046
field mean 0
field stddev 0
field sum 0
field sqrsum 0
field min 0
field max 0
attr source  queueTimeSignal
scalar SimNetwork.a.takeoffQueue 	queueLength:timeavg 	0
attr source  queueLengthSignal
statistic SimNetwork.a.takeoffQueue 	queueLength:stats
field count 2092
field mean 0.5
field stddev 0.50011954572795
field sum 1046
field sqrsum 1046
field min 0
field max 1
attr source  queueLengthSignal
statistic SimNetwork.a.takeoffQueue 	queueTime:stats
field count 1046
field mean 0
field stddev 0
field sum 0
field sqrsum 0
field min 0
field max 0
attr source  queueTimeSignal
scalar SimNetwork.a.parkingLot 	parkingOccupancy:timeavg 	3.1500190626276
attr source  parkingOccupancy
statistic SimNetwork.a.parkingLot 	parkingOccupancy:stats
field count 2092
field mean 3.5
field stddev 0.50011954572795
field sum 7322
field sqrsum 26150
field min 3
field max 4
attr source  parkingOccupancy
