version 2
run ParkingMeasurement-30-20170106-02:04:45-12360
attr configname ParkingMeasurement
attr datetime 20170106-02:04:45
attr experiment ParkingMeasurement
attr inifile parkingStudy.ini
attr iterationvars ""
attr iterationvars2 $repetition=30
attr measurement ""
attr network SimNetwork
attr processid 12360
attr repetition 30
attr replication #30
attr resultdir results
attr runnumber 30
attr seedset 30
param SimNetwork.a.parkingLot.parkingDelay "truncnormal(60min, 6min)"
param SimNetwork.a.runway.landingTime "truncnormal(5min, 0.5min)"
param SimNetwork.a.runway.takeoffTime "truncnormal(5min, 0.5min)"
param SimNetwork.a.runway.throughputCheckInterval 50min
param SimNetwork.wg.interArrivalTime exponential(50min)

statistic SimNetwork.wg 	responseTime:stats
field count 285
field mean 7515.6756694888
field stddev 3157.2093921365
field sum 2141967.5658043
field sqrsum 18929237324.555
field min 3804.9610357436
field max 23386.108812322
attr source  responseTimeSignal
scalar SimNetwork.a.landingQueue 	queueLength:timeavg 	0.008398527569827
attr source  queueLengthSignal
statistic SimNetwork.a.landingQueue 	queueLength:stats
field count 578
field mean 0.50692041522491
field stddev 0.50726493021548
field sum 293
field sqrsum 297
field min 0
field max 2
attr source  queueLengthSignal
statistic SimNetwork.a.landingQueue 	queueTime:stats
field count 289
field mean 26.607520309556
field stddev 76.670243540385
field sum 7689.5733694618
field sqrsum 1897558.4380278
field min 0
field max 599.66002082235
attr source  queueTimeSignal
scalar SimNetwork.a.takeoffQueue 	queueLength:timeavg 	0.011047077793237
attr source  queueLengthSignal
statistic SimNetwork.a.takeoffQueue 	queueLength:stats
field count 570
field mean 0.51052631578947
field stddev 0.51075746173626
field sum 291
field sqrsum 297
field min 0
field max 2
attr source  queueLengthSignal
statistic SimNetwork.a.takeoffQueue 	queueTime:stats
field count 285
field mean 35.344852825137
field stddev 90.109667045466
field sum 10073.283055164
field sqrsum 2662048.3020434
field min 0
field max 498.9844397545
attr source  queueTimeSignal
scalar SimNetwork.a.parkingLot 	parkingOccupancy:timeavg 	1.1353097701125
attr source  parkingOccupancy
statistic SimNetwork.a.parkingLot 	parkingOccupancy:stats
field count 574
field mean 1.6254355400697
field stddev 1.2154248900598
field sum 933
field sqrsum 2363
field min 0
field max 7
attr source  parkingOccupancy
