version 2
run ParkingMeasurement-61-20170108-17:32:55-6409
attr configname ParkingMeasurement
attr datetime 20170108-17:32:55
attr experiment ParkingMeasurement
attr inifile parkingStudy.ini
attr iterationvars ""
attr iterationvars2 $repetition=61
attr measurement ""
attr network controltower.SimNetwork
attr processid 6409
attr repetition 61
attr replication #61
attr resultdir results
attr runnumber 61
attr seedset 61
param SimNetwork.a.parkingLot.parkingDelay "truncnormal(60min, 6min)"
param SimNetwork.a.runway.landingTime "truncnormal(5min, 0.5min)"
param SimNetwork.a.runway.takeoffTime "truncnormal(5min, 0.5min)"
param SimNetwork.a.runway.throughputCheckInterval 50min
param SimNetwork.wg.interArrivalTime exponential(50min)

vector 7  SimNetwork.a.parkingLot  parkingOccupancy:vector  ETV
attr source  parkingOccupancy
vector 4  SimNetwork.a.takeoffQueue  queueLength:vector  ETV
attr source  queueLengthSignal
vector 3  SimNetwork.a.takeoffQueue  queueTime:vector  ETV
attr source  queueTimeSignal
vector 0  SimNetwork.wg  responseTime:vector  ETV
attr source  responseTimeSignal
vector 5  SimNetwork.a.runway  landedThroughput:vector  ETV
attr source  landedThroughputSignal
vector 6  SimNetwork.a.runway  tookoffThroughput:vector  ETV
attr source  tookoffThroughputSignal
vector 2  SimNetwork.a.landingQueue  queueLength:vector  ETV
attr source  queueLengthSignal
vector 1  SimNetwork.a.landingQueue  queueTime:vector  ETV
attr source  queueTimeSignal
0	583	121983.290674068685	10308.20141656
0	601	127554.942816896739	9409.1323034723
0	618	131557.7461671579	8539.6494290083
0	644	135697.636834476791	7487.3832147095
0	661	138800.535748796763	6994.1673558375
0	677	140685.56810136759	6118.540961992
0	686	142916.46563834185	6352.2469605392
0	714	155985.207351965253	16739.69177909
0	731	156975.696368212858	5385.4814616936
0	740	160160.480110062861	6459.6926913845
0	760	173400.30032378916	17334.777885088
0	792	187327.687584152488	18459.930718574
0	822	190849.853386563535	7980.3556008554
0	833	191839.700991399452	4762.390382054
0	842	192192.904609205224	5825.0519283246
0	850	192424.732690923951	4946.4550063791
0	867	196560.363977334578	8755.2999606248
0	897	200948.510594875562	8651.8653029775
0	906	202179.553749663757	5673.1691690914
0	923	204542.521472344562	6180.8348766824
0	935	208059.152836772215	7916.6222015498
0	957	212498.733421534775	8573.5534448403
0	965	212854.257041239531	4920.9744672291
0	999	218430.828762715734	8947.4375700706
0	1008	220324.047026436803	6454.9046644337
0	1016	221870.775817098901	5525.5135891904
0	1067	230128.314181438878	12331.483012723
0	1082	232355.748769872723	4837.853642609
0	1090	232601.206826575391	4995.0241785584
0	1119	233795.556579174286	7784.2750542023
0	1128	234108.040682441274	6411.1349663892
0	1144	236613.50856468688	7266.3496277089
0	1149	236869.865361566331	4505.1974574364
0	1161	238186.574712439982	5217.5615766921
0	1166	238490.851661576009	5684.3769407106
0	1184	245524.481379995503	11657.801816571
0	1219	253969.941992213323	13034.231435584
0	1239	256158.594939693959	6388.6070924734
0	1244	256422.47861761234	4391.1174551907
0	1256	258952.641677602266	6636.2597767866
0	1286	263273.842159928425	8394.5521101617
0	1303	264005.12432282408	5099.9970844388
0	1319	266667.162109191341	7427.7330655902
0	1328	267455.833948398819	4768.1436132194
0	1352	268940.880265031263	5591.7354445986
0	1364	272397.132969792306	4853.3184695216
0	1369	272697.871349574825	7668.4313925152
0	1427	278485.66381804017	10534.557873402
0	1436	279024.724512049958	4692.5681957001
0	1452	279775.389763837359	5134.5742612922
0	1471	281069.752710494724	6297.8165912242
0	1487	281618.223107792682	5233.3080496196
0	1492	281873.541352560657	5477.2840843314
0	1501	283450.985756157937	5866.2182380623
0	1509	284159.586645857393	4873.2724970791
0	1518	286095.920207861245	6128.4134897392
0	1537	294245.401699204873	13316.659551798
0	1580	304608.40900521319	14562.874431004
0	1588	305136.229513652099	4364.4336809931
0	1613	308103.254745381708	6763.7540036782
0	1621	308460.103391927264	4870.401270504
0	1636	310562.770104373839	4363.2916976719
0	1654	311579.951072043293	7930.6747841097
0	1674	314463.834296353124	7701.3422227344
0	1679	314730.392600826458	4168.5822584175
0	1688	317719.585767168212	6986.8596964797
0	1714	323078.944300142041	9156.3771558676
0	1723	325256.58271377732	6682.1513987123
0	1741	332620.741444489936	12121.375129992
0	1775	337510.831665790621	8878.2457690427
0	1783	338416.492907980937	5218.3067408224
0	1792	339405.205618721971	5741.4507272446
0	1813	346578.273198802424	11351.485807581
0	1827	350599.524362243159	7814.8944585142
0	1864	364376.813147621203	17910.924779073
0	1880	365164.118426952374	5059.1420513086
0	1897	366658.68873360889	5686.9753224926
0	1913	368494.554170999818	6365.4939821465
0	1922	369158.166964008265	4560.7078935187
0	1930	371384.988266487635	5975.4600788017
0	1978	377469.600033103936	4649.0074251838
0	2008	378701.304212928753	11180.689895705
0	2013	378963.993466934505	5911.0386536876
0	2029	379665.278539813114	6206.1359419378
0	2044	381691.593455892754	6333.445916388
0	2049	381988.96474276922	4504.9068983087
0	2054	382242.156853041836	4997.1823290589
0	2062	383338.706473963451	5727.8279745019
0	2088	389508.659229565763	10449.406135028
0	2105	390752.929408984962	5364.4049773563
0	2114	394255.698031360536	7935.0717552287
0	2133	402961.115273620902	12784.175835602
0	2160	413122.897259301496	14244.814290748
0	2169	414098.287806457987	5076.4669382587
0	2195	421580.454349489528	11970.748345438
0	2203	422076.45081822337	4684.9710896063
0	2253	426320.852656258104	8447.3843164939
0	2264	426640.019513986688	4295.1316152602
0	2269	426952.914307918939	4532.6777369103
0	2280	428717.718292977268	5878.1217666109
0	2286	429011.786890305607	4803.7184472066
0	2304	435192.513530405421	10155.678587613
0	2332	447857.716195243186	16852.216438876
0	2349	451522.146792532931	7517.2095180763
0	2366	454700.062871847147	7937.8352228244
0	2378	456387.492476514547	6354.4871683048
0	2400	460653.45443503787	7855.7671730614
0	2409	464469.503902105327	8322.7951445389
0	2435	469924.869208936392	9840.3986203113
0	2444	472429.959988758205	6964.8007421095
0	2462	478078.298911714673	10196.298811121
0	2488	484410.354351891763	10306.109387657
0	2505	487345.853225901981	6551.9615594958
0	2514	489679.093273195422	6899.3670145983
0	2531	494329.199977209456	8949.6041229876
0	2559	504792.011223468739	14889.486089951
0	2584	507855.973474100131	7034.8551726065
0	2593	510466.396953579228	6407.6650493369
0	2601	511582.721015337576	5036.7756485996
0	2619	517193.204666404612	10609.640957453
0	2661	522426.022678345703	8900.7782957216
0	2669	524236.789234412172	6307.6715718642
0	2677	524573.7893696229	4495.0913777268
0	2686	526500.289465604148	6153.292855394
0	2713	535388.685830463196	13705.299076147
0	2721	536765.804620554559	5301.7768099311
0	2739	542093.259740266373	9568.8702454491
0	2768	557403.79358984519	20201.362183271
0	2785	559725.354648012792	5918.2312052114
0	2810	563986.81683174332	8453.399718476
0	2819	565914.985068633222	6717.2178359401
0	2828	567113.156082075551	5329.569139153
0	2858	576988.422114700493	3964.3048064302
0	2871	577600.726105708857	14926.538808203
0	2880	581150.554548233751	7987.2311338963
0	2914	585290.74252765876	8334.5952894279
0	2922	586215.22528033308	4774.007227632
0	2930	587123.366595111656	5587.0126467401
0	2969	597720.533532979243	15507.517881202
0	2974	598021.685873532138	4451.2472543525
0	2982	598577.476683579844	4976.160844226
0	3016	604884.291942397589	10997.513965716
0	3036	607781.237347026109	6970.518719231
0	3041	608071.804367350475	4356.6810802182
0	3050	609439.144106020496	5708.9562950256
0	3076	615152.514597148647	9401.0496256884
0	3084	617535.846408484787	6786.4478730363
0	3102	623190.566747680967	9602.4687754506
0	3128	628786.927775091829	9603.8798897789
0	3137	631129.635228404517	6301.0731868305
0	3171	636479.619931406449	9806.9397259597
0	3196	639092.260670523768	6692.6871576336
0	3207	640283.516436051835	5374.5780968479
0	3212	640529.567106557371	4594.7055687211
0	3220	641419.156319082016	4505.9532724456
0	3246	647680.619570969382	10425.077383517
0	3283	651514.519992051131	7837.4078732458
0	3299	652269.646384072887	5638.315167772
0	3304	652567.932893826153	4339.1183805126
0	3329	654953.702972050953	6705.0444553872
0	3337	655636.955361888757	4721.339797446
0	3354	657525.272214020051	6093.3118576714
0	3362	658696.143071544476	5913.9733522577
0	3370	659938.965887489723	5776.3074801402
0	3391	665440.626714681829	9680.1072201303
0	3414	670289.921680807212	9505.6294032404
0	3422	671156.288976641058	5849.6727149491
0	3441	678629.036732607202	11749.460221097
0	3458	683909.66176573288	9202.06170234
0	3476	688870.693599359441	9381.211206597
0	3494	695595.634618662012	11262.508518062
0	3547	700976.085247445639	9391.3676408875
0	3555	701300.340302266965	4964.406428434
0	3560	701571.067864816779	4609.262574416
0	3580	702221.456783548301	4302.1062412066
0	3585	702590.939925560868	5491.9559892557
0	3594	705700.334166295579	7235.0229372766
0	3631	711554.491620247377	9901.8748964468
0	3636	711767.947337095108	3973.8881868089
0	3644	712798.15689597009	4756.3657076904
0	3671	720368.258392443179	11344.371003637
0	3679	721788.229700255039	5300.6548762101
0	3716	728198.665373565156	10744.948961273
0	3724	728517.382818515684	4631.5087423421
0	3738	730438.308892056605	6322.0324446678
0	3747	732647.141867222986	6501.2407480706
0	3788	737462.308732023323	9021.7016187772
0	3797	738936.559546901453	5770.1101478064
0	3805	739427.232826497516	4736.1743045911
0	3813	740610.74270991611	5375.2217733172
0	3839	745533.037580393257	8738.7669280225
0	3847	745885.86844833046	4886.1838984612
0	3873	750151.496946527992	8321.9438636979
0	3881	750986.794758107291	5045.8858590175
0	3898	755949.918369178717	8696.6317034589
0	3933	764392.030695308946	12591.514964096
0	3942	765685.858974053693	5589.2948894457
0	3953	766924.403317326861	5248.1579820003
0	3991	770819.850090506907	8333.3957605158
0	4000	771467.217310599343	4754.8884032323
0	4017	774168.184895471827	6245.3670759123
0	4025	774511.907003778234	4839.7308013766
0	4033	776778.650652115897	6873.9623418298
0	4075	782496.490098372835	10230.259940267
0	4083	782952.530390991205	4073.1102672073
0	4092	783587.265119486789	4786.1510822934
0	4108	785249.596505458271	5556.7219668848
0	4117	788000.126223423729	6987.2503476118
0	4163	804809.107057366534	21145.295644882
0	4171	805611.319914087659	5544.9023264324
0	4182	806973.145575744867	5732.2985464727
0	4188	807268.846411417298	4479.0597383809
0	4205	812354.93785713898	9449.5659917297
0	4263	818758.709957332866	10548.756742864
0	4272	819265.030960820949	5424.0550795228
0	4280	821095.20438322624	4112.0731578189
0	4291	821567.217416675449	4379.971399212
0	4296	821891.400085338997	6709.2675591222
0	4305	822509.299431151711	4769.1367254297
0	4351	832750.562970759088	14612.933291031
0	4376	835653.965270336832	7226.1852548266
0	4381	835949.054587494801	4381.8205735545
0	4389	836277.141017914834	4708.9273879314
0	4397	836556.087976463131	4519.0399071536
0	4406	839480.705352250597	7020.0599040462
0	4432	844410.30103879193	9328.3140072521
0	4457	847622.388355461416	7637.5908104129
0	4469	849478.239746921598	6027.8300211429
0	4474	849762.25476609159	4333.5845033689
0	4500	856036.789502374238	9812.7661750564
0	4509	859280.417335898051	6601.2467775334
0	4527	865571.204929771218	10416.115944127
0	4562	874117.299933630668	12493.07332932
0	4570	874423.528330103011	4331.0454580881
0	4603	876406.613586112762	6089.0637706956
0	4611	878878.761613390404	6540.0770060681
0	4620	879513.899934260641	4926.6231463607
0	4628	880205.717701965586	5043.3605612995
0	4654	886060.683056781792	10255.115824592
0	4662	887542.444100453921	5633.8940396298
0	4689	894822.697390389992	11756.646834548
0	4697	895172.137204704257	4470.9419155457
0	4734	902604.396412540493	4526.7243978782
0	4748	903165.116724081383	11931.927712251
0	4764	905115.084285643918	6378.3622103867
0	4773	907046.299524882898	5895.8652592502
0	4781	907835.283499733659	5425.1942106235
0	4800	915514.867640850437	11270.693956716
0	4846	924654.452302454901	12969.103791172
0	4851	924964.33159884992	4409.4032405698
0	4859	926438.392673972564	5625.6601645253
0	4868	927683.902584455596	4885.9802043496
0	4913	933102.701685175376	5034.9960052287
0	4918	933459.246112483306	9375.8789099372
0	4926	934874.323240231535	6064.9203263063
0	4935	936182.10119105275	5048.4627794616
0	4952	940283.195193292265	8244.3710158811
0	4970	946374.457695373413	9489.1505055037
0	5004	951246.451888815669	9189.8219429009
0	5037	954853.74693885664	4510.1182882293
0	5045	955148.007244145946	7873.2892461564
0	5053	956036.411156312552	5552.9033110866
0	5078	957860.252250943066	5728.7476398466
0	5086	958427.728445828235	4459.6347767187
0	5103	960313.901178286299	6329.1235403966
0	5122	961125.467896325944	4812.3395908266
0	5136	963159.990389368555	6073.6460819228
0	5152	964812.563275185083	5495.0397869711
0	5160	965408.69483511481	4804.8774627501
0	5169	967255.41348790056	6365.6981415957
0	5211	972884.349346410239	9648.3164088014
0	5231	975215.895671365282	4862.0606969325
0	5236	975563.789196895472	6738.0271517445
0	5244	976401.577593306389	5543.744313954
0	5253	978452.117685231438	6139.341394074
0	5271	984320.846992375561	9653.9294470157
0	5289	990446.087868916737	9878.4511756782
0	5331	997303.050378439967	11283.558366033
0	5339	997848.074973158976	5127.8017364718
0	5364	999247.251492211418	5385.0542245258
0	5372	1000801.460440387337	6833.3441442978
0	5392	1002657.974498205458	5906.3790429949
0	5397	1002958.138962374207	4823.2576878357
0	5414	1006611.412716893397	8133.1046758572
0	5431	1009167.904127619228	7348.8080597856
0	5448	1011904.021876995566	6261.4770806057
0	5457	1015588.800766366392	8479.8614369592
0	5490	1019827.751697310787	8748.7240927501
0	5502	1021632.924790508106	5739.8448599911
0	5523	1022676.646068937731	5512.8820358008
0	5546	1025669.90310841694	7700.9444418321
0	5557	1026287.562284211607	4892.4745055573
0	5573	1028846.448001915749	6860.2894615808
0	5593	1030204.009017524593	5309.6394305155
0	5607	1032233.683056241231	6871.2247950269
0	5623	1034136.18666304253	5821.678813139
0	5631	1034765.669556573621	5225.4172839279
1	589	123018.096738149588	0
1	606	128210.253619767334	0
1	623	131806.368392959265	0
1	632	134567.027139375627	0
1	649	136564.218677802671	0
1	666	139245.515572875322	0
1	694	151590.214906519258	0
1	703	153700.787418678404	0
1	720	156065.522438700803	0
1	748	168867.756865578857	0
1	768	182869.497785708139	0
1	778	186367.852680880584	0
1	794	187327.687584152488	250.37697480699
1	802	187680.326672179286	202.0489876344
1	810	188010.681372603967	205.61735589423
1	852	192424.732690923951	128.08739902591
1	869	196560.363977334578	53.979396762199
1	878	198361.686595662165	0
1	886	200142.530635222442	0
1	911	203925.179976694461	0
1	937	208059.152836772215	125.87026276182
1	945	209483.391192645156	0
1	971	213869.142362003077	0
1	980	216345.262227908524	0
1	988	217796.831168715477	0
1	1023	226011.281524971947	0
1	1031	227517.895127263762	0
1	1042	227795.713195021188	189.53054700419
1	1048	228078.442002928069	381.53628687603
1	1056	229347.158936978016	0
1	1092	232601.206826575391	236.53892244544
1	1103	232897.744007289021	91.269286423567
1	1111	233227.96793595562	258.95480020773
1	1130	234108.040682441274	241.36111901679
1	1172	240935.710556629396	0
1	1191	249769.987847220522	0
1	1200	252031.36116242166	0
1	1208	252319.841994410262	3.460093594572
1	1224	254879.290049766771	0
1	1258	258952.641677602266	47.514439216995
1	1266	259292.424320643276	52.995277042155
1	1275	262687.690335179373	0
1	1291	263349.144820432641	0
1	1308	265029.439957059608	0
1	1333	267543.814500270693	0
1	1341	267951.105944637903	0
1	1375	274332.156316349901	0
1	1383	274661.81625804409	21.000755498932
1	1391	275010.616187069418	238.68006779893
1	1400	276384.915058173125	0
1	1408	276672.689515600809	276.43224737151
1	1416	277584.767518095593	0
1	1441	279286.314148778299	0
1	1457	279967.506718122046	0
1	1473	281069.752710494724	141.01056308752
1	1524	290045.534574209114	0
1	1544	300771.79583265901	0
1	1552	301339.500741703505	0
1	1561	303589.702121423242	0
1	1569	303906.399604787034	257.1233168534
1	1594	306199.478406701951	0
1	1602	306762.49207361874	0
1	1638	310562.770104373839	0.959761964845
1	1646	310894.905889026246	162.17981833776
1	1660	313922.567144274402	0
1	1694	318574.431315065044	0
1	1702	320499.366314497729	0
1	1729	328632.585896747925	0
1	1747	333198.186167158505	0
1	1755	333663.754891477417	0
1	1763	335226.787391221629	0
1	1798	342784.629903728927	0
1	1815	346578.273198802424	112.3848302546
1	1836	360104.976375643766	0
1	1844	360971.713411116309	0
1	1852	362129.060188853361	0
1	1869	364597.45907048956	0
1	1885	365409.528187685972	0
1	1902	367520.614317223519	0
1	1936	372820.592607920139	0
1	1944	373132.034590325417	79.079777078549
1	1952	373459.142597875298	0
1	1961	375358.147539504763	0
1	1980	377469.600033103936	224.62550912104
1	1991	377779.853813017037	295.79596855647
1	1997	378020.74006001751	409.86156055599
1	2018	379059.253094537538	0
1	2068	385388.524431628654	0
1	2076	386320.626276131829	0
1	2094	390176.939438019304	0
1	2120	398878.082968553682	0
1	2140	409021.820868199262	0
1	2148	409609.706004051681	0
1	2175	417391.479728617021	0
1	2183	417873.468339764154	0
1	2208	422344.8878987265	0
1	2216	422609.268610659736	189.03203965112
1	2224	422883.911559865276	44.315033498885
1	2233	424208.068443099013	0
1	2241	425036.834942792166	0
1	2291	431005.499756367634	0
1	2312	444004.937274456582	0
1	2320	446762.227649022791	0
1	2338	450033.005308209772	0
1	2354	452797.687261976462	0
1	2380	456387.492476514547	240.78371894813
1	2389	460084.470588625066	0
1	2415	465465.159246648688	0
1	2423	467882.000100593705	0
1	2450	474104.244964234977	0
1	2468	480793.891666406165	0
1	2476	482779.726258597132	0
1	2493	485379.595854221853	0
1	2519	489902.525133518161	0
1	2538	500821.118301493607	0
1	2548	504058.731904242326	0
1	2564	506545.945366737995	0
1	2572	506871.69507865597	288.13136970464
1	2607	513525.244382624064	0
1	2624	517929.11766254798	0
1	2633	520078.697991896096	0
1	2641	520443.518655043894	96.522044833727
1	2649	521683.386754316426	0
1	2693	531464.027810623496	0
1	2701	532524.389494817224	0
1	2727	537202.431406574498	0
1	2748	553807.123442801418	0
1	2757	555533.41711326731	0
1	2774	559197.767232693108	0
1	2791	561783.586942922529	0
1	2799	562674.187297505449	0
1	2835	573024.117308270287	0
1	2843	573360.792668015079	197.46925367761
1	2860	576988.422114700493	32.274876469583
1	2885	581441.218052701101	0
1	2893	581768.618245464914	232.26429709333
1	2902	582213.015651777022	0
1	2937	593570.438619179654	0
1	2945	593865.256008345258	263.94016899143
1	2954	594151.628143185561	264.85016650431
1	2988	600810.718627795104	0
1	2997	603715.12328713231	0
1	3005	604001.616682895222	271.42887190029
1	3021	605751.464971460227	0
1	3055	610749.398535448507	0
1	3064	613588.097972230382	0
1	3090	619183.047885312882	0
1	3108	624828.562041573984	0
1	3116	626672.680205446722	0
1	3142	632399.573512890162	0
1	3151	634908.938339203936	0
1	3159	635934.861537836236	0
1	3176	636913.203046636375	0
1	3184	637255.542187452447	0
1	3226	643677.112118805373	0
1	3235	646631.331216300842	0
1	3252	648228.81451331359	0
1	3260	648577.417905407792	328.75938874403
1	3268	650915.615564442799	0
1	3285	651514.519992051131	82.559635702502
1	3309	652782.169719286735	0
1	3318	654162.658407349501	0
1	3342	655760.519494551504	0
1	3376	660784.292277566828	0
1	3393	665440.626714681829	134.01045298992
1	3402	666879.57651151041	0
1	3428	674707.60006339285	0
1	3446	679489.482392762464	0
1	3464	684333.12610060039	0
1	3482	691584.717606558162	0
1	3500	696335.93387383295	0
1	3508	696961.805290400827	0
1	3516	697273.840329292324	174.85639298715
1	3524	697919.350542341682	0
1	3532	698465.311229018948	0
1	3565	701652.616723800543	0
1	3599	707794.059150286159	0
1	3608	708067.723877293345	25.93268901366
1	3616	709023.887388805888	0
1	3650	716487.57482404498	0
1	3659	717453.716412292467	0
1	3685	723885.874076173555	0
1	3693	724173.923132858733	57.646685469955
1	3702	726145.90111915243	0
1	3726	728517.382818515684	76.775705269546
1	3752	733166.449399095018	0
1	3760	734691.058521906454	0
1	3769	735235.5209365989	0
1	3777	736794.270652370761	0
1	3818	740999.684549869301	0
1	3827	741829.553082830122	0
1	3852	745940.908899089818	0
1	3861	747253.286665719842	0
1	3886	751800.515731212862	0
1	3905	760096.564084608032	0
1	3913	761676.245335326538	0
1	3922	762486.454329991131	0
1	3955	766924.403317326861	212.07440995986
1	3963	767922.817819559482	0
1	3972	769672.176202401665	0
1	3980	769981.288439353797	76.600129067714
1	4005	772266.230158106149	0
1	4039	778801.114037193427	0
1	4047	779143.367354338697	263.94723055476
1	4055	779692.874538573456	0
1	4064	781012.875875811881	0
1	4097	783663.811412484609	0
1	4126	800066.417587655301	0
1	4135	801240.847029272131	0
1	4143	802789.78667303635	0
1	4151	803072.801801565432	167.42993615618
1	4193	808209.953214469111	0
1	4211	813840.975881298193	0
1	4219	815182.132526216827	0
1	4228	816983.1312254073	0
1	4236	817277.947283894082	90.701266430682
1	4244	817740.162705722011	0
1	4252	818137.629679727868	0
1	4312	828427.780015510254	0
1	4321	831567.234013940322	0
1	4329	831859.737408376684	291.52377839326
1	4340	832138.074768595064	101.02669928558
1	4353	832750.562970759088	289.91752255472
1	4362	835081.987031539822	0
1	4411	839984.797545048546	0
1	4421	843450.409725778681	0
1	4437	845428.670262722727	0
1	4446	846224.023327317812	0
1	4480	852679.17055836464	0
1	4489	855155.088985644263	0
1	4515	861624.226604310335	0
1	4534	870092.482872014899	0
1	4542	870399.599966200172	82.050150783009
1	4550	872338.684607322316	0
1	4575	874587.276787899933	0
1	4583	875162.357140666122	0
1	4591	875805.567232189862	0
1	4633	881908.550060824084	0
1	4642	883066.050555841533	0
1	4668	890701.195289158515	0
1	4677	891233.189011830659	0
1	4703	898077.672014662327	0
1	4711	898736.722075257183	0
1	4720	901150.434265632718	0
1	4736	902604.396412540493	194.3071234303
1	4753	904244.173684134232	0
1	4787	911685.348511282608	0
1	4806	920554.928358280124	0
1	4814	920854.017466504017	41.284957056789
1	4823	922797.922380106036	0
1	4832	924083.367202546141	0
1	4873	928067.705679946643	0
1	4881	928809.40291392525	0
1	4890	931133.638411591158	0
1	4898	932038.824177411205	0
1	4940	936885.307189869707	0
1	4958	942056.629945914745	0
1	4975	947274.717997989589	0
1	4984	950343.628650627312	0
1	4992	950620.388308192076	136.8804629661
1	5009	952131.50461109644	0
1	5017	953968.093669109575	0
1	5026	954320.569819613212	335.79218172352
1	5058	956313.128305499359	0
1	5067	957086.344307445768	0
1	5091	959317.523488214009	0
1	5108	960603.817372364746	0
1	5124	961125.467896325944	235.75255002107
1	5141	963236.032937608887	0
1	5174	968825.762045151011	0
1	5183	970353.834974432743	0
1	5191	970857.833279352409	0
1	5200	972312.776291157468	0
1	5216	974666.917545359882	0
1	5258	980567.636693238584	0
1	5276	986019.492012407056	0
1	5294	992720.27323668713	0
1	5303	993862.197267685599	0
1	5311	994151.97317659291	183.85688050338
1	5320	996751.595455210526	0
1	5344	998134.881274538514	0
1	5355	998528.71439036243	50.406349326214
1	5377	1001819.096067833666	0
1	5403	1005642.544796389848	0
1	5419	1007108.939329407153	0
1	5437	1011079.02760456071	0
1	5462	1015893.079930517036	0
1	5471	1017163.764033136884	0
1	5479	1017968.958666584805	0
1	5504	1021632.924790508106	237.83701185378
1	5512	1021986.158540334943	0
1	5529	1024894.3695870091	0
1	5548	1025669.90310841694	307.44484720265
1	5562	1028314.50784990351	0
1	5579	1029540.25227264577	0
1	5595	1030204.009017524593	18.288268660959
1	5612	1033493.326196049079	0
1	5637	1035696.837335882266	0
2	587	123018.096738149588	1
2	589	123018.096738149588	0
2	604	128210.253619767334	1
2	606	128210.253619767334	0
2	621	131806.368392959265	1
2	623	131806.368392959265	0
2	630	134567.027139375627	1
2	632	134567.027139375627	0
2	647	136564.218677802671	1
2	649	136564.218677802671	0
2	664	139245.515572875322	1
2	666	139245.515572875322	0
2	692	151590.214906519258	1
2	694	151590.214906519258	0
2	701	153700.787418678404	1
2	703	153700.787418678404	0
2	718	156065.522438700803	1
2	720	156065.522438700803	0
2	746	168867.756865578857	1
2	748	168867.756865578857	0
2	766	182869.497785708139	1
2	768	182869.497785708139	0
2	776	186367.852680880584	1
2	778	186367.852680880584	0
2	789	187077.310609345494	1
2	794	187327.687584152488	0
2	797	187478.277684544887	1
2	802	187680.326672179286	0
2	805	187805.064016709737	1
2	810	188010.681372603967	0
2	847	192296.645291898039	1
2	852	192424.732690923951	0
2	864	196506.384580572379	1
2	869	196560.363977334578	0
2	876	198361.686595662165	1
2	878	198361.686595662165	0
2	884	200142.530635222442	1
2	886	200142.530635222442	0
2	909	203925.179976694461	1
2	911	203925.179976694461	0
2	932	207933.282574010399	1
2	937	208059.152836772215	0
2	943	209483.391192645156	1
2	945	209483.391192645156	0
2	969	213869.142362003077	1
2	971	213869.142362003077	0
2	978	216345.262227908524	1
2	980	216345.262227908524	0
2	986	217796.831168715477	1
2	988	217796.831168715477	0
2	1021	226011.281524971947	1
2	1023	226011.281524971947	0
2	1029	227517.895127263762	1
2	1031	227517.895127263762	0
2	1034	227606.182648016998	1
2	1037	227696.905716052041	2
2	1042	227795.713195021188	1
2	1048	228078.442002928069	0
2	1054	229347.158936978016	1
2	1056	229347.158936978016	0
2	1087	232364.66790412995	1
2	1092	232601.206826575391	0
2	1095	232806.474720865454	1
2	1103	232897.744007289021	0
2	1106	232969.013135747885	1
2	1111	233227.96793595562	0
2	1124	233866.679563424488	1
2	1130	234108.040682441274	0
2	1170	240935.710556629396	1
2	1172	240935.710556629396	0
2	1189	249769.987847220522	1
2	1191	249769.987847220522	0
2	1198	252031.36116242166	1
2	1200	252031.36116242166	0
2	1203	252316.38190081569	1
2	1208	252319.841994410262	0
2	1222	254879.290049766771	1
2	1224	254879.290049766771	0
2	1253	258905.127238385271	1
2	1258	258952.641677602266	0
2	1261	259239.429043601121	1
2	1266	259292.424320643276	0
2	1273	262687.690335179373	1
2	1275	262687.690335179373	0
2	1289	263349.144820432641	1
2	1291	263349.144820432641	0
2	1306	265029.439957059608	1
2	1308	265029.439957059608	0
2	1331	267543.814500270693	1
2	1333	267543.814500270693	0
2	1339	267951.105944637903	1
2	1341	267951.105944637903	0
2	1373	274332.156316349901	1
2	1375	274332.156316349901	0
2	1378	274640.815502545158	1
2	1383	274661.81625804409	0
2	1386	274771.936119270484	1
2	1391	275010.616187069418	0
2	1398	276384.915058173125	1
2	1400	276384.915058173125	0
2	1403	276396.257268229301	1
2	1408	276672.689515600809	0
2	1414	277584.767518095593	1
2	1416	277584.767518095593	0
2	1439	279286.314148778299	1
2	1441	279286.314148778299	0
2	1455	279967.506718122046	1
2	1457	279967.506718122046	0
2	1468	280928.742147407208	1
2	1473	281069.752710494724	0
2	1522	290045.534574209114	1
2	1524	290045.534574209114	0
2	1542	300771.79583265901	1
2	1544	300771.79583265901	0
2	1550	301339.500741703505	1
2	1552	301339.500741703505	0
2	1559	303589.702121423242	1
2	1561	303589.702121423242	0
2	1564	303649.276287933634	1
2	1569	303906.399604787034	0
2	1592	306199.478406701951	1
2	1594	306199.478406701951	0
2	1600	306762.49207361874	1
2	1602	306762.49207361874	0
2	1633	310561.810342408994	1
2	1638	310562.770104373839	0
2	1641	310732.726070688487	1
2	1646	310894.905889026246	0
2	1658	313922.567144274402	1
2	1660	313922.567144274402	0
2	1692	318574.431315065044	1
2	1694	318574.431315065044	0
2	1700	320499.366314497729	1
2	1702	320499.366314497729	0
2	1727	328632.585896747925	1
2	1729	328632.585896747925	0
2	1745	333198.186167158505	1
2	1747	333198.186167158505	0
2	1753	333663.754891477417	1
2	1755	333663.754891477417	0
2	1761	335226.787391221629	1
2	1763	335226.787391221629	0
2	1796	342784.629903728927	1
2	1798	342784.629903728927	0
2	1810	346465.888368547822	1
2	1815	346578.273198802424	0
2	1834	360104.976375643766	1
2	1836	360104.976375643766	0
2	1842	360971.713411116309	1
2	1844	360971.713411116309	0
2	1850	362129.060188853361	1
2	1852	362129.060188853361	0
2	1867	364597.45907048956	1
2	1869	364597.45907048956	0
2	1883	365409.528187685972	1
2	1885	365409.528187685972	0
2	1900	367520.614317223519	1
2	1902	367520.614317223519	0
2	1934	372820.592607920139	1
2	1936	372820.592607920139	0
2	1939	373052.954813246868	1
2	1944	373132.034590325417	0
2	1950	373459.142597875298	1
2	1952	373459.142597875298	0
2	1959	375358.147539504763	1
2	1961	375358.147539504763	0
2	1972	377244.974523982896	1
2	1980	377469.600033103936	0
2	1983	377484.057844460562	1
2	1986	377610.878499461523	2
2	1991	377779.853813017037	1
2	1997	378020.74006001751	0
2	2016	379059.253094537538	1
2	2018	379059.253094537538	0
2	2066	385388.524431628654	1
2	2068	385388.524431628654	0
2	2074	386320.626276131829	1
2	2076	386320.626276131829	0
2	2092	390176.939438019304	1
2	2094	390176.939438019304	0
2	2118	398878.082968553682	1
2	2120	398878.082968553682	0
2	2138	409021.820868199262	1
2	2140	409021.820868199262	0
2	2146	409609.706004051681	1
2	2148	409609.706004051681	0
2	2173	417391.479728617021	1
2	2175	417391.479728617021	0
2	2181	417873.468339764154	1
2	2183	417873.468339764154	0
2	2206	422344.8878987265	1
2	2208	422344.8878987265	0
2	2211	422420.236571008615	1
2	2216	422609.268610659736	0
2	2219	422839.596526366391	1
2	2224	422883.911559865276	0
2	2231	424208.068443099013	1
2	2233	424208.068443099013	0
2	2239	425036.834942792166	1
2	2241	425036.834942792166	0
2	2289	431005.499756367634	1
2	2291	431005.499756367634	0
2	2310	444004.937274456582	1
2	2312	444004.937274456582	0
2	2318	446762.227649022791	1
2	2320	446762.227649022791	0
2	2336	450033.005308209772	1
2	2338	450033.005308209772	0
2	2352	452797.687261976462	1
2	2354	452797.687261976462	0
2	2375	456146.708757566418	1
2	2380	456387.492476514547	0
2	2387	460084.470588625066	1
2	2389	460084.470588625066	0
2	2413	465465.159246648688	1
2	2415	465465.159246648688	0
2	2421	467882.000100593705	1
2	2423	467882.000100593705	0
2	2448	474104.244964234977	1
2	2450	474104.244964234977	0
2	2466	480793.891666406165	1
2	2468	480793.891666406165	0
2	2474	482779.726258597132	1
2	2476	482779.726258597132	0
2	2491	485379.595854221853	1
2	2493	485379.595854221853	0
2	2517	489902.525133518161	1
2	2519	489902.525133518161	0
2	2536	500821.118301493607	1
2	2538	500821.118301493607	0
2	2546	504058.731904242326	1
2	2548	504058.731904242326	0
2	2562	506545.945366737995	1
2	2564	506545.945366737995	0
2	2567	506583.563708951328	1
2	2572	506871.69507865597	0
2	2605	513525.244382624064	1
2	2607	513525.244382624064	0
2	2622	517929.11766254798	1
2	2624	517929.11766254798	0
2	2631	520078.697991896096	1
2	2633	520078.697991896096	0
2	2636	520346.996610210167	1
2	2641	520443.518655043894	0
2	2647	521683.386754316426	1
2	2649	521683.386754316426	0
2	2691	531464.027810623496	1
2	2693	531464.027810623496	0
2	2699	532524.389494817224	1
2	2701	532524.389494817224	0
2	2725	537202.431406574498	1
2	2727	537202.431406574498	0
2	2746	553807.123442801418	1
2	2748	553807.123442801418	0
2	2755	555533.41711326731	1
2	2757	555533.41711326731	0
2	2772	559197.767232693108	1
2	2774	559197.767232693108	0
2	2789	561783.586942922529	1
2	2791	561783.586942922529	0
2	2797	562674.187297505449	1
2	2799	562674.187297505449	0
2	2833	573024.117308270287	1
2	2835	573024.117308270287	0
2	2838	573163.323414337469	1
2	2843	573360.792668015079	0
2	2855	576956.14723823091	1
2	2860	576988.422114700493	0
2	2883	581441.218052701101	1
2	2885	581441.218052701101	0
2	2888	581536.353948371579	1
2	2893	581768.618245464914	0
2	2900	582213.015651777022	1
2	2902	582213.015651777022	0
2	2935	593570.438619179654	1
2	2937	593570.438619179654	0
2	2940	593601.315839353827	1
2	2945	593865.256008345258	0
2	2948	593886.77797668125	1
2	2954	594151.628143185561	0
2	2986	600810.718627795104	1
2	2988	600810.718627795104	0
2	2995	603715.12328713231	1
2	2997	603715.12328713231	0
2	3000	603730.187810994929	1
2	3005	604001.616682895222	0
2	3019	605751.464971460227	1
2	3021	605751.464971460227	0
2	3053	610749.398535448507	1
2	3055	610749.398535448507	0
2	3062	613588.097972230382	1
2	3064	613588.097972230382	0
2	3088	619183.047885312882	1
2	3090	619183.047885312882	0
2	3106	624828.562041573984	1
2	3108	624828.562041573984	0
2	3114	626672.680205446722	1
2	3116	626672.680205446722	0
2	3140	632399.573512890162	1
2	3142	632399.573512890162	0
2	3149	634908.938339203936	1
2	3151	634908.938339203936	0
2	3157	635934.861537836236	1
2	3159	635934.861537836236	0
2	3174	636913.203046636375	1
2	3176	636913.203046636375	0
2	3182	637255.542187452447	1
2	3184	637255.542187452447	0
2	3224	643677.112118805373	1
2	3226	643677.112118805373	0
2	3233	646631.331216300842	1
2	3235	646631.331216300842	0
2	3250	648228.81451331359	1
2	3252	648228.81451331359	0
2	3255	648248.658516663759	1
2	3260	648577.417905407792	0
2	3266	650915.615564442799	1
2	3268	650915.615564442799	0
2	3280	651431.960356348629	1
2	3285	651514.519992051131	0
2	3307	652782.169719286735	1
2	3309	652782.169719286735	0
2	3316	654162.658407349501	1
2	3318	654162.658407349501	0
2	3340	655760.519494551504	1
2	3342	655760.519494551504	0
2	3374	660784.292277566828	1
2	3376	660784.292277566828	0
2	3388	665306.616261691908	1
2	3393	665440.626714681829	0
2	3400	666879.57651151041	1
2	3402	666879.57651151041	0
2	3426	674707.60006339285	1
2	3428	674707.60006339285	0
2	3444	679489.482392762464	1
2	3446	679489.482392762464	0
2	3462	684333.12610060039	1
2	3464	684333.12610060039	0
2	3480	691584.717606558162	1
2	3482	691584.717606558162	0
2	3498	696335.93387383295	1
2	3500	696335.93387383295	0
2	3506	696961.805290400827	1
2	3508	696961.805290400827	0
2	3511	697098.983936305173	1
2	3516	697273.840329292324	0
2	3522	697919.350542341682	1
2	3524	697919.350542341682	0
2	3530	698465.311229018948	1
2	3532	698465.311229018948	0
2	3563	701652.616723800543	1
2	3565	701652.616723800543	0
2	3597	707794.059150286159	1
2	3599	707794.059150286159	0
2	3603	708041.791188279685	1
2	3608	708067.723877293345	0
2	3614	709023.887388805888	1
2	3616	709023.887388805888	0
2	3648	716487.57482404498	1
2	3650	716487.57482404498	0
2	3657	717453.716412292467	1
2	3659	717453.716412292467	0
2	3683	723885.874076173555	1
2	3685	723885.874076173555	0
2	3688	724116.276447388778	1
2	3693	724173.923132858733	0
2	3700	726145.90111915243	1
2	3702	726145.90111915243	0
2	3721	728440.607113246138	1
2	3726	728517.382818515684	0
2	3750	733166.449399095018	1
2	3752	733166.449399095018	0
2	3758	734691.058521906454	1
2	3760	734691.058521906454	0
2	3767	735235.5209365989	1
2	3769	735235.5209365989	0
2	3775	736794.270652370761	1
2	3777	736794.270652370761	0
2	3816	740999.684549869301	1
2	3818	740999.684549869301	0
2	3825	741829.553082830122	1
2	3827	741829.553082830122	0
2	3850	745940.908899089818	1
2	3852	745940.908899089818	0
2	3859	747253.286665719842	1
2	3861	747253.286665719842	0
2	3884	751800.515731212862	1
2	3886	751800.515731212862	0
2	3903	760096.564084608032	1
2	3905	760096.564084608032	0
2	3911	761676.245335326538	1
2	3913	761676.245335326538	0
2	3920	762486.454329991131	1
2	3922	762486.454329991131	0
2	3950	766712.328907366998	1
2	3955	766924.403317326861	0
2	3961	767922.817819559482	1
2	3963	767922.817819559482	0
2	3970	769672.176202401665	1
2	3972	769672.176202401665	0
2	3975	769904.688310286083	1
2	3980	769981.288439353797	0
2	4003	772266.230158106149	1
2	4005	772266.230158106149	0
2	4037	778801.114037193427	1
2	4039	778801.114037193427	0
2	4042	778879.420123783937	1
2	4047	779143.367354338697	0
2	4053	779692.874538573456	1
2	4055	779692.874538573456	0
2	4062	781012.875875811881	1
2	4064	781012.875875811881	0
2	4095	783663.811412484609	1
2	4097	783663.811412484609	0
2	4124	800066.417587655301	1
2	4126	800066.417587655301	0
2	4133	801240.847029272131	1
2	4135	801240.847029272131	0
2	4141	802789.78667303635	1
2	4143	802789.78667303635	0
2	4146	802905.371865409247	1
2	4151	803072.801801565432	0
2	4191	808209.953214469111	1
2	4193	808209.953214469111	0
2	4209	813840.975881298193	1
2	4211	813840.975881298193	0
2	4217	815182.132526216827	1
2	4219	815182.132526216827	0
2	4226	816983.1312254073	1
2	4228	816983.1312254073	0
2	4231	817187.2460174634	1
2	4236	817277.947283894082	0
2	4242	817740.162705722011	1
2	4244	817740.162705722011	0
2	4250	818137.629679727868	1
2	4252	818137.629679727868	0
2	4310	828427.780015510254	1
2	4312	828427.780015510254	0
2	4319	831567.234013940322	1
2	4321	831567.234013940322	0
2	4324	831568.213629983419	1
2	4329	831859.737408376684	0
2	4335	832037.048069309483	1
2	4340	832138.074768595064	0
2	4348	832460.645448204371	1
2	4353	832750.562970759088	0
2	4360	835081.987031539822	1
2	4362	835081.987031539822	0
2	4409	839984.797545048546	1
2	4411	839984.797545048546	0
2	4419	843450.409725778681	1
2	4421	843450.409725778681	0
2	4435	845428.670262722727	1
2	4437	845428.670262722727	0
2	4444	846224.023327317812	1
2	4446	846224.023327317812	0
2	4478	852679.17055836464	1
2	4480	852679.17055836464	0
2	4487	855155.088985644263	1
2	4489	855155.088985644263	0
2	4513	861624.226604310335	1
2	4515	861624.226604310335	0
2	4532	870092.482872014899	1
2	4534	870092.482872014899	0
2	4537	870317.549815417163	1
2	4542	870399.599966200172	0
2	4548	872338.684607322316	1
2	4550	872338.684607322316	0
2	4573	874587.276787899933	1
2	4575	874587.276787899933	0
2	4581	875162.357140666122	1
2	4583	875162.357140666122	0
2	4589	875805.567232189862	1
2	4591	875805.567232189862	0
2	4631	881908.550060824084	1
2	4633	881908.550060824084	0
2	4640	883066.050555841533	1
2	4642	883066.050555841533	0
2	4666	890701.195289158515	1
2	4668	890701.195289158515	0
2	4675	891233.189011830659	1
2	4677	891233.189011830659	0
2	4701	898077.672014662327	1
2	4703	898077.672014662327	0
2	4709	898736.722075257183	1
2	4711	898736.722075257183	0
2	4718	901150.434265632718	1
2	4720	901150.434265632718	0
2	4731	902410.089289110196	1
2	4736	902604.396412540493	0
2	4751	904244.173684134232	1
2	4753	904244.173684134232	0
2	4785	911685.348511282608	1
2	4787	911685.348511282608	0
2	4804	920554.928358280124	1
2	4806	920554.928358280124	0
2	4809	920812.732509447228	1
2	4814	920854.017466504017	0
2	4821	922797.922380106036	1
2	4823	922797.922380106036	0
2	4830	924083.367202546141	1
2	4832	924083.367202546141	0
2	4871	928067.705679946643	1
2	4873	928067.705679946643	0
2	4879	928809.40291392525	1
2	4881	928809.40291392525	0
2	4888	931133.638411591158	1
2	4890	931133.638411591158	0
2	4896	932038.824177411205	1
2	4898	932038.824177411205	0
2	4938	936885.307189869707	1
2	4940	936885.307189869707	0
2	4956	942056.629945914745	1
2	4958	942056.629945914745	0
2	4973	947274.717997989589	1
2	4975	947274.717997989589	0
2	4982	950343.628650627312	1
2	4984	950343.628650627312	0
2	4987	950483.507845225972	1
2	4992	950620.388308192076	0
2	5007	952131.50461109644	1
2	5009	952131.50461109644	0
2	5015	953968.093669109575	1
2	5017	953968.093669109575	0
2	5020	953984.777637889694	1
2	5026	954320.569819613212	0
2	5056	956313.128305499359	1
2	5058	956313.128305499359	0
2	5065	957086.344307445768	1
2	5067	957086.344307445768	0
2	5089	959317.523488214009	1
2	5091	959317.523488214009	0
2	5106	960603.817372364746	1
2	5108	960603.817372364746	0
2	5119	960889.715346304874	1
2	5124	961125.467896325944	0
2	5139	963236.032937608887	1
2	5141	963236.032937608887	0
2	5172	968825.762045151011	1
2	5174	968825.762045151011	0
2	5181	970353.834974432743	1
2	5183	970353.834974432743	0
2	5189	970857.833279352409	1
2	5191	970857.833279352409	0
2	5198	972312.776291157468	1
2	5200	972312.776291157468	0
2	5214	974666.917545359882	1
2	5216	974666.917545359882	0
2	5256	980567.636693238584	1
2	5258	980567.636693238584	0
2	5274	986019.492012407056	1
2	5276	986019.492012407056	0
2	5292	992720.27323668713	1
2	5294	992720.27323668713	0
2	5301	993862.197267685599	1
2	5303	993862.197267685599	0
2	5306	993968.116296089535	1
2	5311	994151.97317659291	0
2	5318	996751.595455210526	1
2	5320	996751.595455210526	0
2	5342	998134.881274538514	1
2	5344	998134.881274538514	0
2	5350	998478.308041036216	1
2	5355	998528.71439036243	0
2	5375	1001819.096067833666	1
2	5377	1001819.096067833666	0
2	5401	1005642.544796389848	1
2	5403	1005642.544796389848	0
2	5417	1007108.939329407153	1
2	5419	1007108.939329407153	0
2	5435	1011079.02760456071	1
2	5437	1011079.02760456071	0
2	5460	1015893.079930517036	1
2	5462	1015893.079930517036	0
2	5469	1017163.764033136884	1
2	5471	1017163.764033136884	0
2	5477	1017968.958666584805	1
2	5479	1017968.958666584805	0
2	5499	1021395.087778654321	1
2	5504	1021632.924790508106	0
2	5510	1021986.158540334943	1
2	5512	1021986.158540334943	0
2	5527	1024894.3695870091	1
2	5529	1024894.3695870091	0
2	5540	1025362.458261214288	1
2	5548	1025669.90310841694	0
2	5560	1028314.50784990351	1
2	5562	1028314.50784990351	0
2	5577	1029540.25227264577	1
2	5579	1029540.25227264577	0
2	5590	1030185.720748863634	1
2	5595	1030204.009017524593	0
2	5610	1033493.326196049079	1
2	5612	1033493.326196049079	0
2	5635	1035696.837335882266	1
2	5637	1035696.837335882266	0
3	580	121715.336693319046	0
3	598	127218.431367028342	0
3	615	131267.071267868293	0
3	641	135345.773219955717	0
3	658	138532.497454139774	0
3	674	140365.721102409419	0
3	683	142620.182846138857	0
3	711	155673.243397277278	0
3	728	156672.206176940883	0
3	737	159882.151700641222	0
3	757	173097.186705851193	0
3	786	187013.263523783284	0
3	819	190591.438386877316	0
3	827	191535.269284768051	0
3	835	191839.700991399452	231.84702502548
3	844	192192.904609205224	278.45611109083
3	861	196287.487554365329	0
3	894	200676.314011349084	0
3	903	201908.938799566455	0
3	920	204230.042887844136	26.571756914923
3	929	207738.586853360257	0
3	954	212217.841600936761	0
3	962	212550.332851500026	0
3	996	218191.989618027041	0
3	1005	220031.824358002752	0
3	1013	221574.237908825383	0
3	1064	229804.084511789139	0
3	1073	232055.963534105594	0
3	1084	232355.748769872723	216.33092891142
3	1116	233471.166750606148	1177.4333470375
3	1121	233795.556579174286	967.82022642737
3	1138	236345.786953486371	0
3	1146	236613.50856468688	134.40561489436
3	1155	237842.005966038546	0
3	1163	238186.574712439982	278.880706205
3	1181	245227.191562673056	0
3	1216	253658.356018522176	0
3	1233	255846.401712728706	0
3	1241	256158.594939693959	188.94496798371
3	1250	258629.439664201279	0
3	1283	262964.367638389161	165.3844072862
3	1299	263687.699003238093	196.63833570649
3	1316	266367.202288002292	0
3	1325	267165.140744980308	0
3	1349	268646.157811160098	0
3	1358	272120.070177252528	0
3	1366	272397.132969792306	205.08464450952
3	1424	278214.992244906653	0
3	1432	278669.835023693527	0
3	1449	279545.78233171958	0
3	1465	280761.699609795115	0
3	1481	281337.887729418464	73.998400276818
3	1489	281618.223107792682	104.66383200903
3	1498	283169.373736108773	0
3	1506	283819.507892827583	0
3	1515	285746.537264485653	0
3	1533	293929.48260872678	0
3	1577	304357.318698263189	0
3	1585	304861.164314939361	0
3	1610	307841.71746352536	0
3	1618	308173.569710060113	0
3	1627	310263.416531684899	0
3	1651	311230.551018520909	701.80422742476
3	1668	314200.305677704325	29.14698886957
3	1676	314463.834296353124	105.18292760148
3	1685	317433.052018277701	0
3	1711	322804.792169084626	0
3	1720	324896.10717631864	0
3	1738	332318.660579092627	0
3	1772	337178.977880627937	0
3	1780	338052.689139810595	0
3	1789	339093.170796181115	0
3	1807	346330.293631174664	0
3	1824	350279.343966862184	0
3	1861	364056.528497179395	0
3	1877	364878.646272412554	48.218758137938
3	1894	366367.420878561564	0
3	1910	368170.765027984395	0
3	1918	368821.412663482403	0
3	1927	371097.487194574447	0
3	1969	377217.719895232298	0
3	2005	378380.91160689295	1056.7209768337
3	2010	378701.304212928753	608.17350012008
3	2026	379362.459537329066	0
3	2035	381422.17151574176	0
3	2046	381691.593455892754	246.53636884886
3	2051	381988.96474276922	369.61326901724
3	2059	383051.709966450146	0
3	2085	389220.175092945171	0
3	2102	390459.880889789082	156.80428257682
3	2111	393967.67456658809	0
3	2130	402709.547599731023	0
3	2157	412848.882360797109	0
3	2165	413865.903516775707	0
3	2192	421305.92282712919	0
3	2200	421785.232545344069	0
3	2250	426054.019579141599	0
3	2258	426324.19681864361	0
3	2266	426640.019513986688	146.11078644342
3	2274	428457.612572351398	0
3	2282	428717.718292977268	110.91232586255
3	2300	434859.051603411319	0
3	2329	447520.91866101408	0
3	2346	451221.00007260585	0
3	2363	454402.377923153526	0
3	2372	456108.761738461112	0
3	2397	460360.784066713285	0
3	2406	464191.888680236217	0
3	2432	469638.600769573762	0
3	2441	472128.708877490662	0
3	2459	477786.948579927336	0
3	2485	484108.898376550949	0
3	2502	487034.76659606018	0
3	2511	489368.043724189027	0
3	2528	494025.694929926586	0
3	2556	504460.709157507376	0
3	2581	507558.608876646702	0
3	2590	510209.771896717523	0
3	2598	511275.718628766604	0
3	2616	516939.885721263814	0
3	2658	522160.229027528721	0
3	2666	523909.193628474262	0
3	2674	524252.724831134179	0
3	2683	526170.651197783325	0
3	2710	535116.659710748719	0
3	2718	536437.258480879837	0
3	2736	541810.864165028421	0
3	2765	557129.104924137014	0
3	2782	559459.974525204651	60.631414691494
3	2807	563705.356433461697	0
3	2816	565626.717895554336	0
3	2824	566812.267800440056	0
3	2852	576685.271254236555	0
3	2868	577280.946855596601	268.84682167693
3	2877	580877.536286435013	0
3	2911	585007.623410922917	0
3	2919	585945.133108290234	0
3	2927	586822.850901843796	0
3	2963	597433.656246626982	0
3	2971	597720.533532979243	242.01571929943
3	2979	598311.339646393998	0
3	3013	604592.304817137688	0
3	3030	607463.960508669979	0
3	3038	607781.237347026109	40.804503275642
3	3047	609166.950190647471	0
3	3072	614829.144871723099	0
3	3081	617264.477034335641	0
3	3099	622944.099877805333	0
3	3125	628530.623593047953	0
3	3134	630801.464155042868	0
3	3168	636229.833754404137	103.83827858362
3	3192	638774.675817791894	0
3	3201	639971.999224232268	0
3	3209	640283.516436051835	218.73813704968
3	3217	641105.359048017256	0
3	3243	647388.880429970871	0
3	3277	651193.281465042039	199.07856157071
3	3293	651989.963886423042	0
3	3301	652269.646384072887	32.34415572673
3	3326	654660.889050376996	0
3	3334	655343.084754052797	0
3	3351	657198.637873295575	0
3	3359	658356.47019289318	0
3	3367	659616.758279074705	0
3	3385	665138.812131634748	0
3	3411	670015.466752587123	0
3	3419	670818.650257891043	0
3	3438	678331.595120347151	0
3	3455	683550.036190224873	0
3	3473	688570.308451552936	0
3	3491	695325.475828589218	0
3	3541	700678.272937724098	0
3	3549	700976.085247445639	130.82991636882
3	3557	701300.340302266965	189.08524237955
3	3573	701943.03657191502	52.243828721727
3	3582	702221.456783548301	112.924329906
3	3591	705357.222196811467	0
3	3625	711279.500234575108	0
3	3633	711554.491620247377	91.562442987834
3	3641	712529.228883740152	0
3	3668	720022.542338609378	0
3	3676	721491.694785813333	0
3	3710	727890.113508662397	0
3	3718	728198.665373565156	222.59208212945
3	3735	730154.182532274755	0
3	3744	732339.744507811976	0
3	3785	737126.040916787821	14.819490410595
3	3794	738622.168728761765	0
3	3802	739139.353197050194	0
3	3810	740342.495372016404	0
3	3836	745248.678375520297	0
3	3844	745608.020674407271	0
3	3869	749848.999357819816	0
3	3878	750698.573114232698	0
3	3895	755646.880995700383	0
3	3930	764067.045160786938	0
3	3939	765378.457117927448	0
3	3947	766633.799227481591	0
3	3988	770533.856709735809	0
3	3997	771181.163847065337	0
3	4013	773836.141856129447	0
3	4022	774217.108199829759	0
3	4030	776497.852826539951	0
3	4072	782224.2889294038	0
3	4080	782683.125937759844	0
3	4089	783309.638191095768	0
3	4105	784990.794465306579	0
3	4114	787729.992224053853	0
3	4160	804531.29737001791	0
3	4168	805345.035597790702	0
3	4176	806701.113476999715	0
3	4184	806973.145575744867	28.624447032167
3	4202	812033.279078947895	0
3	4260	818480.314360547129	0
3	4268	818978.099087665045	0
3	4277	820778.010588821789	0
3	4285	821247.175477332725	0
3	4293	821567.217416675449	125.81774640015
3	4302	822167.558870982349	0
3	4345	832446.938348565676	414.61760061162
3	4370	835366.322479520854	82.268723795376
3	4378	835653.965270336832	286.1581855046
3	4386	835993.855132005707	0
3	4394	836325.200627056731	0
3	4403	839189.441902157387	0
3	4429	844092.687243531291	0
3	4454	847295.590817452345	0
3	4463	849155.077738545143	0
3	4471	849478.239746921598	7.050906480142
3	4497	855744.530139859323	0
3	4506	858982.281726832069	0
3	4524	865238.357499883073	0
3	4559	873791.493490556196	0
3	4567	874143.989964930425	0
3	4600	876129.996047277094	137.55882901717
3	4608	878542.426876873289	0
3	4617	879209.696692918632	0
3	4625	879880.322828409725	0
3	4651	885779.432021699293	0
3	4659	887231.535372021817	0
3	4686	894531.687326542541	0
3	4694	894879.928512898567	0
3	4728	902334.879201020329	0
3	4744	902886.191879414118	32.219307934435
3	4761	904849.18457230114	0
3	4770	906716.069547078108	0
3	4778	907539.294433145482	0
3	4797	915216.108410551748	0
3	4840	924341.686097036205	204.41529723724
3	4848	924654.452302454901	70.034063518253
3	4856	926155.088863242654	0
3	4865	927380.906549465731	0
3	4906	932770.119598556826	0
3	4915	933102.701685175376	192.4478461848
3	4923	934558.064201174338	0
3	4931	935918.394584723702	0
3	4949	940003.876517312908	0
3	4967	946115.56618627213	0
3	5000	950936.969919899301	50.586209795654
3	5034	954592.166864530384	59.168953875405
3	5042	954889.522361879971	0
3	5050	955740.277865994256	0
3	5075	957531.831763631361	0
3	5083	958120.056431358435	0
3	5099	959971.195303732924	0
3	5116	960859.344433963474	207.96590550314
3	5132	962845.74419077515	0
3	5149	964530.465576692882	0
3	5157	965098.808669496235	0
3	5166	966929.988263530383	0
3	5208	972584.740217758289	37.720628279388
3	5227	974954.047185576043	52.125623317199
3	5233	975215.895671365282	313.60083207013
3	5241	976139.597113992884	0
3	5250	978155.088626148883	0
3	5267	983992.932641005806	0
3	5286	990175.286868566326	0
3	5328	996989.033615780637	188.65845393047
3	5336	997568.023868015782	0
3	5360	998866.164784552894	481.13248149931
3	5369	1000517.539856437437	0
3	5386	1002318.893424090497	0
3	5394	1002657.974498205458	219.11619793143
3	5411	1006337.408576579439	0
3	5428	1008894.680579161394	0
3	5445	1011619.470485910035	0
3	5454	1015285.60808461231	0
3	5487	1019536.794906248311	0
3	5496	1021348.843308649849	0
3	5520	1022331.841013105261	290.68709152704
3	5537	1025354.788281649682	0
3	5553	1025981.640151370612	339.72887183752
3	5570	1028574.560515628799	68.781037713688
3	5587	1029833.704481476245	208.22530898893
3	5603	1031886.058783810123	0
3	5620	1033795.85378703871	79.662368640462
3	5628	1034472.827355134399	0
4	578	121715.336693319046	1
4	580	121715.336693319046	0
4	596	127218.431367028342	1
4	598	127218.431367028342	0
4	613	131267.071267868293	1
4	615	131267.071267868293	0
4	639	135345.773219955717	1
4	641	135345.773219955717	0
4	656	138532.497454139774	1
4	658	138532.497454139774	0
4	672	140365.721102409419	1
4	674	140365.721102409419	0
4	681	142620.182846138857	1
4	683	142620.182846138857	0
4	709	155673.243397277278	1
4	711	155673.243397277278	0
4	726	156672.206176940883	1
4	728	156672.206176940883	0
4	735	159882.151700641222	1
4	737	159882.151700641222	0
4	755	173097.186705851193	1
4	757	173097.186705851193	0
4	784	187013.263523783284	1
4	786	187013.263523783284	0
4	817	190591.438386877316	1
4	819	190591.438386877316	0
4	825	191535.269284768051	1
4	827	191535.269284768051	0
4	830	191607.853966373973	1
4	835	191839.700991399452	0
4	838	191914.448498114393	1
4	844	192192.904609205224	0
4	859	196287.487554365329	1
4	861	196287.487554365329	0
4	892	200676.314011349084	1
4	894	200676.314011349084	0
4	901	201908.938799566455	1
4	903	201908.938799566455	0
4	915	204203.471130929213	1
4	920	204230.042887844136	0
4	927	207738.586853360257	1
4	929	207738.586853360257	0
4	952	212217.841600936761	1
4	954	212217.841600936761	0
4	960	212550.332851500026	1
4	962	212550.332851500026	0
4	994	218191.989618027041	1
4	996	218191.989618027041	0
4	1003	220031.824358002752	1
4	1005	220031.824358002752	0
4	1011	221574.237908825383	1
4	1013	221574.237908825383	0
4	1062	229804.084511789139	1
4	1064	229804.084511789139	0
4	1071	232055.963534105594	1
4	1073	232055.963534105594	0
4	1076	232139.417840961304	1
4	1079	232293.733403568604	2
4	1084	232355.748769872723	1
4	1098	232827.736352746921	2
4	1116	233471.166750606148	1
4	1121	233795.556579174286	0
4	1136	236345.786953486371	1
4	1138	236345.786953486371	0
4	1141	236479.102949792525	1
4	1146	236613.50856468688	0
4	1153	237842.005966038546	1
4	1155	237842.005966038546	0
4	1158	237907.694006234987	1
4	1163	238186.574712439982	0
4	1179	245227.191562673056	1
4	1181	245227.191562673056	0
4	1214	253658.356018522176	1
4	1216	253658.356018522176	0
4	1231	255846.401712728706	1
4	1233	255846.401712728706	0
4	1236	255969.649971710246	1
4	1241	256158.594939693959	0
4	1248	258629.439664201279	1
4	1250	258629.439664201279	0
4	1278	262798.983231102962	1
4	1283	262964.367638389161	0
4	1294	263491.060667531607	1
4	1299	263687.699003238093	0
4	1314	266367.202288002292	1
4	1316	266367.202288002292	0
4	1323	267165.140744980308	1
4	1325	267165.140744980308	0
4	1347	268646.157811160098	1
4	1349	268646.157811160098	0
4	1356	272120.070177252528	1
4	1358	272120.070177252528	0
4	1361	272192.048325282783	1
4	1366	272397.132969792306	0
4	1422	278214.992244906653	1
4	1424	278214.992244906653	0
4	1430	278669.835023693527	1
4	1432	278669.835023693527	0
4	1447	279545.78233171958	1
4	1449	279545.78233171958	0
4	1463	280761.699609795115	1
4	1465	280761.699609795115	0
4	1476	281263.889329141646	1
4	1481	281337.887729418464	0
4	1484	281513.559275783654	1
4	1489	281618.223107792682	0
4	1496	283169.373736108773	1
4	1498	283169.373736108773	0
4	1504	283819.507892827583	1
4	1506	283819.507892827583	0
4	1513	285746.537264485653	1
4	1515	285746.537264485653	0
4	1531	293929.48260872678	1
4	1533	293929.48260872678	0
4	1575	304357.318698263189	1
4	1577	304357.318698263189	0
4	1583	304861.164314939361	1
4	1585	304861.164314939361	0
4	1608	307841.71746352536	1
4	1610	307841.71746352536	0
4	1616	308173.569710060113	1
4	1618	308173.569710060113	0
4	1625	310263.416531684899	1
4	1627	310263.416531684899	0
4	1630	310528.746791096154	1
4	1651	311230.551018520909	0
4	1663	314171.158688834755	1
4	1668	314200.305677704325	0
4	1671	314358.651368751645	1
4	1676	314463.834296353124	0
4	1683	317433.052018277701	1
4	1685	317433.052018277701	0
4	1709	322804.792169084626	1
4	1711	322804.792169084626	0
4	1718	324896.10717631864	1
4	1720	324896.10717631864	0
4	1736	332318.660579092627	1
4	1738	332318.660579092627	0
4	1770	337178.977880627937	1
4	1772	337178.977880627937	0
4	1778	338052.689139810595	1
4	1780	338052.689139810595	0
4	1787	339093.170796181115	1
4	1789	339093.170796181115	0
4	1805	346330.293631174664	1
4	1807	346330.293631174664	0
4	1822	350279.343966862184	1
4	1824	350279.343966862184	0
4	1859	364056.528497179395	1
4	1861	364056.528497179395	0
4	1872	364830.427514274616	1
4	1877	364878.646272412554	0
4	1892	366367.420878561564	1
4	1894	366367.420878561564	0
4	1908	368170.765027984395	1
4	1910	368170.765027984395	0
4	1916	368821.412663482403	1
4	1918	368821.412663482403	0
4	1925	371097.487194574447	1
4	1927	371097.487194574447	0
4	1967	377217.719895232298	1
4	1969	377217.719895232298	0
4	1975	377324.190630059253	1
4	2000	378093.130712808674	2
4	2005	378380.91160689295	1
4	2010	378701.304212928753	0
4	2024	379362.459537329066	1
4	2026	379362.459537329066	0
4	2033	381422.17151574176	1
4	2035	381422.17151574176	0
4	2038	381445.057087043896	1
4	2041	381619.35147375198	2
4	2046	381691.593455892754	1
4	2051	381988.96474276922	0
4	2057	383051.709966450146	1
4	2059	383051.709966450146	0
4	2083	389220.175092945171	1
4	2085	389220.175092945171	0
4	2097	390303.076607212258	1
4	2102	390459.880889789082	0
4	2109	393967.67456658809	1
4	2111	393967.67456658809	0
4	2128	402709.547599731023	1
4	2130	402709.547599731023	0
4	2155	412848.882360797109	1
4	2157	412848.882360797109	0
4	2163	413865.903516775707	1
4	2165	413865.903516775707	0
4	2190	421305.92282712919	1
4	2192	421305.92282712919	0
4	2198	421785.232545344069	1
4	2200	421785.232545344069	0
4	2248	426054.019579141599	1
4	2250	426054.019579141599	0
4	2256	426324.19681864361	1
4	2258	426324.19681864361	0
4	2261	426493.908727543268	1
4	2266	426640.019513986688	0
4	2272	428457.612572351398	1
4	2274	428457.612572351398	0
4	2277	428606.805967114721	1
4	2282	428717.718292977268	0
4	2298	434859.051603411319	1
4	2300	434859.051603411319	0
4	2327	447520.91866101408	1
4	2329	447520.91866101408	0
4	2344	451221.00007260585	1
4	2346	451221.00007260585	0
4	2361	454402.377923153526	1
4	2363	454402.377923153526	0
4	2370	456108.761738461112	1
4	2372	456108.761738461112	0
4	2395	460360.784066713285	1
4	2397	460360.784066713285	0
4	2404	464191.888680236217	1
4	2406	464191.888680236217	0
4	2430	469638.600769573762	1
4	2432	469638.600769573762	0
4	2439	472128.708877490662	1
4	2441	472128.708877490662	0
4	2457	477786.948579927336	1
4	2459	477786.948579927336	0
4	2483	484108.898376550949	1
4	2485	484108.898376550949	0
4	2500	487034.76659606018	1
4	2502	487034.76659606018	0
4	2509	489368.043724189027	1
4	2511	489368.043724189027	0
4	2526	494025.694929926586	1
4	2528	494025.694929926586	0
4	2554	504460.709157507376	1
4	2556	504460.709157507376	0
4	2579	507558.608876646702	1
4	2581	507558.608876646702	0
4	2588	510209.771896717523	1
4	2590	510209.771896717523	0
4	2596	511275.718628766604	1
4	2598	511275.718628766604	0
4	2614	516939.885721263814	1
4	2616	516939.885721263814	0
4	2656	522160.229027528721	1
4	2658	522160.229027528721	0
4	2664	523909.193628474262	1
4	2666	523909.193628474262	0
4	2672	524252.724831134179	1
4	2674	524252.724831134179	0
4	2681	526170.651197783325	1
4	2683	526170.651197783325	0
4	2708	535116.659710748719	1
4	2710	535116.659710748719	0
4	2716	536437.258480879837	1
4	2718	536437.258480879837	0
4	2734	541810.864165028421	1
4	2736	541810.864165028421	0
4	2763	557129.104924137014	1
4	2765	557129.104924137014	0
4	2777	559399.343110513157	1
4	2782	559459.974525204651	0
4	2805	563705.356433461697	1
4	2807	563705.356433461697	0
4	2814	565626.717895554336	1
4	2816	565626.717895554336	0
4	2822	566812.267800440056	1
4	2824	566812.267800440056	0
4	2850	576685.271254236555	1
4	2852	576685.271254236555	0
4	2863	577012.100033919668	1
4	2868	577280.946855596601	0
4	2875	580877.536286435013	1
4	2877	580877.536286435013	0
4	2909	585007.623410922917	1
4	2911	585007.623410922917	0
4	2917	585945.133108290234	1
4	2919	585945.133108290234	0
4	2925	586822.850901843796	1
4	2927	586822.850901843796	0
4	2961	597433.656246626982	1
4	2963	597433.656246626982	0
4	2966	597478.517813679814	1
4	2971	597720.533532979243	0
4	2977	598311.339646393998	1
4	2979	598311.339646393998	0
4	3011	604592.304817137688	1
4	3013	604592.304817137688	0
4	3028	607463.960508669979	1
4	3030	607463.960508669979	0
4	3033	607740.432843750467	1
4	3038	607781.237347026109	0
4	3045	609166.950190647471	1
4	3047	609166.950190647471	0
4	3070	614829.144871723099	1
4	3072	614829.144871723099	0
4	3079	617264.477034335641	1
4	3081	617264.477034335641	0
4	3097	622944.099877805333	1
4	3099	622944.099877805333	0
4	3123	628530.623593047953	1
4	3125	628530.623593047953	0
4	3132	630801.464155042868	1
4	3134	630801.464155042868	0
4	3163	636125.995475820513	1
4	3168	636229.833754404137	0
4	3190	638774.675817791894	1
4	3192	638774.675817791894	0
4	3199	639971.999224232268	1
4	3201	639971.999224232268	0
4	3204	640064.778299002158	1
4	3209	640283.516436051835	0
4	3215	641105.359048017256	1
4	3217	641105.359048017256	0
4	3241	647388.880429970871	1
4	3243	647388.880429970871	0
4	3271	650994.202903471333	1
4	3277	651193.281465042039	0
4	3291	651989.963886423042	1
4	3293	651989.963886423042	0
4	3296	652237.302228346157	1
4	3301	652269.646384072887	0
4	3324	654660.889050376996	1
4	3326	654660.889050376996	0
4	3332	655343.084754052797	1
4	3334	655343.084754052797	0
4	3349	657198.637873295575	1
4	3351	657198.637873295575	0
4	3357	658356.47019289318	1
4	3359	658356.47019289318	0
4	3365	659616.758279074705	1
4	3367	659616.758279074705	0
4	3383	665138.812131634748	1
4	3385	665138.812131634748	0
4	3409	670015.466752587123	1
4	3411	670015.466752587123	0
4	3417	670818.650257891043	1
4	3419	670818.650257891043	0
4	3436	678331.595120347151	1
4	3438	678331.595120347151	0
4	3453	683550.036190224873	1
4	3455	683550.036190224873	0
4	3471	688570.308451552936	1
4	3473	688570.308451552936	0
4	3489	695325.475828589218	1
4	3491	695325.475828589218	0
4	3539	700678.272937724098	1
4	3541	700678.272937724098	0
4	3544	700845.255331076815	1
4	3549	700976.085247445639	0
4	3552	701111.255059887415	1
4	3557	701300.340302266965	0
4	3568	701890.792743193293	1
4	3573	701943.03657191502	0
4	3577	702108.532453642303	1
4	3582	702221.456783548301	0
4	3589	705357.222196811467	1
4	3591	705357.222196811467	0
4	3623	711279.500234575108	1
4	3625	711279.500234575108	0
4	3628	711462.929177259543	1
4	3633	711554.491620247377	0
4	3639	712529.228883740152	1
4	3641	712529.228883740152	0
4	3666	720022.542338609378	1
4	3668	720022.542338609378	0
4	3674	721491.694785813333	1
4	3676	721491.694785813333	0
4	3708	727890.113508662397	1
4	3710	727890.113508662397	0
4	3713	727976.073291435704	1
4	3718	728198.665373565156	0
4	3733	730154.182532274755	1
4	3735	730154.182532274755	0
4	3742	732339.744507811976	1
4	3744	732339.744507811976	0
4	3780	737111.221426377226	1
4	3785	737126.040916787821	0
4	3792	738622.168728761765	1
4	3794	738622.168728761765	0
4	3800	739139.353197050194	1
4	3802	739139.353197050194	0
4	3808	740342.495372016404	1
4	3810	740342.495372016404	0
4	3834	745248.678375520297	1
4	3836	745248.678375520297	0
4	3842	745608.020674407271	1
4	3844	745608.020674407271	0
4	3867	749848.999357819816	1
4	3869	749848.999357819816	0
4	3876	750698.573114232698	1
4	3878	750698.573114232698	0
4	3893	755646.880995700383	1
4	3895	755646.880995700383	0
4	3928	764067.045160786938	1
4	3930	764067.045160786938	0
4	3937	765378.457117927448	1
4	3939	765378.457117927448	0
4	3945	766633.799227481591	1
4	3947	766633.799227481591	0
4	3986	770533.856709735809	1
4	3988	770533.856709735809	0
4	3995	771181.163847065337	1
4	3997	771181.163847065337	0
4	4011	773836.141856129447	1
4	4013	773836.141856129447	0
4	4020	774217.108199829759	1
4	4022	774217.108199829759	0
4	4028	776497.852826539951	1
4	4030	776497.852826539951	0
4	4070	782224.2889294038	1
4	4072	782224.2889294038	0
4	4078	782683.125937759844	1
4	4080	782683.125937759844	0
4	4087	783309.638191095768	1
4	4089	783309.638191095768	0
4	4103	784990.794465306579	1
4	4105	784990.794465306579	0
4	4112	787729.992224053853	1
4	4114	787729.992224053853	0
4	4158	804531.29737001791	1
4	4160	804531.29737001791	0
4	4166	805345.035597790702	1
4	4168	805345.035597790702	0
4	4174	806701.113476999715	1
4	4176	806701.113476999715	0
4	4179	806944.5211287127	1
4	4184	806973.145575744867	0
4	4200	812033.279078947895	1
4	4202	812033.279078947895	0
4	4258	818480.314360547129	1
4	4260	818480.314360547129	0
4	4266	818978.099087665045	1
4	4268	818978.099087665045	0
4	4275	820778.010588821789	1
4	4277	820778.010588821789	0
4	4283	821247.175477332725	1
4	4285	821247.175477332725	0
4	4288	821441.399670275297	1
4	4293	821567.217416675449	0
4	4300	822167.558870982349	1
4	4302	822167.558870982349	0
4	4332	832032.320747954051	1
4	4345	832446.938348565676	0
4	4365	835284.053755725478	1
4	4370	835366.322479520854	0
4	4373	835367.807084832232	1
4	4378	835653.965270336832	0
4	4384	835993.855132005707	1
4	4386	835993.855132005707	0
4	4392	836325.200627056731	1
4	4394	836325.200627056731	0
4	4401	839189.441902157387	1
4	4403	839189.441902157387	0
4	4427	844092.687243531291	1
4	4429	844092.687243531291	0
4	4452	847295.590817452345	1
4	4454	847295.590817452345	0
4	4461	849155.077738545143	1
4	4463	849155.077738545143	0
4	4466	849471.188840441456	1
4	4471	849478.239746921598	0
4	4495	855744.530139859323	1
4	4497	855744.530139859323	0
4	4504	858982.281726832069	1
4	4506	858982.281726832069	0
4	4522	865238.357499883073	1
4	4524	865238.357499883073	0
4	4557	873791.493490556196	1
4	4559	873791.493490556196	0
4	4565	874143.989964930425	1
4	4567	874143.989964930425	0
4	4594	875992.437218259928	1
4	4600	876129.996047277094	0
4	4606	878542.426876873289	1
4	4608	878542.426876873289	0
4	4615	879209.696692918632	1
4	4617	879209.696692918632	0
4	4623	879880.322828409725	1
4	4625	879880.322828409725	0
4	4649	885779.432021699293	1
4	4651	885779.432021699293	0
4	4657	887231.535372021817	1
4	4659	887231.535372021817	0
4	4684	894531.687326542541	1
4	4686	894531.687326542541	0
4	4692	894879.928512898567	1
4	4694	894879.928512898567	0
4	4726	902334.879201020329	1
4	4728	902334.879201020329	0
4	4739	902853.972571479683	1
4	4744	902886.191879414118	0
4	4759	904849.18457230114	1
4	4761	904849.18457230114	0
4	4768	906716.069547078108	1
4	4770	906716.069547078108	0
4	4776	907539.294433145482	1
4	4778	907539.294433145482	0
4	4795	915216.108410551748	1
4	4797	915216.108410551748	0
4	4835	924137.270799798967	1
4	4840	924341.686097036205	0
4	4843	924584.418238936648	1
4	4848	924654.452302454901	0
4	4854	926155.088863242654	1
4	4856	926155.088863242654	0
4	4863	927380.906549465731	1
4	4865	927380.906549465731	0
4	4904	932770.119598556826	1
4	4906	932770.119598556826	0
4	4909	932910.25383899058	1
4	4915	933102.701685175376	0
4	4921	934558.064201174338	1
4	4923	934558.064201174338	0
4	4929	935918.394584723702	1
4	4931	935918.394584723702	0
4	4947	940003.876517312908	1
4	4949	940003.876517312908	0
4	4965	946115.56618627213	1
4	4967	946115.56618627213	0
4	4995	950886.383710103647	1
4	5000	950936.969919899301	0
4	5029	954532.997910654979	1
4	5034	954592.166864530384	0
4	5040	954889.522361879971	1
4	5042	954889.522361879971	0
4	5048	955740.277865994256	1
4	5050	955740.277865994256	0
4	5073	957531.831763631361	1
4	5075	957531.831763631361	0
4	5081	958120.056431358435	1
4	5083	958120.056431358435	0
4	5097	959971.195303732924	1
4	5099	959971.195303732924	0
4	5111	960651.378528460336	1
4	5116	960859.344433963474	0
4	5130	962845.74419077515	1
4	5132	962845.74419077515	0
4	5147	964530.465576692882	1
4	5149	964530.465576692882	0
4	5155	965098.808669496235	1
4	5157	965098.808669496235	0
4	5164	966929.988263530383	1
4	5166	966929.988263530383	0
4	5203	972547.019589478901	1
4	5208	972584.740217758289	0
4	5219	974901.921562258844	1
4	5222	974902.294839295156	2
4	5227	974954.047185576043	1
4	5233	975215.895671365282	0
4	5239	976139.597113992884	1
4	5241	976139.597113992884	0
4	5248	978155.088626148883	1
4	5250	978155.088626148883	0
4	5265	983992.932641005806	1
4	5267	983992.932641005806	0
4	5284	990175.286868566326	1
4	5286	990175.286868566326	0
4	5323	996800.375161850171	1
4	5328	996989.033615780637	0
4	5334	997568.023868015782	1
4	5336	997568.023868015782	0
4	5347	998385.03230305358	1
4	5360	998866.164784552894	0
4	5367	1000517.539856437437	1
4	5369	1000517.539856437437	0
4	5384	1002318.893424090497	1
4	5386	1002318.893424090497	0
4	5389	1002438.858300274028	1
4	5394	1002657.974498205458	0
4	5409	1006337.408576579439	1
4	5411	1006337.408576579439	0
4	5426	1008894.680579161394	1
4	5428	1008894.680579161394	0
4	5443	1011619.470485910035	1
4	5445	1011619.470485910035	0
4	5452	1015285.60808461231	1
4	5454	1015285.60808461231	0
4	5485	1019536.794906248311	1
4	5487	1019536.794906248311	0
4	5494	1021348.843308649849	1
4	5496	1021348.843308649849	0
4	5515	1022041.153921578217	1
4	5520	1022331.841013105261	0
4	5535	1025354.788281649682	1
4	5537	1025354.788281649682	0
4	5543	1025641.911279533089	1
4	5553	1025981.640151370612	0
4	5565	1028505.779477915111	1
4	5570	1028574.560515628799	0
4	5582	1029625.479172487312	1
4	5587	1029833.704481476245	0
4	5601	1031886.058783810123	1
4	5603	1031886.058783810123	0
4	5615	1033716.191418398248	1
4	5620	1033795.85378703871	0
4	5626	1034472.827355134399	1
4	5628	1034472.827355134399	0
5	585	123000	0
5	594	126000	1
5	611	129000	1
5	625	132000	0
5	637	135000	2
5	654	138000	1
5	679	141000	1
5	688	144000	0
5	689	147000	0
5	690	150000	0
5	699	153000	1
5	716	156000	1
5	733	159000	1
5	742	162000	0
5	743	165000	0
5	744	168000	0
5	753	171000	1
5	762	174000	0
5	763	177000	0
5	764	180000	0
5	770	183000	0
5	774	186000	1
5	815	189000	4
5	840	192000	0
5	857	195000	1
5	874	198000	1
5	899	201000	2
5	913	204000	0
5	925	207000	1
5	950	210000	2
5	967	213000	0
5	976	216000	1
5	1001	219000	2
5	1018	222000	0
5	1019	225000	0
5	1044	228000	2
5	1069	231000	3
5	1126	234000	3
5	1151	237000	1
5	1168	240000	0
5	1177	243000	1
5	1186	246000	0
5	1187	249000	0
5	1196	252000	1
5	1226	255000	2
5	1246	258000	1
5	1271	261000	2
5	1301	264000	2
5	1321	267000	1
5	1354	270000	2
5	1371	273000	0
5	1396	276000	3
5	1434	279000	3
5	1494	282000	3
5	1511	285000	0
5	1520	288000	0
5	1529	291000	1
5	1535	294000	0
5	1539	297000	0
5	1540	300000	0
5	1557	303000	2
5	1590	306000	2
5	1623	309000	2
5	1656	312000	2
5	1681	315000	1
5	1690	318000	0
5	1707	321000	2
5	1716	324000	0
5	1725	327000	0
5	1734	330000	1
5	1743	333000	0
5	1768	336000	3
5	1785	339000	0
5	1794	342000	0
5	1803	345000	1
5	1820	348000	1
5	1829	351000	0
5	1830	354000	0
5	1831	357000	0
5	1832	360000	0
5	1857	363000	3
5	1890	366000	2
5	1920	369000	1
5	1932	372000	0
5	1957	375000	3
5	1993	378000	2
5	2031	381000	3
5	2064	384000	0
5	2081	387000	2
5	2090	390000	0
5	2107	393000	1
5	2116	396000	0
5	2122	399000	0
5	2126	402000	1
5	2135	405000	0
5	2136	408000	0
5	2153	411000	2
5	2167	414000	0
5	2171	417000	0
5	2188	420000	2
5	2226	423000	2
5	2246	426000	3
5	2284	429000	0
5	2296	432000	1
5	2302	435000	0
5	2306	438000	0
5	2307	441000	0
5	2308	444000	0
5	2322	447000	1
5	2334	450000	1
5	2356	453000	1
5	2368	456000	1
5	2385	459000	1
5	2402	462000	1
5	2411	465000	0
5	2425	468000	1
5	2437	471000	1
5	2446	474000	0
5	2455	477000	1
5	2464	480000	0
5	2478	483000	1
5	2498	486000	2
5	2507	489000	0
5	2524	492000	1
5	2533	495000	0
5	2534	498000	0
5	2540	501000	0
5	2544	504000	1
5	2574	507000	2
5	2586	510000	1
5	2603	513000	0
5	2612	516000	1
5	2629	519000	1
5	2651	522000	2
5	2679	525000	1
5	2688	528000	0
5	2689	531000	0
5	2706	534000	2
5	2723	537000	0
5	2732	540000	1
5	2741	543000	0
5	2742	546000	0
5	2743	549000	0
5	2744	552000	0
5	2753	555000	1
5	2770	558000	1
5	2787	561000	1
5	2812	564000	2
5	2826	567000	0
5	2830	570000	0
5	2831	573000	0
5	2848	576000	2
5	2873	579000	1
5	2895	582000	1
5	2907	585000	2
5	2932	588000	0
5	2933	591000	0
5	2950	594000	1
5	2959	597000	2
5	2984	600000	0
5	2993	603000	1
5	3026	606000	3
5	3043	609000	0
5	3060	612000	1
5	3074	615000	1
5	3086	618000	0
5	3095	621000	1
5	3104	624000	0
5	3121	627000	2
5	3130	630000	0
5	3147	633000	1
5	3161	636000	1
5	3194	639000	3
5	3222	642000	0
5	3231	645000	1
5	3248	648000	1
5	3273	651000	2
5	3314	654000	3
5	3347	657000	2
5	3372	660000	0
5	3381	663000	1
5	3398	666000	1
5	3407	669000	1
5	3424	672000	0
5	3433	675000	1
5	3434	678000	0
5	3451	681000	1
5	3460	684000	0
5	3469	687000	1
5	3478	690000	0
5	3487	693000	1
5	3496	696000	0
5	3537	699000	5
5	3575	702000	1
5	3587	705000	0
5	3601	708000	0
5	3621	711000	3
5	3646	714000	0
5	3655	717000	1
5	3664	720000	1
5	3681	723000	0
5	3698	726000	2
5	3731	729000	2
5	3740	732000	0
5	3762	735000	1
5	3790	738000	3
5	3820	741000	0
5	3832	744000	2
5	3857	747000	1
5	3871	750000	1
5	3891	753000	1
5	3900	756000	0
5	3901	759000	0
5	3918	762000	2
5	3935	765000	1
5	3965	768000	1
5	3993	771000	3
5	4015	774000	1
5	4035	777000	0
5	4060	780000	3
5	4085	783000	1
5	4110	786000	1
5	4119	789000	0
5	4120	792000	0
5	4121	795000	0
5	4122	798000	0
5	4131	801000	1
5	4156	804000	3
5	4186	807000	0
5	4198	810000	1
5	4207	813000	0
5	4224	816000	2
5	4270	819000	4
5	4298	822000	0
5	4307	825000	0
5	4308	828000	0
5	4317	831000	1
5	4358	834000	4
5	4399	837000	1
5	4413	840000	0
5	4417	843000	1
5	4442	846000	2
5	4459	849000	1
5	4476	852000	0
5	4485	855000	1
5	4502	858000	1
5	4511	861000	0
5	4520	864000	1
5	4529	867000	0
5	4530	870000	0
5	4555	873000	3
5	4596	876000	2
5	4613	879000	1
5	4635	882000	0
5	4647	885000	2
5	4664	888000	0
5	4670	891000	0
5	4682	894000	2
5	4699	897000	0
5	4716	900000	2
5	4746	903000	2
5	4766	906000	1
5	4783	909000	0
5	4792	912000	1
5	4793	915000	0
5	4802	918000	0
5	4816	921000	1
5	4828	924000	2
5	4861	927000	1
5	4886	930000	2
5	4911	933000	2
5	4933	936000	0
5	4945	939000	1
5	4954	942000	0
5	4963	945000	1
5	4980	948000	1
5	5002	951000	2
5	5022	954000	1
5	5063	957000	3
5	5101	960000	2
5	5134	963000	2
5	5162	966000	1
5	5176	969000	0
5	5196	972000	3
5	5229	975000	2
5	5246	978000	0
5	5263	981000	1
5	5269	984000	0
5	5281	987000	1
5	5282	990000	0
5	5296	993000	0
5	5316	996000	3
5	5362	999000	3
5	5379	1002000	0
5	5399	1005000	1
5	5424	1008000	2
5	5433	1011000	0
5	5450	1014000	1
5	5467	1017000	1
5	5492	1020000	2
5	5525	1023000	2
5	5555	1026000	2
5	5575	1029000	1
5	5605	1032000	2
5	5633	1035000	1
6	585	123000	1
6	594	126000	0
6	611	129000	1
6	625	132000	1
6	637	135000	0
6	654	138000	1
6	679	141000	2
6	688	144000	1
6	689	147000	0
6	690	150000	0
6	699	153000	0
6	716	156000	1
6	733	159000	1
6	742	162000	1
6	743	165000	0
6	744	168000	0
6	753	171000	0
6	762	174000	1
6	763	177000	0
6	764	180000	0
6	770	183000	0
6	774	186000	0
6	815	189000	1
6	840	192000	2
6	857	195000	2
6	874	198000	1
6	899	201000	1
6	913	204000	1
6	925	207000	1
6	950	210000	1
6	967	213000	2
6	976	216000	0
6	1001	219000	1
6	1018	222000	2
6	1019	225000	0
6	1044	228000	0
6	1069	231000	1
6	1126	234000	3
6	1151	237000	3
6	1168	240000	2
6	1177	243000	0
6	1186	246000	1
6	1187	249000	0
6	1196	252000	0
6	1226	255000	1
6	1246	258000	2
6	1271	261000	1
6	1301	264000	1
6	1321	267000	2
6	1354	270000	2
6	1371	273000	2
6	1396	276000	0
6	1434	279000	1
6	1494	282000	5
6	1511	285000	2
6	1520	288000	1
6	1529	291000	0
6	1535	294000	0
6	1539	297000	1
6	1540	300000	0
6	1557	303000	0
6	1590	306000	2
6	1623	309000	2
6	1656	312000	2
6	1681	315000	2
6	1690	318000	1
6	1707	321000	0
6	1716	324000	1
6	1725	327000	1
6	1734	330000	0
6	1743	333000	1
6	1768	336000	0
6	1785	339000	2
6	1794	342000	1
6	1803	345000	0
6	1820	348000	1
6	1829	351000	1
6	1830	354000	0
6	1831	357000	0
6	1832	360000	0
6	1857	363000	0
6	1890	366000	2
6	1920	369000	2
6	1932	372000	2
6	1957	375000	0
6	1993	378000	1
6	2031	381000	3
6	2064	384000	4
6	2081	387000	0
6	2090	390000	1
6	2107	393000	1
6	2116	396000	1
6	2122	399000	0
6	2126	402000	0
6	2135	405000	1
6	2136	408000	0
6	2153	411000	0
6	2167	414000	1
6	2171	417000	1
6	2188	420000	0
6	2226	423000	2
6	2246	426000	0
6	2284	429000	4
6	2296	432000	1
6	2302	435000	0
6	2306	438000	1
6	2307	441000	0
6	2308	444000	0
6	2322	447000	0
6	2334	450000	1
6	2356	453000	1
6	2368	456000	1
6	2385	459000	1
6	2402	462000	1
6	2411	465000	1
6	2425	468000	0
6	2437	471000	1
6	2446	474000	1
6	2455	477000	0
6	2464	480000	1
6	2478	483000	0
6	2498	486000	1
6	2507	489000	1
6	2524	492000	1
6	2533	495000	1
6	2534	498000	0
6	2540	501000	0
6	2544	504000	0
6	2574	507000	1
6	2586	510000	1
6	2603	513000	2
6	2612	516000	0
6	2629	519000	1
6	2651	522000	0
6	2679	525000	3
6	2688	528000	1
6	2689	531000	0
6	2706	534000	0
6	2723	537000	2
6	2732	540000	0
6	2741	543000	1
6	2742	546000	0
6	2743	549000	0
6	2744	552000	0
6	2753	555000	0
6	2770	558000	1
6	2787	561000	1
6	2812	564000	1
6	2826	567000	1
6	2830	570000	1
6	2831	573000	0
6	2848	576000	0
6	2873	579000	2
6	2895	582000	1
6	2907	585000	0
6	2932	588000	3
6	2933	591000	0
6	2950	594000	0
6	2959	597000	0
6	2984	600000	3
6	2993	603000	0
6	3026	606000	1
6	3043	609000	2
6	3060	612000	1
6	3074	615000	0
6	3086	618000	2
6	3095	621000	0
6	3104	624000	1
6	3121	627000	0
6	3130	630000	1
6	3147	633000	1
6	3161	636000	0
6	3194	639000	1
6	3222	642000	4
6	3231	645000	0
6	3248	648000	1
6	3273	651000	0
6	3314	654000	3
6	3347	657000	2
6	3372	660000	3
6	3381	663000	0
6	3398	666000	1
6	3407	669000	0
6	3424	672000	2
6	3433	675000	0
6	3434	678000	0
6	3451	681000	1
6	3460	684000	1
6	3469	687000	0
6	3478	690000	1
6	3487	693000	0
6	3496	696000	1
6	3537	699000	0
6	3575	702000	3
6	3587	705000	2
6	3601	708000	1
6	3621	711000	0
6	3646	714000	3
6	3655	717000	0
6	3664	720000	0
6	3681	723000	2
6	3698	726000	0
6	3731	729000	2
6	3740	732000	1
6	3762	735000	1
6	3790	738000	1
6	3820	741000	3
6	3832	744000	0
6	3857	747000	2
6	3871	750000	0
6	3891	753000	2
6	3900	756000	1
6	3901	759000	0
6	3918	762000	0
6	3935	765000	1
6	3965	768000	2
6	3993	771000	1
6	4015	774000	1
6	4035	777000	3
6	4060	780000	0
6	4085	783000	2
6	4110	786000	2
6	4119	789000	1
6	4120	792000	0
6	4121	795000	0
6	4122	798000	0
6	4131	801000	0
6	4156	804000	0
6	4186	807000	3
6	4198	810000	1
6	4207	813000	1
6	4224	816000	0
6	4270	819000	1
6	4298	822000	4
6	4307	825000	1
6	4308	828000	0
6	4317	831000	0
6	4358	834000	1
6	4399	837000	4
6	4413	840000	1
6	4417	843000	0
6	4442	846000	1
6	4459	849000	1
6	4476	852000	2
6	4485	855000	0
6	4502	858000	1
6	4511	861000	1
6	4520	864000	0
6	4529	867000	1
6	4530	870000	0
6	4555	873000	0
6	4596	876000	2
6	4613	879000	2
6	4635	882000	2
6	4647	885000	0
6	4664	888000	2
6	4670	891000	0
6	4682	894000	0
6	4699	897000	2
6	4716	900000	0
6	4746	903000	1
6	4766	906000	2
6	4783	909000	2
6	4792	912000	0
6	4793	915000	0
6	4802	918000	1
6	4816	921000	0
6	4828	924000	0
6	4861	927000	3
6	4886	930000	1
6	4911	933000	0
6	4933	936000	3
6	4945	939000	1
6	4954	942000	1
6	4963	945000	0
6	4980	948000	1
6	5002	951000	0
6	5022	954000	1
6	5063	957000	3
6	5101	960000	2
6	5134	963000	2
6	5162	966000	3
6	5176	969000	1
6	5196	972000	0
6	5229	975000	1
6	5246	978000	3
6	5263	981000	1
6	5269	984000	0
6	5281	987000	1
6	5282	990000	0
6	5296	993000	1
6	5316	996000	0
6	5362	999000	2
6	5379	1002000	2
6	5399	1005000	2
6	5424	1008000	1
6	5433	1011000	1
6	5450	1014000	1
6	5467	1017000	1
6	5492	1020000	1
6	5525	1023000	2
6	5555	1026000	1
6	5575	1029000	2
6	5605	1032000	1
6	5633	1035000	3
7	577	121715.336693319046	0
7	592	123395.555600720683	1
7	595	127218.431367028342	0
7	609	128565.863191279339	1
7	612	131267.071267868293	0
7	627	132137.74673834899	1
7	635	134847.985275974274	2
7	638	135345.773219955717	1
7	652	136846.841823461484	2
7	655	138532.497454139774	1
7	669	139530.266286020585	2
7	671	140365.721102409419	1
7	680	142620.182846138857	0
7	697	151906.795489854746	1
7	706	154000.836784923127	2
7	708	155673.243397277278	1
7	723	156378.937705311833	2
7	725	156672.206176940883	1
7	734	159882.151700641222	0
7	751	169176.45628566201	1
7	754	173097.186705851193	0
7	772	183163.338225343235	1
7	781	186649.848375681025	2
7	783	187013.263523783284	1
7	800	187680.326672179286	2
7	808	188010.681372603967	3
7	813	188291.425862963223	4
7	816	190591.438386877316	3
7	824	191535.269284768051	2
7	829	191607.853966373973	1
7	837	191914.448498114393	0
7	855	192671.523157376714	1
7	858	196287.487554365329	0
7	872	196918.643288080528	1
7	881	198637.253444868442	2
7	889	200483.781916421639	3
7	891	200676.314011349084	2
7	900	201908.938799566455	1
7	914	204203.471130929213	0
7	918	204230.042887844136	1
7	926	207738.586853360257	0
7	940	208345.138183129306	1
7	948	209767.437556383376	2
7	951	212217.841600936761	1
7	959	212550.332851500026	0
7	974	214178.764942082757	1
7	983	216698.046960965307	2
7	991	218123.005491241757	3
7	993	218191.989618027041	2
7	1002	220031.824358002752	1
7	1010	221574.237908825383	0
7	1026	226318.202008939188	1
7	1040	227795.713195021188	2
7	1046	228078.442002928069	3
7	1051	228377.967637954411	4
7	1059	229573.229838708955	5
7	1061	229804.084511789139	4
7	1070	232055.963534105594	3
7	1075	232139.417840961304	2
7	1078	232293.733403568604	1
7	1097	232827.736352746921	0
7	1101	232897.744007289021	1
7	1109	233227.96793595562	2
7	1114	233471.166750606148	3
7	1133	234384.355687233127	4
7	1135	236345.786953486371	3
7	1140	236479.102949792525	2
7	1152	237842.005966038546	1
7	1157	237907.694006234987	0
7	1175	241230.679068662126	1
7	1178	245227.191562673056	0
7	1194	250081.897232573236	1
7	1206	252319.841994410262	2
7	1211	252641.171878507477	3
7	1213	253658.356018522176	2
7	1228	255199.312008742623	3
7	1230	255846.401712728706	2
7	1235	255969.649971710246	1
7	1247	258629.439664201279	0
7	1264	259292.424320643276	1
7	1269	259601.277496744628	2
7	1277	262798.983231102962	1
7	1281	262964.367638389161	2
7	1293	263491.060667531607	1
7	1297	263687.699003238093	2
7	1311	265286.983464566104	3
7	1313	266367.202288002292	2
7	1322	267165.140744980308	1
7	1336	267885.902407995359	2
7	1344	268245.28221369158	3
7	1346	268646.157811160098	2
7	1355	272120.070177252528	1
7	1360	272192.048325282783	0
7	1381	274661.81625804409	1
7	1389	275010.616187069418	2
7	1394	275326.942435318497	3
7	1406	276672.689515600809	4
7	1411	276986.899918938183	5
7	1419	277836.646830679091	6
7	1421	278214.992244906653	5
7	1429	278669.835023693527	4
7	1444	279545.455301810818	5
7	1446	279545.78233171958	4
7	1460	280224.706683436367	5
7	1462	280761.699609795115	4
7	1475	281263.889329141646	3
7	1479	281337.887729418464	4
7	1483	281513.559275783654	3
7	1495	283169.373736108773	2
7	1503	283819.507892827583	1
7	1512	285746.537264485653	0
7	1527	290323.45142350126	1
7	1530	293929.48260872678	0
7	1547	301049.617641869256	1
7	1555	301666.760371917697	2
7	1567	303906.399604787034	3
7	1572	304281.090298888297	4
7	1574	304357.318698263189	3
7	1582	304861.164314939361	2
7	1597	306537.973974114593	3
7	1605	307062.509824276476	4
7	1607	307841.71746352536	3
7	1615	308173.569710060113	2
7	1624	310263.416531684899	1
7	1629	310528.746791096154	0
7	1644	310894.905889026246	1
7	1649	311230.551018520909	2
7	1662	314171.158688834755	1
7	1666	314200.305677704325	2
7	1670	314358.651368751645	1
7	1682	317433.052018277701	0
7	1697	318915.884940213885	1
7	1705	320786.347769336295	2
7	1708	322804.792169084626	1
7	1717	324896.10717631864	0
7	1732	328966.808310300224	1
7	1735	332318.660579092627	0
7	1750	333527.579313673815	1
7	1758	333967.858426419264	2
7	1766	335505.749285475408	3
7	1769	337178.977880627937	2
7	1777	338052.689139810595	1
7	1786	339093.170796181115	0
7	1801	343094.788383905505	1
7	1804	346330.293631174664	0
7	1818	346930.256552230022	1
7	1821	350279.343966862184	0
7	1839	360358.56052536706	1
7	1847	361259.243053785738	2
7	1855	362415.065002973364	3
7	1858	364056.528497179395	2
7	1871	364830.427514274616	1
7	1875	364878.646272412554	2
7	1888	365714.121811372077	3
7	1891	366367.420878561564	2
7	1905	367829.109050060086	3
7	1907	368170.765027984395	2
7	1915	368821.412663482403	1
7	1924	371097.487194574447	0
7	1942	373132.034590325417	1
7	1947	373413.63020955416	2
7	1955	373746.9773827804	3
7	1964	375636.840928885111	4
7	1966	377217.719895232298	3
7	1974	377324.190630059253	2
7	1989	377779.853813017037	3
7	1995	378020.74006001751	4
7	1999	378093.130712808674	3
7	2003	378380.91160689295	4
7	2021	379339.581893293781	5
7	2023	379362.459537329066	4
7	2032	381422.17151574176	3
7	2037	381445.057087043896	2
7	2040	381619.35147375198	1
7	2056	383051.709966450146	0
7	2071	385674.880547921451	1
7	2079	386617.389724849271	2
7	2082	389220.175092945171	1
7	2096	390303.076607212258	0
7	2100	390459.880889789082	1
7	2108	393967.67456658809	0
7	2124	399162.168254231311	1
7	2127	402709.547599731023	0
7	2143	409350.41059377486	1
7	2151	409881.724968015223	2
7	2154	412848.882360797109	1
7	2162	413865.903516775707	0
7	2178	417687.396852892178	1
7	2186	418152.258734278698	2
7	2189	421305.92282712919	1
7	2197	421785.232545344069	0
7	2214	422609.268610659736	1
7	2222	422883.911559865276	2
7	2228	423192.703271236573	3
7	2236	424507.623234093205	4
7	2244	425343.333506417182	5
7	2247	426054.019579141599	4
7	2255	426324.19681864361	3
7	2260	426493.908727543268	2
7	2271	428457.612572351398	1
7	2276	428606.805967114721	0
7	2294	431323.096286000082	1
7	2297	434859.051603411319	0
7	2315	444235.251826430043	1
7	2324	447072.416910464813	2
7	2326	447520.91866101408	1
7	2341	450345.774946718387	2
7	2343	451221.00007260585	1
7	2358	453078.632754605733	2
7	2360	454402.377923153526	1
7	2369	456108.761738461112	0
7	2383	456684.658591293333	1
7	2392	460355.945212593513	2
7	2394	460360.784066713285	1
7	2403	464191.888680236217	0
7	2418	465698.269715311329	1
7	2427	468158.206416309137	2
7	2429	469638.600769573762	1
7	2438	472128.708877490662	0
7	2453	474412.886742743268	1
7	2456	477786.948579927336	0
7	2471	481089.529300109099	1
7	2480	483085.793308807406	2
7	2482	484108.898376550949	1
7	2496	485630.300047855989	2
7	2499	487034.76659606018	1
7	2508	489368.043724189027	0
7	2522	490225.547513619602	1
7	2525	494025.694929926586	0
7	2542	501067.987352853834	1
7	2551	504351.218971177131	2
7	2553	504460.709157507376	1
7	2570	506871.69507865597	2
7	2576	507194.690990196839	3
7	2578	507558.608876646702	2
7	2587	510209.771896717523	1
7	2595	511275.718628766604	0
7	2610	513854.11304337454	1
7	2613	516939.885721263814	0
7	2627	518249.483910651039	1
7	2639	520443.518655043894	2
7	2644	520670.004721414594	3
7	2653	522007.781878356696	4
7	2655	522160.229027528721	3
7	2663	523909.193628474262	2
7	2671	524252.724831134179	1
7	2680	526170.651197783325	0
7	2696	531738.556650308109	1
7	2704	532827.11255455196	2
7	2707	535116.659710748719	1
7	2715	536437.258480879837	0
7	2730	537478.27691479372	1
7	2733	541810.864165028421	0
7	2751	554100.428409538231	1
7	2760	555874.13652102105	2
7	2762	557129.104924137014	1
7	2776	559399.343110513157	0
7	2780	559459.974525204651	1
7	2794	562065.550828920052	2
7	2802	562972.290096085223	3
7	2804	563705.356433461697	2
7	2813	565626.717895554336	1
7	2821	566812.267800440056	0
7	2841	573360.792668015079	1
7	2846	573602.091642714541	2
7	2849	576685.271254236555	1
7	2862	577012.100033919668	0
7	2866	577280.946855596601	1
7	2874	580877.536286435013	0
7	2891	581768.618245464914	1
7	2897	582062.500352083419	2
7	2905	582515.876903919242	3
7	2908	585007.623410922917	2
7	2916	585945.133108290234	1
7	2924	586822.850901843796	0
7	2943	593865.256008345258	1
7	2952	594151.628143185561	2
7	2957	594487.307161003891	3
7	2960	597433.656246626982	2
7	2965	597478.517813679814	1
7	2976	598311.339646393998	0
7	2991	601048.626740238014	1
7	3003	604001.616682895222	2
7	3008	604359.176699835637	3
7	3010	604592.304817137688	2
7	3024	605987.967063344539	3
7	3027	607463.960508669979	2
7	3032	607740.432843750467	1
7	3044	609166.950190647471	0
7	3058	611076.90330621913	1
7	3067	613882.299206699235	2
7	3069	614829.144871723099	1
7	3078	617264.477034335641	0
7	3093	619482.089105784454	1
7	3096	622944.099877805333	0
7	3111	625139.927297292411	1
7	3119	626952.81144729799	2
7	3122	628530.623593047953	1
7	3131	630801.464155042868	0
7	3145	632669.849298955326	1
7	3154	635246.085988943608	2
7	3162	636125.995475820513	1
7	3166	636229.833754404137	2
7	3179	637232.849780361608	3
7	3187	637572.954969946507	4
7	3189	638774.675817791894	3
7	3198	639971.999224232268	2
7	3203	640064.778299002158	1
7	3214	641105.359048017256	0
7	3229	643971.916352523177	1
7	3238	646939.893680029707	2
7	3240	647388.880429970871	1
7	3258	648577.417905407792	2
7	3263	648817.77515778266	3
7	3270	650994.202903471333	2
7	3275	651193.281465042039	3
7	3288	651792.51113130482	4
7	3290	651989.963886423042	3
7	3295	652237.302228346157	2
7	3312	653101.559734477147	3
7	3321	654441.267881309054	4
7	3323	654660.889050376996	3
7	3331	655343.084754052797	2
7	3345	656107.07124163458	3
7	3348	657198.637873295575	2
7	3356	658356.47019289318	1
7	3364	659616.758279074705	0
7	3379	661037.682618358152	1
7	3382	665138.812131634748	0
7	3396	665807.386887043088	1
7	3405	667091.453245912837	2
7	3408	670015.466752587123	1
7	3416	670818.650257891043	0
7	3431	674986.646741413481	1
7	3435	678331.595120347151	0
7	3449	679851.634888447552	1
7	3452	683550.036190224873	0
7	3467	684639.647754067128	1
7	3470	688570.308451552936	0
7	3485	691899.187656846216	1
7	3488	695325.475828589218	0
7	3503	696649.241303934035	1
7	3514	697273.840329292324	2
7	3519	697589.300312832162	3
7	3527	698224.137898418715	4
7	3535	698794.601418335013	5
7	3538	700678.272937724098	4
7	3543	700845.255331076815	3
7	3551	701111.255059887415	2
7	3567	701890.792743193293	1
7	3571	701943.03657191502	2
7	3576	702108.532453642303	1
7	3588	705357.222196811467	0
7	3606	708067.723877293345	1
7	3611	708319.567136931784	2
7	3619	709266.414002913386	3
7	3622	711279.500234575108	2
7	3627	711462.929177259543	1
7	3638	712529.228883740152	0
7	3653	716747.011170929182	1
7	3662	717780.99513509633	2
7	3665	720022.542338609378	1
7	3673	721491.694785813333	0
7	3691	724173.923132858733	1
7	3696	724459.863257509645	2
7	3705	726428.046011541868	3
7	3707	727890.113508662397	2
7	3712	727976.073291435704	1
7	3729	728806.400891821692	2
7	3732	730154.182532274755	1
7	3741	732339.744507811976	0
7	3755	733435.355612226631	1
7	3764	735009.688459608015	2
7	3772	735562.435592018094	3
7	3779	737111.221426377226	2
7	3783	737126.040916787821	3
7	3791	738622.168728761765	2
7	3799	739139.353197050194	1
7	3807	740342.495372016404	0
7	3822	741330.504833947706	1
7	3830	742100.28833938568	2
7	3833	745248.678375520297	1
7	3841	745608.020674407271	0
7	3855	746196.300368133692	1
7	3864	747577.686148869986	2
7	3866	749848.999357819816	1
7	3875	750698.573114232698	0
7	3889	752117.500362548044	1
7	3892	755646.880995700383	0
7	3908	760425.851715291137	1
7	3916	761955.469082918436	2
7	3925	762725.928209992749	3
7	3927	764067.045160786938	2
7	3936	765378.457117927448	1
7	3944	766633.799227481591	0
7	3958	767218.805868468416	1
7	3967	768148.597447007149	2
7	3978	769981.288439353797	3
7	3983	770289.248561141234	4
7	3985	770533.856709735809	3
7	3994	771181.163847065337	2
7	4008	772597.366189263359	3
7	4010	773836.141856129447	2
7	4019	774217.108199829759	1
7	4027	776497.852826539951	0
7	4045	779143.367354338697	1
7	4050	779441.083302443097	2
7	4058	779996.989622815598	3
7	4067	781336.95139353826	4
7	4069	782224.2889294038	3
7	4077	782683.125937759844	2
7	4086	783309.638191095768	1
7	4100	783990.016271500873	2
7	4102	784990.794465306579	1
7	4111	787729.992224053853	0
7	4129	800377.181263763405	1
7	4138	801535.055900795272	2
7	4149	803072.801801565432	3
7	4154	803416.330756106756	4
7	4157	804531.29737001791	3
7	4165	805345.035597790702	2
7	4173	806701.113476999715	1
7	4178	806944.5211287127	0
7	4196	808479.81149647089	1
7	4199	812033.279078947895	0
7	4214	814113.816539778419	1
7	4222	815494.297318844724	2
7	4234	817277.947283894082	3
7	4239	817602.836914234866	4
7	4247	817995.209224404565	5
7	4255	818435.980868358207	6
7	4257	818480.314360547129	5
7	4265	818978.099087665045	4
7	4274	820778.010588821789	3
7	4282	821247.175477332725	2
7	4287	821441.399670275297	1
7	4299	822167.558870982349	0
7	4315	828742.540594189469	1
7	4327	831859.737408376684	2
7	4331	832032.320747954051	1
7	4338	832138.074768595064	2
7	4343	832446.938348565676	3
7	4356	832986.539936879278	4
7	4364	835284.053755725478	3
7	4368	835366.322479520854	4
7	4372	835367.807084832232	3
7	4383	835993.855132005707	2
7	4391	836325.200627056731	1
7	4400	839189.441902157387	0
7	4415	840249.187144586441	1
7	4424	843742.073138023702	2
7	4426	844092.687243531291	1
7	4440	845715.873343678437	2
7	4449	846476.630010892188	3
7	4451	847295.590817452345	2
7	4460	849155.077738545143	1
7	4465	849471.188840441456	0
7	4483	853030.306012146604	1
7	4492	855404.194570300696	2
7	4494	855744.530139859323	1
7	4503	858982.281726832069	0
7	4518	861946.357144153883	1
7	4521	865238.357499883073	0
7	4540	870399.599966200172	1
7	4545	870619.342993051275	2
7	4553	872553.24714925961	3
7	4556	873791.493490556196	2
7	4564	874143.989964930425	1
7	4578	874922.823805552695	2
7	4586	875515.293756498884	3
7	4593	875992.437218259928	2
7	4598	876129.996047277094	3
7	4605	878542.426876873289	2
7	4614	879209.696692918632	1
7	4622	879880.322828409725	0
7	4637	882251.450218782116	1
7	4645	883344.760246367782	2
7	4648	885779.432021699293	1
7	4656	887231.535372021817	0
7	4672	891018.83688167309	1
7	4680	891519.741247141282	2
7	4683	894531.687326542541	1
7	4691	894879.928512898567	0
7	4706	898399.589012229984	1
7	4714	898986.165494096977	2
7	4723	901450.596616306395	3
7	4725	902334.879201020329	2
7	4738	902853.972571479683	1
7	4742	902886.191879414118	2
7	4756	904518.862921371049	3
7	4758	904849.18457230114	2
7	4767	906716.069547078108	1
7	4775	907539.294433145482	0
7	4790	911990.251217674352	1
7	4794	915216.108410551748	0
7	4812	920854.017466504017	1
7	4818	921166.389383136429	2
7	4826	923059.140754824886	3
7	4834	924137.270799798967	2
7	4838	924341.686097036205	3
7	4842	924584.418238936648	2
7	4853	926155.088863242654	1
7	4862	927380.906549465731	0
7	4876	928371.844211796776	1
7	4884	929065.233228059094	2
7	4893	931472.328943377252	3
7	4901	932286.399165251865	4
7	4903	932770.119598556826	3
7	4908	932910.25383899058	2
7	4920	934558.064201174338	1
7	4928	935918.394584723702	0
7	4943	937196.629093754528	1
7	4946	940003.876517312908	0
7	4961	942330.428083349141	1
7	4964	946115.56618627213	0
7	4978	947527.131717199961	1
7	4990	950620.388308192076	2
7	4994	950886.383710103647	1
7	4998	950936.969919899301	2
7	5012	952440.595368343458	3
7	5024	954320.569819613212	4
7	5028	954532.997910654979	3
7	5032	954592.166864530384	4
7	5039	954889.522361879971	3
7	5047	955740.277865994256	2
7	5061	956579.377986729614	3
7	5070	957391.208777654769	4
7	5072	957531.831763631361	3
7	5080	958120.056431358435	2
7	5094	959629.272417448721	3
7	5096	959971.195303732924	2
7	5110	960651.378528460336	1
7	5114	960859.344433963474	2
7	5127	961421.49404836901	3
7	5129	962845.74419077515	2
7	5144	963546.345361437721	3
7	5146	964530.465576692882	2
7	5154	965098.808669496235	1
7	5163	966929.988263530383	0
7	5178	969124.524566984009	1
7	5186	970690.639230264392	2
7	5194	971157.762596761212	3
7	5202	972547.019589478901	2
7	5206	972584.740217758289	3
7	5218	974901.921562258844	2
7	5221	974902.294839295156	1
7	5225	974954.047185576043	2
7	5238	976139.597113992884	1
7	5247	978155.088626148883	0
7	5261	980890.628930361669	1
7	5264	983992.932641005806	0
7	5279	986299.483843576074	1
7	5283	990175.286868566326	0
7	5298	993047.735820736164	1
7	5309	994151.97317659291	2
7	5314	994413.78532969372	3
7	5322	996800.375161850171	2
7	5326	996989.033615780637	3
7	5333	997568.023868015782	2
7	5346	998385.03230305358	1
7	5353	998528.71439036243	2
7	5358	998866.164784552894	3
7	5366	1000517.539856437437	2
7	5381	1002086.223228620523	3
7	5383	1002318.893424090497	2
7	5388	1002438.858300274028	1
7	5406	1005876.53599563306	2
7	5408	1006337.408576579439	1
7	5422	1007419.274620144012	2
7	5425	1008894.680579161394	1
7	5440	1011355.307773172716	2
7	5442	1011619.470485910035	1
7	5451	1015285.60808461231	0
7	5465	1016222.011365255803	1
7	5474	1017434.885415842744	2
7	5482	1018204.798469617471	3
7	5484	1019536.794906248311	2
7	5493	1021348.843308649849	1
7	5507	1021943.647978875359	2
7	5514	1022041.153921578217	1
7	5518	1022331.841013105261	2
7	5532	1025191.284378020696	3
7	5534	1025354.788281649682	2
7	5542	1025641.911279533089	1
7	5551	1025981.640151370612	2
7	5564	1028505.779477915111	1
7	5568	1028574.560515628799	2
7	5581	1029625.479172487312	1
7	5585	1029833.704481476245	2
7	5598	1030535.97402640363	3
7	5600	1031886.058783810123	2
7	5614	1033716.191418398248	1
7	5618	1033795.85378703871	2
7	5625	1034472.827355134399	1
7	5640	1036019.775291764028	2
