version 2
run ParkingMeasurement-91-20170108-17:33:04-6469
attr configname ParkingMeasurement
attr datetime 20170108-17:33:04
attr experiment ParkingMeasurement
attr inifile parkingStudy.ini
attr iterationvars ""
attr iterationvars2 $repetition=91
attr measurement ""
attr network controltower.SimNetwork
attr processid 6469
attr repetition 91
attr replication #91
attr resultdir results
attr runnumber 91
attr seedset 91
param SimNetwork.a.parkingLot.parkingDelay "truncnormal(60min, 6min)"
param SimNetwork.a.runway.landingTime "truncnormal(5min, 0.5min)"
param SimNetwork.a.runway.takeoffTime "truncnormal(5min, 0.5min)"
param SimNetwork.a.runway.throughputCheckInterval 50min
param SimNetwork.wg.interArrivalTime exponential(50min)

vector 7  SimNetwork.a.parkingLot  parkingOccupancy:vector  ETV
attr source  parkingOccupancy
vector 4  SimNetwork.a.takeoffQueue  queueLength:vector  ETV
attr source  queueLengthSignal
vector 3  SimNetwork.a.takeoffQueue  queueTime:vector  ETV
attr source  queueTimeSignal
vector 0  SimNetwork.wg  responseTime:vector  ETV
attr source  responseTimeSignal
vector 5  SimNetwork.a.runway  landedThroughput:vector  ETV
attr source  landedThroughputSignal
vector 6  SimNetwork.a.runway  tookoffThroughput:vector  ETV
attr source  tookoffThroughputSignal
vector 2  SimNetwork.a.landingQueue  queueLength:vector  ETV
attr source  queueLengthSignal
vector 1  SimNetwork.a.landingQueue  queueTime:vector  ETV
attr source  queueTimeSignal
0	631	122792.855930030355	12140.947002554
0	640	123510.405239652126	5379.3739703737
0	648	125171.549241124015	5251.8255586404
0	676	136800.165900797916	15997.900434256
0	685	140124.021516913391	7430.7300071278
0	714	145699.120028302417	10143.260846723
0	727	146523.033690128314	5286.3124293592
0	753	150103.19088073732	8201.703908136
0	780	152881.359932292469	7262.7167284978
0	786	153172.693418436717	4803.2368523762
0	805	154865.714468672545	6309.6084386326
0	810	155192.083084023338	4463.2347536563
0	825	157455.238012715037	6156.8783311333
0	871	161808.652183913272	8576.9551118191
0	880	162059.918366575123	4168.2784001732
0	891	162362.65453829316	5184.7441713574
0	896	162600.460799870037	5180.9757385546
0	901	162934.030314512971	4978.0619339863
0	926	167883.390294898943	9442.7137773438
0	936	171417.664076991514	7393.1835075079
0	964	183582.283380068154	16363.611587425
0	989	186980.155786069499	6964.7107394184
0	1006	189049.43251835204	6249.3814722857
0	1014	189381.459307369446	4301.5787690623
0	1026	192310.177506427296	7015.0857044172
0	1056	195973.618698848892	7869.5133546712
0	1065	198358.988741928886	6063.2741172714
0	1073	199481.305977170035	5224.5664014344
0	1099	205944.722604367726	10943.749523396
0	1108	207730.450116264812	5699.0320475131
0	1126	214183.822099019401	10412.422048985
0	1151	218545.038138474404	8698.6417093079
0	1176	220366.547427959897	5595.9155862389
0	1185	222595.033433897414	5741.5711413444
0	1193	223483.368651181867	4813.9860419256
0	1237	234771.433278846168	15082.482347183
0	1248	235758.89348656495	4150.452159347
0	1253	236037.438375226085	5570.2838335662
0	1261	236441.572287909593	4645.3675265882
0	1282	241145.393753918115	9105.1589093139
0	1304	245029.142837772582	8308.5373327761
0	1321	246523.145246484736	5483.1312207418
0	1338	249084.674908830639	6469.9415421131
0	1355	252391.006637945547	7128.9931482101
0	1364	255059.810171543112	7063.6454888208
0	1390	263574.031415782668	12351.128560971
0	1402	266470.689216249491	6967.1716646963
0	1417	270932.493718896428	8642.3862422042
0	1443	277273.429907485902	10859.35725049
0	1452	279954.000441590791	6821.9255147391
0	1486	286371.057716120449	4161.1919033115
0	1497	286834.6585329632	10966.316131041
0	1511	290551.023551664418	8083.7889947508
0	1528	291385.807038268498	5697.4121117752
0	1553	295348.868918215819	8734.5435809387
0	1589	297754.671808047559	6978.1353990372
0	1594	298055.112652476859	5268.6106694906
0	1603	300112.954533713188	6548.6561551537
0	1611	300689.264518645765	4936.2552022665
0	1619	301413.567052738513	5643.5456350303
0	1654	309839.424484548075	12688.910877356
0	1662	311306.416028800563	5570.5552275159
0	1671	313709.906889901731	5912.3984189725
0	1713	319200.828959287718	10008.413909833
0	1733	321138.28295789297	6818.4985851534
0	1746	322017.951755031215	5028.9193848522
0	1754	322755.718729336113	5457.9919938188
0	1763	324092.520789441721	5816.9165158805
0	1771	325417.072245253527	5045.8249674144
0	1805	332795.653854246533	11757.088382235
0	1814	333114.361621175162	4566.625374416
0	1838	335600.295754442134	6588.6667073652
0	1847	337905.263585104795	7005.0507379771
0	1856	339297.265275722645	5283.7116051116
0	1874	346948.66317516119	11966.958308889
0	1912	354194.675095916932	10944.142537153
0	1917	354482.482604745492	4817.662888229
0	1934	357791.874859622154	7486.3295751966
0	1942	359039.783541958202	5524.9182715938
0	1961	368334.49303082537	13131.653122642
0	1999	376593.125042286469	4018.9099105623
0	2004	376909.946851332027	13129.34770241
0	2012	377540.419583803113	4516.4507644811
0	2038	382113.56798243585	8398.3967050255
0	2046	383465.761326189611	5811.1245058294
0	2080	388792.35620612557	9905.3542730084
0	2088	389443.23375629592	4932.8793926033
0	2105	391887.802658732245	6303.5993768651
0	2114	395882.315952601677	7906.513256552
0	2148	399882.369547662568	8900.9335790522
0	2160	402265.74032625248	4723.0595526514
0	2168	402570.711631273676	6052.5457135696
0	2190	407112.550638204078	8683.238615387
0	2199	408554.557824203458	5995.5858618107
0	2217	416222.599775004893	12046.944199161
0	2259	422207.846141106008	10173.370029311
0	2284	424689.462758982232	6745.1233071236
0	2295	425272.898365106183	4242.2187963585
0	2300	425555.351440984418	5541.5634585308
0	2309	426283.390043031474	5187.7892565877
0	2317	428265.266633241781	5979.6207393036
0	2343	433521.6833631765	9430.0816182705
0	2351	434637.629677114908	5743.4013073661
0	2378	441526.57625965067	11409.864310477
0	2386	442291.722474803327	4346.7964043245
0	2413	450697.02305729734	11649.707986486
0	2441	453607.765119762787	6837.3929698118
0	2458	456097.620344507867	6859.0186636782
0	2463	456416.269446950424	5149.9559186195
0	2471	457886.045324036329	5838.5171397496
0	2498	465824.700831983338	12288.96691444
0	2506	466179.491648269861	4818.1305608881
0	2535	471468.894758273783	10036.012357471
0	2556	472898.431021451918	5524.4923597102
0	2565	475691.891966934619	7233.6858012237
0	2581	476941.560036467139	5534.2267906549
0	2607	480418.220035023118	8157.1887612545
0	2623	482174.721677870078	5790.3496863059
0	2635	483566.572949713185	5813.5856106048
0	2640	483863.861684252622	4361.0301011233
0	2682	490230.691769299222	9702.251288631
0	2690	490582.340092671524	4822.1157059057
0	2698	491451.45945546153	5238.1349405504
0	2707	492106.620623993139	5128.2637225444
0	2733	499321.360740752338	11641.988452709
0	2750	501236.517796185256	6162.2940881735
0	2758	503860.21305397598	6465.1822704646
0	2784	508469.757687592195	8796.5407571378
0	2809	511336.791899149592	6463.6781038244
0	2818	513090.538671231888	6662.8105847846
0	2834	514798.150381341221	6300.6628557668
0	2854	517982.761535803621	7317.8517744705
0	2876	521069.039422281985	7080.2444219122
0	2884	521969.120215876816	5052.4309938289
0	2905	525280.8593023008	7508.3340283444
0	2938	528456.354763638954	8017.4924545069
0	2959	529318.685061635947	5594.026090518
0	2967	530514.807391996239	5360.479558632
0	2976	531244.533207243633	5165.3755098326
0	2987	532550.721801466382	4278.6493602595
0	2992	532845.943753140442	5933.282287521
0	3018	539926.521831874602	11429.877419276
0	3028	543126.134072753677	7653.791909657
0	3062	549333.974403885038	10246.839792211
0	3070	550871.681204195247	4030.8910664995
0	3078	551352.902837718871	6475.8051909573
0	3096	557635.01890749291	10402.51180142
0	3117	571782.30386374307	18595.315720082
0	3175	578384.615956222532	10636.640140718
0	3187	579820.759623352313	6001.163636296
0	3200	580745.576230822107	4896.9277063
0	3208	581406.526159647171	4457.7737191086
0	3228	582117.452164421274	5268.7135019546
0	3233	582457.006491751423	5191.5988405255
0	3249	584181.174698136693	6712.7033562225
0	3269	585493.634007027688	5890.5344981981
0	3290	587531.725040376491	5994.5329770407
0	3299	588512.211221097616	4955.3165936906
0	3307	589568.884979944835	4908.5100616747
0	3323	590824.840411271904	5334.2580029392
0	3341	594084.089195065162	7149.9129873558
0	3349	595519.788115990747	5901.1227116066
0	3392	603913.926483200826	12319.017225569
0	3403	604774.125655446778	5205.0136677271
0	3428	606069.407559482721	5069.9488015161
0	3433	606405.529101902776	5364.7988604647
0	3450	609500.402300919293	7716.1720921945
0	3458	609806.400588456418	5042.2905224528
0	3475	612812.6037039364	7337.7720786053
0	3484	615661.408219994274	7803.2575352366
0	3529	623324.741381339667	11115.013741724
0	3546	624281.322670063381	5461.0652909483
0	3567	625554.455876943292	5300.6140243894
0	3575	626688.151632468061	6308.3278304381
0	3584	627069.739918986404	4343.3416781181
0	3592	628636.735106551564	5529.5862540433
0	3603	629092.291268247796	4912.0433950391
0	3642	633028.649020969061	8332.7990769369
0	3658	634285.174922775133	5262.0461161136
0	3666	634815.678910999541	4912.9781429223
0	3675	636554.436364789617	5958.0841874494
0	3683	637069.822359964026	5104.7681809229
0	3719	641314.97007057396	8251.7472755719
0	3724	641621.928649536237	4507.3797880736
0	3736	642568.230471893107	4940.7778269005
0	3758	646441.236774134482	8040.0738058087
0	3766	647968.686948234477	5609.692725349
0	3785	655767.437261498877	12556.120398402
0	3804	664091.384986231412	12450.828480081
0	3835	675993.482470931614	16066.829620477
0	3840	676279.266424986299	4973.4294839579
0	3883	684932.271539242568	12906.890620715
0	3891	685452.866593158551	4377.5066437492
0	3899	685845.151627501722	4453.3912414287
0	3907	686258.124578717938	4232.2031607585
0	3949	690847.387243370133	8814.741814473
0	3957	691782.643198967324	4994.4391235858
0	3965	692500.152021231337	4917.2376403942
0	3974	693922.897297739594	5963.0783414977
0	3991	698007.981330152299	8561.6649957423
0	4025	702869.313375893593	8829.5257313409
0	4033	703481.125995454325	4990.4903451073
0	4053	705685.98383425885	7139.2424449605
0	4083	708938.259358519406	8052.0474988262
0	4099	710333.224053657102	5221.0196633944
0	4111	711515.842519836991	5972.4125753316
0	4124	712377.060712626585	5497.5583959683
0	4132	713443.361128064819	5161.8936806719
0	4149	715829.918711551438	6124.1522996813
0	4166	718228.834499909771	6748.0584730353
0	4183	721590.461004009494	7886.9633043495
0	4208	724625.959039466171	7177.8456235462
0	4225	726421.848784914221	5870.9691171999
0	4233	726882.792465834015	4476.5024682386
0	4266	730196.007895731632	7543.1096012954
0	4282	731557.770849507683	6061.9568297956
0	4291	732068.823222549528	4409.3284070641
0	4307	733556.818935403262	5425.9603105891
0	4315	734892.505778163128	5355.961444819
0	4332	737196.328873081033	6980.8316072439
0	4341	739574.187075755106	6534.7813966921
0	4373	745768.00216352163	10249.982935711
0	4383	746427.809835086409	5113.5711158772
0	4400	749744.574915672956	8140.9639181908
0	4409	750316.00696107862	4708.95014292
0	4435	756063.597023393781	9561.8856171157
0	4443	756701.780548056677	5453.7844182474
0	4461	762015.076619679465	9076.8105059997
0	4494	766436.324805147472	8473.5007251391
0	4517	769262.789589892452	6982.3974378171
0	4527	769806.589463611744	5474.4194026152
0	4535	770858.93644922575	6236.7880009235
0	4560	773579.031058568487	7130.8017509446
0	4572	776571.233885492425	7454.2100503933
0	4577	776905.259555638283	4453.1053398405
0	4597	788868.507554442324	16084.899738353
0	4616	796155.114298100478	11861.916257256
0	4634	801601.687158308853	10042.056839192
0	4663	817048.124766718771	19847.958302503
0	4671	817640.240719328303	4957.158243164
0	4697	823606.031006944261	10058.585468678
0	4722	826248.566481897106	6674.4773453082
0	4730	827980.146439255054	5907.519507871
0	4739	829050.532210619987	5382.2555083068
0	4756	833630.079075555197	8066.4434125836
0	4790	838582.794727468462	8771.4751959303
0	4799	840312.458722837022	6654.2793001584
0	4823	842007.730471277433	6090.5758741586
0	4840	844129.51131035462	6258.8483891562
0	4856	845429.643882902332	5077.5528494024
0	4865	847468.300601414244	6298.7609567357
0	4873	848807.799260687881	5525.3981454387
0	4910	863269.214454126497	18474.030427354
0	4919	864637.10434151272	6272.1439762011
0	4935	866330.970760309414	5860.202406367
0	4952	869332.393816973902	7615.5778940319
0	4964	871008.846024547343	5782.7786883503
0	4986	875115.143246408146	8058.7103511482
0	4995	877628.258752928707	6778.883170318
0	5026	897343.340622474874	23721.462409471
0	5035	901099.9107990413	8240.8513196477
0	5063	905653.227711648849	8925.8529681327
0	5068	905907.33502800473	4606.6822915521
0	5102	911777.465093023031	10277.19603689
0	5111	912319.986560212806	5004.114038911
0	5119	914134.003039128569	6505.1061325321
0	5153	919014.683434365829	8744.6238656783
0	5161	920964.11312196102	6003.443706162
0	5178	922610.496843946542	5420.4561283038
0	5195	925868.179308923275	7513.7765241153
0	5204	927887.670434110899	5941.3481695463
0	5221	932549.909370187964	8125.4605400195
0	5241	944685.869388171357	16325.491255536
0	5270	959279.785363984277	18631.775681238
0	5279	962105.279642730361	7056.2105083507
0	5297	968076.502242716162	10658.278170081
0	5315	973677.222969392989	9703.068943688
0	5341	978916.65509104818	9645.3482191478
0	5358	981072.757140898102	6483.7364841728
0	5375	984058.669932318474	7498.0541038
0	5383	986418.737451017586	6962.8628788771
0	5417	992229.953284509106	10300.634633055
0	5428	992964.688581049939	4927.8647205471
0	5442	993790.764007994857	4242.4119619674
0	5451	996682.893415751861	6940.868111441
0	5478	1006645.075198182172	13907.788287073
0	5487	1008193.261995138769	5325.0848490067
0	5517	1019452.129464785826	15623.721918983
0	5531	1021551.455490713954	6614.31835889
0	5556	1023779.338774559892	5560.9270028078
0	5572	1025973.190067602735	6632.8319249971
0	5581	1026702.439553446299	5065.9854534883
0	5589	1028420.00852403319	6163.1040411982
0	5615	1034770.864723080976	10238.108316013
1	656	132693.291509785627	0
1	665	135555.859181579199	0
1	691	141236.721260769097	0
1	699	141901.486972601364	0
1	716	145699.120028302417	80.476824507751
1	733	148369.456566060502	0
1	741	148749.264965328601	193.15893528864
1	758	150728.848330366989	0
1	766	151298.359681581688	0
1	791	153231.697072094216	0
1	827	157455.238012715037	277.32764577924
1	832	157755.310779510965	335.82571819554
1	843	158050.066171295156	158.42620489323
1	848	158322.878822574778	366.91044204807
1	856	158647.114373378534	206.4378558234
1	906	164024.480569483598	0
1	915	167218.671792643128	0
1	944	180015.445046651054	0
1	952	182800.051046066361	0
1	969	185079.880538307114	0
1	977	185383.619201290737	88.527399280596
1	994	188104.105344177737	0
1	1028	192310.177506427296	14.462881769845
1	1036	194256.739575735602	0
1	1045	195000.973080971255	0
1	1079	202031.418068751677	0
1	1087	203771.400050034481	0
1	1113	209846.396429166505	0
1	1131	214770.631841721029	0
1	1140	216853.462292552993	0
1	1156	218669.382609256278	0
1	1165	219688.95093166282	0
1	1200	230467.154541659892	0
1	1209	231608.44132721796	0
1	1217	231908.52347829492	112.3187169735
1	1225	232215.933452523581	175.69860791938
1	1266	236720.605504996478	0
1	1284	241145.393753918115	105.37972817519
1	1292	242614.733366717489	0
1	1309	245262.013489735438	0
1	1326	247996.164682722327	0
1	1343	251222.902854811217	0
1	1370	259503.517551553237	0
1	1379	262290.107476692205	0
1	1404	266470.689216249491	56.616559253183
1	1423	273132.074926851714	0
1	1431	275868.342401921984	0
1	1458	282209.865812808932	0
1	1466	282495.600999482381	28.366442568792
1	1475	285688.394926493303	0
1	1499	286834.6585329632	220.33319568605
1	1516	290776.53640901031	0
1	1533	292786.501982986224	0
1	1541	293564.298378559509	0
1	1558	295753.009316379292	0
1	1566	296038.287858313439	268.26644060526
1	1575	297150.513607191916	0
1	1625	305735.86080128471	0
1	1634	307797.508470929269	0
1	1643	309192.41504945435	0
1	1676	314319.784372739596	0
1	1685	316989.032370178991	0
1	1693	317297.726735517323	0
1	1702	318275.604273561225	0
1	1718	320371.247277839125	0
1	1735	321138.28295789297	99.717485881616
1	1777	328547.736246759156	0
1	1785	329011.629047076889	0
1	1794	330900.212847127681	0
1	1819	334013.553670611092	0
1	1827	334981.704866272673	0
1	1862	343250.532558763705	0
1	1880	349664.819716516505	0
1	1888	350305.54528442553	0
1	1897	353514.865270364378	0
1	1922	355202.839908183356	0
1	1949	363780.599148922212	0
1	1968	372574.215131724174	0
1	1976	373023.968819321964	0
1	1984	373715.17127741039	0
1	2017	377654.63682036017	0
1	2026	378887.001933117174	0
1	2052	384510.354363692624	0
1	2060	385584.203281867132	0
1	2069	387975.802696049719	0
1	2094	390981.435968610415	0
1	2120	396518.165917704055	0
1	2128	397542.680773601125	0
1	2136	398429.312022817112	0
1	2170	402570.711631273676	11.739668880941
1	2178	404175.655575844385	0
1	2205	412034.476111794939	0
1	2223	417944.339451858669	0
1	2232	420013.787982453642	0
1	2240	421030.679568747696	0
1	2248	421342.644150613321	247.04336416958
1	2264	422285.645893938174	0
1	2273	424091.601744906026	0
1	2322	428894.22836974884	0
1	2331	430116.71194917347	0
1	2357	437944.926070478818	0
1	2366	439047.315070811629	0
1	2392	446770.372149951005	0
1	2401	449238.601680829677	0
1	2418	451266.313528330963	0
1	2426	452047.528184286709	0
1	2443	453607.765119762787	72.031202219223
1	2477	461361.361087381808	0
1	2485	461663.378891565123	230.49649076248
1	2511	467373.938661741669	0
1	2520	468458.206165710912	0
1	2537	471468.894758273783	61.561512461579
1	2545	472261.031273768608	0
1	2570	476384.371991564161	0
1	2587	477752.987339108432	0
1	2595	479502.831583129275	0
1	2612	480528.440480668211	0
1	2645	485760.224386765855	0
1	2654	486213.324514911102	0
1	2662	486978.356901448732	0
1	2670	487679.372288043511	0
1	2713	495074.223708011711	0
1	2721	497395.030783511427	0
1	2738	499673.216930454349	0
1	2764	504873.113795325145	0
1	2772	506427.728086447259	0
1	2789	508497.487525574433	0
1	2798	510664.90976133313	0
1	2823	513988.795000369794	0
1	2840	516916.68922204795	0
1	2856	517982.761535803621	210.23626184726
1	2865	520438.862309132065	0
1	2890	523724.658971117912	0
1	2907	525280.8593023008	126.53146893651
1	2915	526079.157697411013	0
1	2923	526912.661465619463	0
1	2940	528456.354763638954	184.28232243203
1	2948	528709.502846482449	212.85843388418
1	2998	535472.342163096654	0
1	3007	539087.134611674174	0
1	3033	544877.097646761602	0
1	3042	546840.790137695726	0
1	3050	547232.507106072825	0
1	3084	553186.988143661551	0
1	3105	567747.975815504157	0
1	3123	573819.595987056329	0
1	3131	575848.648524522099	0
1	3140	576848.738662466696	0
1	3148	577200.238300706987	251.48586016841
1	3162	577506.097428035818	240.68977680985
1	3167	577795.525451880782	327.05410996657
1	3189	579820.759623352313	217.66011452274
1	3213	581537.192063335825	0
1	3238	583556.894627407032	0
1	3254	584660.374918270163	0
1	3271	585493.634007027688	3.051598695023
1	3279	586934.176207709343	0
1	3312	589618.665404384151	0
1	3329	591594.909257631451	0
1	3355	599569.111987719695	0
1	3364	600999.458757966628	0
1	3372	601309.254538106568	268.52429666846
1	3380	601784.230208724783	0
1	3405	604774.125655446778	10.015589443165
1	3413	605474.831625331085	0
1	3438	607858.15068475772	0
1	3464	612209.727639615438	0
1	3490	618820.257379115104	0
1	3498	620253.841852553932	0
1	3506	620554.590513797853	174.76671176788
1	3515	622726.398240868304	0
1	3531	623324.741381339667	217.59252883138
1	3548	624281.322670063381	101.07479685466
1	3556	624695.84994403213	0
1	3605	629092.291268247796	69.162461586234
1	3613	629902.700768077224	0
1	3622	630596.352177340194	0
1	3630	631965.054179041153	0
1	3647	633063.222795002051	0
1	3688	637114.548861462636	0
1	3696	637627.452644992584	0
1	3704	638401.162968325774	0
1	3738	642568.230471893107	209.2362490076
1	3746	643211.316863097356	0
1	3773	651640.556506150666	0
1	3791	659926.652850454584	0
1	3811	671305.836941028354	0
1	3820	672025.380918527959	0
1	3847	681075.359949409315	0
1	3855	681391.760386072987	0
1	3863	682025.921417959393	0
1	3871	682337.443763325247	304.79833442816
1	3912	686788.204075381533	0
1	3921	687582.914380837165	0
1	3929	687959.818956241892	0
1	3937	689446.316334410018	0
1	3979	694039.787644552652	0
1	3996	698490.635650347013	0
1	4004	698786.488788514947	239.74739921664
1	4013	700886.211859693234	0
1	4039	705112.204390262696	0
1	4055	705685.98383425885	142.55388975348
1	4063	706879.502316658275	0
1	4072	708281.467447392967	0
1	4088	709705.766411870097	0
1	4113	711515.842519836991	35.066492962514
1	4137	713703.497699660034	0
1	4155	717448.113415919964	0
1	4172	720550.879667714326	0
1	4188	722406.289997595449	0
1	4196	722752.843864278825	99.945569842614
1	4213	725495.814019712115	0
1	4238	727659.494815485419	0
1	4246	728130.858624814196	0
1	4255	729536.544333344115	0
1	4271	730215.497265837121	0
1	4296	733039.405679063055	0
1	4321	735518.019227810205	0
1	4347	741314.238719209211	0
1	4355	741630.502215390504	26.891217908339
1	4375	745768.00216352163	160.94534536304
1	4388	746501.711406278066	0
1	4414	751247.996129809296	0
1	4422	752938.266113679759	0
1	4448	757962.824080008363	0
1	4466	762280.392152075308	0
1	4474	764332.170060996585	0
1	4482	764642.346909842859	20.198461540587
1	4499	766448.229307623859	0
1	4519	769262.789589892452	145.76575479331
1	4541	772452.154215797792	0
1	4549	772783.607816089047	0
1	4585	784293.198040844015	0
1	4603	791559.630319117177	0
1	4621	797200.166464216227	0
1	4642	812683.082476164307	0
1	4651	813547.445538266417	0
1	4677	819574.089136588873	0
1	4686	822072.626931384023	0
1	4702	823668.276702313144	0
1	4711	825563.635662971604	0
1	4744	829811.319531538188	0
1	4761	833658.179422678572	0
1	4770	835917.154597118852	0
1	4779	837870.662921198422	0
1	4804	840352.091033499937	0
1	4812	841169.5396446785	0
1	4829	843282.401115249184	0
1	4845	844795.18402677219	0
1	4882	858364.960365311628	0
1	4890	860470.768353942421	0
1	4899	861716.815922942016	0
1	4924	865226.067336197043	0
1	4941	867056.432895259989	0
1	4966	871008.846024547343	159.47044193663
1	4975	873621.878213003502	0
1	5005	892859.059479393626	0
1	5014	896727.374743516108	0
1	5040	901300.652736452656	0
1	5048	901577.220768913342	76.951712779885
1	5074	907315.872521301853	0
1	5082	907656.882747094682	27.985840498238
1	5091	910270.059568687495	0
1	5124	914960.669415798985	0
1	5133	917190.040715642738	0
1	5142	918354.402784807965	0
1	5167	921946.322264564559	0
1	5184	924424.448830168424	0
1	5209	928360.378132635675	0
1	5229	940648.009682745805	0
1	5250	955049.069134379683	0
1	5259	957418.224072635089	0
1	5285	963974.154025704971	0
1	5303	969271.306871900423	0
1	5320	974589.020656725279	0
1	5329	976560.615828518503	0
1	5346	979455.874572140441	0
1	5363	981929.318651453923	0
1	5389	988036.823860502835	0
1	5397	989548.352046027477	0
1	5405	989883.297730415823	141.27242610494
1	5430	992964.688581049939	227.40166994035
1	5458	1002868.177146132051	0
1	5466	1003828.407545802961	0
1	5494	1014937.137131823959	0
1	5503	1018218.411771752137	0
1	5519	1019452.129464785826	111.77132218016
1	5536	1021636.454099958017	0
1	5544	1022256.904482835032	0
1	5561	1024532.756407067859	0
1	5595	1030821.232078405983	0
1	5604	1032235.488861894685	0
1	5621	1035883.331929122014	0
2	654	132693.291509785627	1
2	656	132693.291509785627	0
2	663	135555.859181579199	1
2	665	135555.859181579199	0
2	689	141236.721260769097	1
2	691	141236.721260769097	0
2	697	141901.486972601364	1
2	699	141901.486972601364	0
2	711	145618.643203794666	1
2	716	145699.120028302417	0
2	731	148369.456566060502	1
2	733	148369.456566060502	0
2	736	148556.106030039961	1
2	741	148749.264965328601	0
2	756	150728.848330366989	1
2	758	150728.848330366989	0
2	764	151298.359681581688	1
2	766	151298.359681581688	0
2	789	153231.697072094216	1
2	791	153231.697072094216	0
2	819	157177.910366935801	1
2	822	157419.485061315423	2
2	827	157455.238012715037	1
2	832	157755.310779510965	0
2	835	157891.639966401925	1
2	838	157955.968380526707	2
2	843	158050.066171295156	1
2	848	158322.878822574778	0
2	851	158440.676517555136	1
2	856	158647.114373378534	0
2	904	164024.480569483598	1
2	906	164024.480569483598	0
2	913	167218.671792643128	1
2	915	167218.671792643128	0
2	942	180015.445046651054	1
2	944	180015.445046651054	0
2	950	182800.051046066361	1
2	952	182800.051046066361	0
2	967	185079.880538307114	1
2	969	185079.880538307114	0
2	972	185295.091802010141	1
2	977	185383.619201290737	0
2	992	188104.105344177737	1
2	994	188104.105344177737	0
2	1023	192295.714624657451	1
2	1028	192310.177506427296	0
2	1034	194256.739575735602	1
2	1036	194256.739575735602	0
2	1043	195000.973080971255	1
2	1045	195000.973080971255	0
2	1077	202031.418068751677	1
2	1079	202031.418068751677	0
2	1085	203771.400050034481	1
2	1087	203771.400050034481	0
2	1111	209846.396429166505	1
2	1113	209846.396429166505	0
2	1129	214770.631841721029	1
2	1131	214770.631841721029	0
2	1138	216853.462292552993	1
2	1140	216853.462292552993	0
2	1154	218669.382609256278	1
2	1156	218669.382609256278	0
2	1163	219688.95093166282	1
2	1165	219688.95093166282	0
2	1198	230467.154541659892	1
2	1200	230467.154541659892	0
2	1207	231608.44132721796	1
2	1209	231608.44132721796	0
2	1212	231796.204761321425	1
2	1217	231908.52347829492	0
2	1220	232040.234844604198	1
2	1225	232215.933452523581	0
2	1264	236720.605504996478	1
2	1266	236720.605504996478	0
2	1279	241040.014025742922	1
2	1284	241145.393753918115	0
2	1290	242614.733366717489	1
2	1292	242614.733366717489	0
2	1307	245262.013489735438	1
2	1309	245262.013489735438	0
2	1324	247996.164682722327	1
2	1326	247996.164682722327	0
2	1341	251222.902854811217	1
2	1343	251222.902854811217	0
2	1368	259503.517551553237	1
2	1370	259503.517551553237	0
2	1377	262290.107476692205	1
2	1379	262290.107476692205	0
2	1399	266414.072656996308	1
2	1404	266470.689216249491	0
2	1421	273132.074926851714	1
2	1423	273132.074926851714	0
2	1429	275868.342401921984	1
2	1431	275868.342401921984	0
2	1456	282209.865812808932	1
2	1458	282209.865812808932	0
2	1461	282467.234556913589	1
2	1466	282495.600999482381	0
2	1473	285688.394926493303	1
2	1475	285688.394926493303	0
2	1494	286614.325337277146	1
2	1499	286834.6585329632	0
2	1514	290776.53640901031	1
2	1516	290776.53640901031	0
2	1531	292786.501982986224	1
2	1533	292786.501982986224	0
2	1539	293564.298378559509	1
2	1541	293564.298378559509	0
2	1556	295753.009316379292	1
2	1558	295753.009316379292	0
2	1561	295770.021417708181	1
2	1566	296038.287858313439	0
2	1573	297150.513607191916	1
2	1575	297150.513607191916	0
2	1623	305735.86080128471	1
2	1625	305735.86080128471	0
2	1632	307797.508470929269	1
2	1634	307797.508470929269	0
2	1641	309192.41504945435	1
2	1643	309192.41504945435	0
2	1674	314319.784372739596	1
2	1676	314319.784372739596	0
2	1683	316989.032370178991	1
2	1685	316989.032370178991	0
2	1691	317297.726735517323	1
2	1693	317297.726735517323	0
2	1700	318275.604273561225	1
2	1702	318275.604273561225	0
2	1716	320371.247277839125	1
2	1718	320371.247277839125	0
2	1730	321038.565472011354	1
2	1735	321138.28295789297	0
2	1775	328547.736246759156	1
2	1777	328547.736246759156	0
2	1783	329011.629047076889	1
2	1785	329011.629047076889	0
2	1792	330900.212847127681	1
2	1794	330900.212847127681	0
2	1817	334013.553670611092	1
2	1819	334013.553670611092	0
2	1825	334981.704866272673	1
2	1827	334981.704866272673	0
2	1860	343250.532558763705	1
2	1862	343250.532558763705	0
2	1878	349664.819716516505	1
2	1880	349664.819716516505	0
2	1886	350305.54528442553	1
2	1888	350305.54528442553	0
2	1895	353514.865270364378	1
2	1897	353514.865270364378	0
2	1920	355202.839908183356	1
2	1922	355202.839908183356	0
2	1947	363780.599148922212	1
2	1949	363780.599148922212	0
2	1966	372574.215131724174	1
2	1968	372574.215131724174	0
2	1974	373023.968819321964	1
2	1976	373023.968819321964	0
2	1982	373715.17127741039	1
2	1984	373715.17127741039	0
2	2015	377654.63682036017	1
2	2017	377654.63682036017	0
2	2024	378887.001933117174	1
2	2026	378887.001933117174	0
2	2050	384510.354363692624	1
2	2052	384510.354363692624	0
2	2058	385584.203281867132	1
2	2060	385584.203281867132	0
2	2067	387975.802696049719	1
2	2069	387975.802696049719	0
2	2092	390981.435968610415	1
2	2094	390981.435968610415	0
2	2118	396518.165917704055	1
2	2120	396518.165917704055	0
2	2126	397542.680773601125	1
2	2128	397542.680773601125	0
2	2134	398429.312022817112	1
2	2136	398429.312022817112	0
2	2165	402558.971962392735	1
2	2170	402570.711631273676	0
2	2176	404175.655575844385	1
2	2178	404175.655575844385	0
2	2203	412034.476111794939	1
2	2205	412034.476111794939	0
2	2221	417944.339451858669	1
2	2223	417944.339451858669	0
2	2230	420013.787982453642	1
2	2232	420013.787982453642	0
2	2238	421030.679568747696	1
2	2240	421030.679568747696	0
2	2243	421095.600786443737	1
2	2248	421342.644150613321	0
2	2262	422285.645893938174	1
2	2264	422285.645893938174	0
2	2271	424091.601744906026	1
2	2273	424091.601744906026	0
2	2320	428894.22836974884	1
2	2322	428894.22836974884	0
2	2329	430116.71194917347	1
2	2331	430116.71194917347	0
2	2355	437944.926070478818	1
2	2357	437944.926070478818	0
2	2364	439047.315070811629	1
2	2366	439047.315070811629	0
2	2390	446770.372149951005	1
2	2392	446770.372149951005	0
2	2399	449238.601680829677	1
2	2401	449238.601680829677	0
2	2416	451266.313528330963	1
2	2418	451266.313528330963	0
2	2424	452047.528184286709	1
2	2426	452047.528184286709	0
2	2438	453535.733917543564	1
2	2443	453607.765119762787	0
2	2475	461361.361087381808	1
2	2477	461361.361087381808	0
2	2480	461432.882400802643	1
2	2485	461663.378891565123	0
2	2509	467373.938661741669	1
2	2511	467373.938661741669	0
2	2518	468458.206165710912	1
2	2520	468458.206165710912	0
2	2532	471407.333245812204	1
2	2537	471468.894758273783	0
2	2543	472261.031273768608	1
2	2545	472261.031273768608	0
2	2568	476384.371991564161	1
2	2570	476384.371991564161	0
2	2585	477752.987339108432	1
2	2587	477752.987339108432	0
2	2593	479502.831583129275	1
2	2595	479502.831583129275	0
2	2610	480528.440480668211	1
2	2612	480528.440480668211	0
2	2643	485760.224386765855	1
2	2645	485760.224386765855	0
2	2652	486213.324514911102	1
2	2654	486213.324514911102	0
2	2660	486978.356901448732	1
2	2662	486978.356901448732	0
2	2668	487679.372288043511	1
2	2670	487679.372288043511	0
2	2711	495074.223708011711	1
2	2713	495074.223708011711	0
2	2719	497395.030783511427	1
2	2721	497395.030783511427	0
2	2736	499673.216930454349	1
2	2738	499673.216930454349	0
2	2762	504873.113795325145	1
2	2764	504873.113795325145	0
2	2770	506427.728086447259	1
2	2772	506427.728086447259	0
2	2787	508497.487525574433	1
2	2789	508497.487525574433	0
2	2796	510664.90976133313	1
2	2798	510664.90976133313	0
2	2821	513988.795000369794	1
2	2823	513988.795000369794	0
2	2838	516916.68922204795	1
2	2840	516916.68922204795	0
2	2851	517772.525273956364	1
2	2856	517982.761535803621	0
2	2863	520438.862309132065	1
2	2865	520438.862309132065	0
2	2888	523724.658971117912	1
2	2890	523724.658971117912	0
2	2902	525154.327833364285	1
2	2907	525280.8593023008	0
2	2913	526079.157697411013	1
2	2915	526079.157697411013	0
2	2921	526912.661465619463	1
2	2923	526912.661465619463	0
2	2935	528272.072441206926	1
2	2940	528456.354763638954	0
2	2943	528496.644412598266	1
2	2948	528709.502846482449	0
2	2996	535472.342163096654	1
2	2998	535472.342163096654	0
2	3005	539087.134611674174	1
2	3007	539087.134611674174	0
2	3031	544877.097646761602	1
2	3033	544877.097646761602	0
2	3040	546840.790137695726	1
2	3042	546840.790137695726	0
2	3048	547232.507106072825	1
2	3050	547232.507106072825	0
2	3082	553186.988143661551	1
2	3084	553186.988143661551	0
2	3103	567747.975815504157	1
2	3105	567747.975815504157	0
2	3121	573819.595987056329	1
2	3123	573819.595987056329	0
2	3129	575848.648524522099	1
2	3131	575848.648524522099	0
2	3138	576848.738662466696	1
2	3140	576848.738662466696	0
2	3143	576948.752440538578	1
2	3148	577200.238300706987	0
2	3151	577265.40765122597	1
2	3157	577468.471341914211	2
2	3162	577506.097428035818	1
2	3167	577795.525451880782	0
2	3184	579603.099508829577	1
2	3189	579820.759623352313	0
2	3211	581537.192063335825	1
2	3213	581537.192063335825	0
2	3236	583556.894627407032	1
2	3238	583556.894627407032	0
2	3252	584660.374918270163	1
2	3254	584660.374918270163	0
2	3266	585490.582408332665	1
2	3271	585493.634007027688	0
2	3277	586934.176207709343	1
2	3279	586934.176207709343	0
2	3310	589618.665404384151	1
2	3312	589618.665404384151	0
2	3327	591594.909257631451	1
2	3329	591594.909257631451	0
2	3353	599569.111987719695	1
2	3355	599569.111987719695	0
2	3362	600999.458757966628	1
2	3364	600999.458757966628	0
2	3367	601040.730241438109	1
2	3372	601309.254538106568	0
2	3378	601784.230208724783	1
2	3380	601784.230208724783	0
2	3400	604764.110066003613	1
2	3405	604774.125655446778	0
2	3411	605474.831625331085	1
2	3413	605474.831625331085	0
2	3436	607858.15068475772	1
2	3438	607858.15068475772	0
2	3462	612209.727639615438	1
2	3464	612209.727639615438	0
2	3488	618820.257379115104	1
2	3490	618820.257379115104	0
2	3496	620253.841852553932	1
2	3498	620253.841852553932	0
2	3501	620379.823802029976	1
2	3506	620554.590513797853	0
2	3513	622726.398240868304	1
2	3515	622726.398240868304	0
2	3526	623107.14885250829	1
2	3531	623324.741381339667	0
2	3543	624180.247873208719	1
2	3548	624281.322670063381	0
2	3554	624695.84994403213	1
2	3556	624695.84994403213	0
2	3600	629023.128806661562	1
2	3605	629092.291268247796	0
2	3611	629902.700768077224	1
2	3613	629902.700768077224	0
2	3620	630596.352177340194	1
2	3622	630596.352177340194	0
2	3628	631965.054179041153	1
2	3630	631965.054179041153	0
2	3645	633063.222795002051	1
2	3647	633063.222795002051	0
2	3686	637114.548861462636	1
2	3688	637114.548861462636	0
2	3694	637627.452644992584	1
2	3696	637627.452644992584	0
2	3702	638401.162968325774	1
2	3704	638401.162968325774	0
2	3733	642358.994222885509	1
2	3738	642568.230471893107	0
2	3744	643211.316863097356	1
2	3746	643211.316863097356	0
2	3771	651640.556506150666	1
2	3773	651640.556506150666	0
2	3789	659926.652850454584	1
2	3791	659926.652850454584	0
2	3809	671305.836941028354	1
2	3811	671305.836941028354	0
2	3818	672025.380918527959	1
2	3820	672025.380918527959	0
2	3845	681075.359949409315	1
2	3847	681075.359949409315	0
2	3853	681391.760386072987	1
2	3855	681391.760386072987	0
2	3861	682025.921417959393	1
2	3863	682025.921417959393	0
2	3866	682032.645428897083	1
2	3871	682337.443763325247	0
2	3910	686788.204075381533	1
2	3912	686788.204075381533	0
2	3919	687582.914380837165	1
2	3921	687582.914380837165	0
2	3927	687959.818956241892	1
2	3929	687959.818956241892	0
2	3935	689446.316334410018	1
2	3937	689446.316334410018	0
2	3977	694039.787644552652	1
2	3979	694039.787644552652	0
2	3994	698490.635650347013	1
2	3996	698490.635650347013	0
2	3999	698546.741389298308	1
2	4004	698786.488788514947	0
2	4011	700886.211859693234	1
2	4013	700886.211859693234	0
2	4037	705112.204390262696	1
2	4039	705112.204390262696	0
2	4050	705543.429944505375	1
2	4055	705685.98383425885	0
2	4061	706879.502316658275	1
2	4063	706879.502316658275	0
2	4070	708281.467447392967	1
2	4072	708281.467447392967	0
2	4086	709705.766411870097	1
2	4088	709705.766411870097	0
2	4108	711480.776026874477	1
2	4113	711515.842519836991	0
2	4135	713703.497699660034	1
2	4137	713703.497699660034	0
2	4153	717448.113415919964	1
2	4155	717448.113415919964	0
2	4170	720550.879667714326	1
2	4172	720550.879667714326	0
2	4186	722406.289997595449	1
2	4188	722406.289997595449	0
2	4191	722652.898294436211	1
2	4196	722752.843864278825	0
2	4211	725495.814019712115	1
2	4213	725495.814019712115	0
2	4236	727659.494815485419	1
2	4238	727659.494815485419	0
2	4244	728130.858624814196	1
2	4246	728130.858624814196	0
2	4253	729536.544333344115	1
2	4255	729536.544333344115	0
2	4269	730215.497265837121	1
2	4271	730215.497265837121	0
2	4294	733039.405679063055	1
2	4296	733039.405679063055	0
2	4319	735518.019227810205	1
2	4321	735518.019227810205	0
2	4345	741314.238719209211	1
2	4347	741314.238719209211	0
2	4350	741603.610997482165	1
2	4355	741630.502215390504	0
2	4370	745607.056818158591	1
2	4375	745768.00216352163	0
2	4386	746501.711406278066	1
2	4388	746501.711406278066	0
2	4412	751247.996129809296	1
2	4414	751247.996129809296	0
2	4420	752938.266113679759	1
2	4422	752938.266113679759	0
2	4446	757962.824080008363	1
2	4448	757962.824080008363	0
2	4464	762280.392152075308	1
2	4466	762280.392152075308	0
2	4472	764332.170060996585	1
2	4474	764332.170060996585	0
2	4477	764622.148448302272	1
2	4482	764642.346909842859	0
2	4497	766448.229307623859	1
2	4499	766448.229307623859	0
2	4514	769117.023835099146	1
2	4519	769262.789589892452	0
2	4539	772452.154215797792	1
2	4541	772452.154215797792	0
2	4547	772783.607816089047	1
2	4549	772783.607816089047	0
2	4583	784293.198040844015	1
2	4585	784293.198040844015	0
2	4601	791559.630319117177	1
2	4603	791559.630319117177	0
2	4619	797200.166464216227	1
2	4621	797200.166464216227	0
2	4640	812683.082476164307	1
2	4642	812683.082476164307	0
2	4649	813547.445538266417	1
2	4651	813547.445538266417	0
2	4675	819574.089136588873	1
2	4677	819574.089136588873	0
2	4684	822072.626931384023	1
2	4686	822072.626931384023	0
2	4700	823668.276702313144	1
2	4702	823668.276702313144	0
2	4709	825563.635662971604	1
2	4711	825563.635662971604	0
2	4742	829811.319531538188	1
2	4744	829811.319531538188	0
2	4759	833658.179422678572	1
2	4761	833658.179422678572	0
2	4768	835917.154597118852	1
2	4770	835917.154597118852	0
2	4777	837870.662921198422	1
2	4779	837870.662921198422	0
2	4802	840352.091033499937	1
2	4804	840352.091033499937	0
2	4810	841169.5396446785	1
2	4812	841169.5396446785	0
2	4827	843282.401115249184	1
2	4829	843282.401115249184	0
2	4843	844795.18402677219	1
2	4845	844795.18402677219	0
2	4880	858364.960365311628	1
2	4882	858364.960365311628	0
2	4888	860470.768353942421	1
2	4890	860470.768353942421	0
2	4897	861716.815922942016	1
2	4899	861716.815922942016	0
2	4922	865226.067336197043	1
2	4924	865226.067336197043	0
2	4939	867056.432895259989	1
2	4941	867056.432895259989	0
2	4961	870849.375582610709	1
2	4966	871008.846024547343	0
2	4973	873621.878213003502	1
2	4975	873621.878213003502	0
2	5003	892859.059479393626	1
2	5005	892859.059479393626	0
2	5012	896727.374743516108	1
2	5014	896727.374743516108	0
2	5038	901300.652736452656	1
2	5040	901300.652736452656	0
2	5043	901500.269056133457	1
2	5048	901577.220768913342	0
2	5072	907315.872521301853	1
2	5074	907315.872521301853	0
2	5077	907628.896906596444	1
2	5082	907656.882747094682	0
2	5089	910270.059568687495	1
2	5091	910270.059568687495	0
2	5122	914960.669415798985	1
2	5124	914960.669415798985	0
2	5131	917190.040715642738	1
2	5133	917190.040715642738	0
2	5140	918354.402784807965	1
2	5142	918354.402784807965	0
2	5165	921946.322264564559	1
2	5167	921946.322264564559	0
2	5182	924424.448830168424	1
2	5184	924424.448830168424	0
2	5207	928360.378132635675	1
2	5209	928360.378132635675	0
2	5227	940648.009682745805	1
2	5229	940648.009682745805	0
2	5248	955049.069134379683	1
2	5250	955049.069134379683	0
2	5257	957418.224072635089	1
2	5259	957418.224072635089	0
2	5283	963974.154025704971	1
2	5285	963974.154025704971	0
2	5301	969271.306871900423	1
2	5303	969271.306871900423	0
2	5318	974589.020656725279	1
2	5320	974589.020656725279	0
2	5327	976560.615828518503	1
2	5329	976560.615828518503	0
2	5344	979455.874572140441	1
2	5346	979455.874572140441	0
2	5361	981929.318651453923	1
2	5363	981929.318651453923	0
2	5387	988036.823860502835	1
2	5389	988036.823860502835	0
2	5395	989548.352046027477	1
2	5397	989548.352046027477	0
2	5400	989742.02530431088	1
2	5405	989883.297730415823	0
2	5425	992737.286911109591	1
2	5430	992964.688581049939	0
2	5456	1002868.177146132051	1
2	5458	1002868.177146132051	0
2	5464	1003828.407545802961	1
2	5466	1003828.407545802961	0
2	5492	1014937.137131823959	1
2	5494	1014937.137131823959	0
2	5501	1018218.411771752137	1
2	5503	1018218.411771752137	0
2	5514	1019340.358142605662	1
2	5519	1019452.129464785826	0
2	5534	1021636.454099958017	1
2	5536	1021636.454099958017	0
2	5542	1022256.904482835032	1
2	5544	1022256.904482835032	0
2	5559	1024532.756407067859	1
2	5561	1024532.756407067859	0
2	5593	1030821.232078405983	1
2	5595	1030821.232078405983	0
2	5602	1032235.488861894685	1
2	5604	1032235.488861894685	0
2	5619	1035883.331929122014	1
2	5621	1035883.331929122014	0
3	628	122536.317651919318	0
3	637	123205.849641179117	0
3	645	124853.980227414497	0
3	673	136447.625558701988	0
3	682	139823.811978321326	0
3	708	145366.865891806982	0
3	724	146174.127993716685	0
3	749	149863.050958962174	0
3	774	152563.795408758808	0
3	782	152881.359932292469	32.53777861159
3	799	154527.183156758864	0
3	807	154865.714468672545	333.61883432054
3	816	157164.644842501842	0
3	865	161495.976333633538	0
3	873	161808.652183913272	231.24708024136
3	882	162059.918366575123	240.93778806005
3	893	162362.65453829316	146.460015086
3	898	162600.460799870037	370.25571014516
3	923	167653.735523807351	0
3	933	171093.06658124863	0
3	961	183291.027021112098	0
3	986	186736.791335641215	0
3	1002	188764.06556196861	0
3	1011	189082.904983528429	0
3	1019	191990.42017507576	0
3	1053	195713.525396375471	0
3	1062	198075.331002346997	0
3	1070	199181.202956620422	0
3	1096	205687.206255471494	0
3	1105	207426.196717491856	0
3	1123	213887.507024348692	0
3	1148	218265.595880291798	0
3	1173	220077.129681516238	0
3	1182	222315.609382262094	0
3	1190	223185.312844389838	0
3	1234	234470.443744527492	0
3	1242	235463.162717033042	0
3	1250	235758.89348656495	121.75495284925
3	1258	236143.5437349645	0
3	1276	240823.957050406002	0
3	1301	244753.959358366994	0
3	1318	246262.196780169358	0
3	1334	248750.253198743289	0
3	1352	252102.417223415914	0
3	1360	254761.190706064541	0
3	1387	263272.048887445955	0
3	1396	266161.556209479542	0
3	1414	270640.001066590959	0
3	1440	277015.3153539056	0
3	1449	279654.27303255069	0
3	1483	286034.772126809882	0
3	1491	286512.746928310936	0
3	1508	290210.824361589458	0
3	1525	291097.54173287336	267.5817589423
3	1550	295063.958228308133	0
3	1586	297442.621202980953	232.16627128737
3	1591	297754.671808047559	355.20062140735
3	1599	299839.712472303396	0
3	1608	300425.302612829705	0
3	1616	301152.568239203336	0
3	1651	309551.619061797552	0
3	1659	311017.144985978286	0
3	1668	313443.789096216536	0
3	1710	318942.435187382917	0
3	1726	320846.953273060992	0
3	1743	321702.619476965862	0
3	1751	322490.791400369435	0
3	1759	323798.753351523788	0
3	1768	325054.757117162741	0
3	1802	332484.997885354617	0
3	1810	332806.031198300328	0
3	1835	335305.836137901967	208.2444633721
3	1844	337623.84562861529	0
3	1853	339035.102233421367	0
3	1871	346566.187838781711	0
3	1908	353889.92284855776	162.35723720308
3	1914	354194.675095916932	405.2259442494
3	1931	357466.777633014625	0
3	1939	358733.123520013755	0
3	1958	368098.549250374852	0
3	1993	376323.274470024028	0
3	2001	376593.125042286469	111.44822928487
3	2009	377223.462819863632	0
3	2035	381807.434646607788	0
3	2043	383191.485953045118	0
3	2077	388461.694653004612	0
3	2085	389094.356803114766	0
3	2102	391556.331306181501	0
3	2111	395581.789655535918	0
3	2145	399595.912533875601	0
3	2153	401996.857865805387	0
3	2162	402265.74032625248	183.76519129143
3	2187	406786.352559724708	0
3	2196	408286.533808995754	0
3	2214	415912.987942999585	0
3	2256	421865.517452623664	0
3	2281	424379.601126712533	0
3	2289	425004.981899602207	0
3	2297	425272.898365106183	245.59708147059
3	2306	426016.434252116033	0
3	2314	427911.951371967632	0
3	2340	433253.469070845721	0
3	2348	434339.281888489272	0
3	2375	441221.626980466187	0
3	2383	441965.865130583836	0
3	2410	450436.282546472549	0
3	2435	453295.536485745564	0
3	2451	455782.148701265281	0
3	2460	456097.620344507867	228.73284919073
3	2468	457527.070528111123	0
3	2495	465524.947259193747	0
3	2503	465860.610212466522	0
3	2529	471154.706948717285	0
3	2553	472568.680470122281	296.68897768495
3	2562	475396.2121911936	0
3	2578	476646.471634960517	68.905068277337
3	2604	480144.486239775501	0
3	2620	481854.155965909402	0
3	2629	483238.059087004995	0
3	2637	483566.572949713185	160.80979568661
3	2679	489923.942880284804	0
3	2687	490267.368780210561	0
3	2695	491152.635834218751	0
3	2703	491798.914360421206	0
3	2730	499033.374502080605	0
3	2746	500974.326524182401	0
3	2755	503572.810323720926	0
3	2781	508185.083656679001	0
3	2806	511059.080127841231	158.99925175313
3	2814	512791.167259326069	0
3	2831	514514.171997100913	0
3	2848	517669.475050696728	0
3	2873	520766.783718937072	0
3	2881	521640.455366812655	0
3	2899	525001.249524733082	0
3	2932	528135.23816421226	0
3	2956	529055.010068278804	0
3	2964	530206.18496246016	0
3	2972	530906.7866473015	0
3	2981	532233.125632970902	0
3	2989	532550.721801466382	156.64132468111
3	3015	539573.787220244516	0
3	3024	542819.694344159894	0
3	3059	549048.76190917815	0
3	3067	550552.662600029616	0
3	3075	551081.685060984645	0
3	3093	557337.097259918693	0
3	3114	571443.522534043351	0
3	3172	578077.185556054188	709.9839112658
3	3181	579487.095570979113	0
3	3197	580414.152885171708	0
3	3205	581091.808114764931	0
3	3224	581824.864253716464	286.9690942473
3	3230	582117.452164421274	306.65412383844
3	3246	583870.490583573019	165.01752689751
3	3263	585178.619896903977	0
3	3287	587258.185121376685	0
3	3296	588224.362851220947	0
3	3304	589293.79147993489	0
3	3320	590550.052834580555	0
3	3337	593813.436329477073	0
3	3346	595188.924008942423	0
3	3389	603602.567297054247	0
3	3397	604465.768769584062	0
3	3424	605729.342776228375	236.03247321429
3	3430	606069.407559482721	445.95102347911
3	3447	609154.844369695373	0
3	3455	609508.031369982369	0
3	3472	612485.451799427618	0.499290158544
3	3481	615315.658065238904	0
3	3523	623016.757886479609	51.037840714546
3	3539	623968.263749594428	0
3	3564	625266.370870908252	0
3	3572	626370.17329665361	0
3	3580	626754.212547254975	0
3	3589	628359.272333353924	0
3	3597	628781.803079585976	0
3	3638	632732.9474513881	0
3	3655	633990.618848019512	0
3	3663	634549.562202809433	0
3	3672	636259.008317543176	0
3	3680	636824.731573574339	0
3	3713	641010.002135683047	0
3	3721	641314.97007057396	22.8017265654
3	3730	642287.835017741608	0
3	3755	646183.821562090086	0
3	3763	647716.869897174413	0
3	3782	655460.018346787009	0
3	3801	663744.004153276083	0
3	3829	675672.239191854786	0
3	3837	675993.482470931614	101.160418869
3	3880	684597.410235952751	0
3	3888	685176.397714737199	0
3	3896	685485.487820448256	0
3	3904	685933.303869144064	0
3	3946	690544.859846268433	0
3	3954	691495.812506295876	0
3	3962	692173.983174441282	0
3	3971	693644.458437747593	0
3	3988	697658.185495789573	0
3	4022	702592.589877385201	0
3	4030	703194.758552921476	0
3	4047	705405.5661229617	192.29029322056
3	4080	708666.773905256121	0
3	4096	710014.095090472575	197.85921738352
3	4105	711245.907972268159	0
3	4121	712128.76039839064	0
3	4129	713156.105931272588	0
3	4146	715549.625836548075	0
3	4163	717907.135722244576	0
3	4180	721313.747164204166	0
3	4205	724287.586402216545	0
3	4222	726096.715223238598	0
3	4230	726579.943967538585	0
3	4263	729828.448743314486	136.33092154302
3	4279	731276.032549746319	0
3	4287	731770.979691440709	0
3	4304	733315.812868061085	91.12580974919
3	4312	734567.241475001085	0
3	4329	736885.135307203453	0
3	4338	739274.465895018763	0
3	4364	745492.76883825882	0
3	4380	746106.296653991324	563.24292876638
3	4397	749436.677976020096	0
3	4405	749995.702817563819	0
3	4431	755772.626136914277	0
3	4440	756410.535215049091	0
3	4457	761731.652045285143	0
3	4491	766106.998856218298	0
3	4508	769011.601322656503	0
3	4524	769525.948548428499	499.1563640875
3	4532	770579.662059939196	0
3	4557	773270.01130307974	0
3	4566	776302.648999631449	0
3	4574	776571.233885492425	168.31358550298
3	4594	788561.949352154501	0
3	4613	795839.068791568395	0
3	4631	801311.340530908086	0
3	4660	816729.029424853368	0
3	4668	817335.885784747539	0
3	4694	823250.331599814051	0
3	4719	825916.820288186664	333.46031734991
3	4727	827629.701588486948	0
3	4736	828741.412994596372	0
3	4753	833293.576823945597	0
3	4787	838263.252975908535	0
3	4796	840003.532105170895	0
3	4820	841725.498659421785	0
3	4837	843820.799622776527	0
3	4853	845165.016193389649	0
3	4862	847161.015042302242	0
3	4870	848523.673125437337	0
3	4907	863017.073030007691	0
3	4916	864349.911495820928	0
3	4932	866039.890907470511	0
3	4949	869052.230882395322	0
3	4958	870713.745759115444	0
3	4983	874851.726621416892	0
3	4992	877367.729403414745	0
3	5023	897054.916262680646	246.93308554115
3	5032	900770.634536542381	0
3	5057	905369.42399569456	0
3	5065	905653.227711648849	262.35866449466
3	5099	911451.168727004069	0
3	5108	912029.489012531647	0
3	5116	913855.968268254821	0
3	5150	918661.883271495009	66.309268003806
3	5158	920664.162095900681	0
3	5175	922253.594100784617	0
3	5192	925563.354778436362	0
3	5201	927560.982040002515	0
3	5218	932230.159696948025	0
3	5238	944404.808373789141	0
3	5267	959009.985705230056	0
3	5276	961784.846503479625	0
3	5294	967796.468566466834	0
3	5312	973312.64896714313	0
3	5338	978609.431661781618	0
3	5354	980792.335207483531	0
3	5371	983756.704705477402	0
3	5380	986142.517096331969	0
3	5414	991908.161686886526	0
3	5422	992662.328483607841	0
3	5439	993478.519094073869	0
3	5448	996338.033017507109	0
3	5475	1006315.962399759992	0
3	5483	1007911.045709694835	0
3	5511	1019165.78234671455	0
3	5528	1021173.601313952739	0
3	5553	1023469.097129764877	0
3	5569	1025704.982323832384	0
3	5578	1026397.17866657856	0
3	5586	1028154.490985422148	0
3	5612	1034418.857946826265	0
3	5629	1036563.979772364757	0
4	626	122536.317651919318	1
4	628	122536.317651919318	0
4	635	123205.849641179117	1
4	637	123205.849641179117	0
4	643	124853.980227414497	1
4	645	124853.980227414497	0
4	671	136447.625558701988	1
4	673	136447.625558701988	0
4	680	139823.811978321326	1
4	682	139823.811978321326	0
4	706	145366.865891806982	1
4	708	145366.865891806982	0
4	722	146174.127993716685	1
4	724	146174.127993716685	0
4	747	149863.050958962174	1
4	749	149863.050958962174	0
4	772	152563.795408758808	1
4	774	152563.795408758808	0
4	777	152848.822153680879	1
4	782	152881.359932292469	0
4	797	154527.183156758864	1
4	799	154527.183156758864	0
4	802	154532.095634352006	1
4	807	154865.714468672545	0
4	814	157164.644842501842	1
4	816	157164.644842501842	0
4	863	161495.976333633538	1
4	865	161495.976333633538	0
4	868	161577.405103671907	1
4	873	161808.652183913272	0
4	876	161818.980578515075	1
4	882	162059.918366575123	0
4	885	162216.194523207158	1
4	888	162230.205089724873	2
4	893	162362.65453829316	1
4	898	162600.460799870037	0
4	921	167653.735523807351	1
4	923	167653.735523807351	0
4	931	171093.06658124863	1
4	933	171093.06658124863	0
4	959	183291.027021112098	1
4	961	183291.027021112098	0
4	984	186736.791335641215	1
4	986	186736.791335641215	0
4	1000	188764.06556196861	1
4	1002	188764.06556196861	0
4	1009	189082.904983528429	1
4	1011	189082.904983528429	0
4	1017	191990.42017507576	1
4	1019	191990.42017507576	0
4	1051	195713.525396375471	1
4	1053	195713.525396375471	0
4	1060	198075.331002346997	1
4	1062	198075.331002346997	0
4	1068	199181.202956620422	1
4	1070	199181.202956620422	0
4	1094	205687.206255471494	1
4	1096	205687.206255471494	0
4	1103	207426.196717491856	1
4	1105	207426.196717491856	0
4	1121	213887.507024348692	1
4	1123	213887.507024348692	0
4	1146	218265.595880291798	1
4	1148	218265.595880291798	0
4	1171	220077.129681516238	1
4	1173	220077.129681516238	0
4	1180	222315.609382262094	1
4	1182	222315.609382262094	0
4	1188	223185.312844389838	1
4	1190	223185.312844389838	0
4	1232	234470.443744527492	1
4	1234	234470.443744527492	0
4	1240	235463.162717033042	1
4	1242	235463.162717033042	0
4	1245	235637.138533715701	1
4	1250	235758.89348656495	0
4	1256	236143.5437349645	1
4	1258	236143.5437349645	0
4	1274	240823.957050406002	1
4	1276	240823.957050406002	0
4	1299	244753.959358366994	1
4	1301	244753.959358366994	0
4	1316	246262.196780169358	1
4	1318	246262.196780169358	0
4	1332	248750.253198743289	1
4	1334	248750.253198743289	0
4	1350	252102.417223415914	1
4	1352	252102.417223415914	0
4	1358	254761.190706064541	1
4	1360	254761.190706064541	0
4	1385	263272.048887445955	1
4	1387	263272.048887445955	0
4	1394	266161.556209479542	1
4	1396	266161.556209479542	0
4	1412	270640.001066590959	1
4	1414	270640.001066590959	0
4	1438	277015.3153539056	1
4	1440	277015.3153539056	0
4	1447	279654.27303255069	1
4	1449	279654.27303255069	0
4	1481	286034.772126809882	1
4	1483	286034.772126809882	0
4	1489	286512.746928310936	1
4	1491	286512.746928310936	0
4	1506	290210.824361589458	1
4	1508	290210.824361589458	0
4	1519	290829.959973931061	1
4	1525	291097.54173287336	0
4	1548	295063.958228308133	1
4	1550	295063.958228308133	0
4	1578	297210.454931693586	1
4	1581	297399.471186640206	2
4	1586	297442.621202980953	1
4	1591	297754.671808047559	0
4	1597	299839.712472303396	1
4	1599	299839.712472303396	0
4	1606	300425.302612829705	1
4	1608	300425.302612829705	0
4	1614	301152.568239203336	1
4	1616	301152.568239203336	0
4	1649	309551.619061797552	1
4	1651	309551.619061797552	0
4	1657	311017.144985978286	1
4	1659	311017.144985978286	0
4	1666	313443.789096216536	1
4	1668	313443.789096216536	0
4	1708	318942.435187382917	1
4	1710	318942.435187382917	0
4	1724	320846.953273060992	1
4	1726	320846.953273060992	0
4	1741	321702.619476965862	1
4	1743	321702.619476965862	0
4	1749	322490.791400369435	1
4	1751	322490.791400369435	0
4	1757	323798.753351523788	1
4	1759	323798.753351523788	0
4	1766	325054.757117162741	1
4	1768	325054.757117162741	0
4	1800	332484.997885354617	1
4	1802	332484.997885354617	0
4	1808	332806.031198300328	1
4	1810	332806.031198300328	0
4	1830	335097.59167452987	1
4	1835	335305.836137901967	0
4	1842	337623.84562861529	1
4	1844	337623.84562861529	0
4	1851	339035.102233421367	1
4	1853	339035.102233421367	0
4	1869	346566.187838781711	1
4	1871	346566.187838781711	0
4	1900	353727.565611354684	1
4	1903	353789.449151667536	2
4	1908	353889.92284855776	1
4	1914	354194.675095916932	0
4	1929	357466.777633014625	1
4	1931	357466.777633014625	0
4	1937	358733.123520013755	1
4	1939	358733.123520013755	0
4	1956	368098.549250374852	1
4	1958	368098.549250374852	0
4	1991	376323.274470024028	1
4	1993	376323.274470024028	0
4	1996	376481.676813001599	1
4	2001	376593.125042286469	0
4	2007	377223.462819863632	1
4	2009	377223.462819863632	0
4	2033	381807.434646607788	1
4	2035	381807.434646607788	0
4	2041	383191.485953045118	1
4	2043	383191.485953045118	0
4	2075	388461.694653004612	1
4	2077	388461.694653004612	0
4	2083	389094.356803114766	1
4	2085	389094.356803114766	0
4	2100	391556.331306181501	1
4	2102	391556.331306181501	0
4	2109	395581.789655535918	1
4	2111	395581.789655535918	0
4	2143	399595.912533875601	1
4	2145	399595.912533875601	0
4	2151	401996.857865805387	1
4	2153	401996.857865805387	0
4	2157	402081.975134961054	1
4	2162	402265.74032625248	0
4	2185	406786.352559724708	1
4	2187	406786.352559724708	0
4	2194	408286.533808995754	1
4	2196	408286.533808995754	0
4	2212	415912.987942999585	1
4	2214	415912.987942999585	0
4	2254	421865.517452623664	1
4	2256	421865.517452623664	0
4	2279	424379.601126712533	1
4	2281	424379.601126712533	0
4	2287	425004.981899602207	1
4	2289	425004.981899602207	0
4	2292	425027.301283635596	1
4	2297	425272.898365106183	0
4	2304	426016.434252116033	1
4	2306	426016.434252116033	0
4	2312	427911.951371967632	1
4	2314	427911.951371967632	0
4	2338	433253.469070845721	1
4	2340	433253.469070845721	0
4	2346	434339.281888489272	1
4	2348	434339.281888489272	0
4	2373	441221.626980466187	1
4	2375	441221.626980466187	0
4	2381	441965.865130583836	1
4	2383	441965.865130583836	0
4	2408	450436.282546472549	1
4	2410	450436.282546472549	0
4	2433	453295.536485745564	1
4	2435	453295.536485745564	0
4	2449	455782.148701265281	1
4	2451	455782.148701265281	0
4	2454	455868.887495317133	1
4	2460	456097.620344507867	0
4	2466	457527.070528111123	1
4	2468	457527.070528111123	0
4	2493	465524.947259193747	1
4	2495	465524.947259193747	0
4	2501	465860.610212466522	1
4	2503	465860.610212466522	0
4	2527	471154.706948717285	1
4	2529	471154.706948717285	0
4	2548	472271.99149243733	1
4	2553	472568.680470122281	0
4	2560	475396.2121911936	1
4	2562	475396.2121911936	0
4	2573	476577.56656668318	1
4	2578	476646.471634960517	0
4	2602	480144.486239775501	1
4	2604	480144.486239775501	0
4	2618	481854.155965909402	1
4	2620	481854.155965909402	0
4	2627	483238.059087004995	1
4	2629	483238.059087004995	0
4	2632	483405.763154026573	1
4	2637	483566.572949713185	0
4	2677	489923.942880284804	1
4	2679	489923.942880284804	0
4	2685	490267.368780210561	1
4	2687	490267.368780210561	0
4	2693	491152.635834218751	1
4	2695	491152.635834218751	0
4	2701	491798.914360421206	1
4	2703	491798.914360421206	0
4	2728	499033.374502080605	1
4	2730	499033.374502080605	0
4	2744	500974.326524182401	1
4	2746	500974.326524182401	0
4	2753	503572.810323720926	1
4	2755	503572.810323720926	0
4	2779	508185.083656679001	1
4	2781	508185.083656679001	0
4	2801	510900.080876088098	1
4	2806	511059.080127841231	0
4	2812	512791.167259326069	1
4	2814	512791.167259326069	0
4	2829	514514.171997100913	1
4	2831	514514.171997100913	0
4	2846	517669.475050696728	1
4	2848	517669.475050696728	0
4	2871	520766.783718937072	1
4	2873	520766.783718937072	0
4	2879	521640.455366812655	1
4	2881	521640.455366812655	0
4	2897	525001.249524733082	1
4	2899	525001.249524733082	0
4	2930	528135.23816421226	1
4	2932	528135.23816421226	0
4	2954	529055.010068278804	1
4	2956	529055.010068278804	0
4	2962	530206.18496246016	1
4	2964	530206.18496246016	0
4	2970	530906.7866473015	1
4	2972	530906.7866473015	0
4	2979	532233.125632970902	1
4	2981	532233.125632970902	0
4	2984	532394.080476785273	1
4	2989	532550.721801466382	0
4	3013	539573.787220244516	1
4	3015	539573.787220244516	0
4	3022	542819.694344159894	1
4	3024	542819.694344159894	0
4	3057	549048.76190917815	1
4	3059	549048.76190917815	0
4	3065	550552.662600029616	1
4	3067	550552.662600029616	0
4	3073	551081.685060984645	1
4	3075	551081.685060984645	0
4	3091	557337.097259918693	1
4	3093	557337.097259918693	0
4	3112	571443.522534043351	1
4	3114	571443.522534043351	0
4	3154	577367.20164478839	1
4	3172	578077.185556054188	0
4	3179	579487.095570979113	1
4	3181	579487.095570979113	0
4	3195	580414.152885171708	1
4	3197	580414.152885171708	0
4	3203	581091.808114764931	1
4	3205	581091.808114764931	0
4	3216	581537.895159469164	1
4	3219	581810.798040582833	2
4	3224	581824.864253716464	1
4	3230	582117.452164421274	0
4	3241	583705.473056675508	1
4	3246	583870.490583573019	0
4	3261	585178.619896903977	1
4	3263	585178.619896903977	0
4	3285	587258.185121376685	1
4	3287	587258.185121376685	0
4	3294	588224.362851220947	1
4	3296	588224.362851220947	0
4	3302	589293.79147993489	1
4	3304	589293.79147993489	0
4	3318	590550.052834580555	1
4	3320	590550.052834580555	0
4	3335	593813.436329477073	1
4	3337	593813.436329477073	0
4	3344	595188.924008942423	1
4	3346	595188.924008942423	0
4	3387	603602.567297054247	1
4	3389	603602.567297054247	0
4	3395	604465.768769584062	1
4	3397	604465.768769584062	0
4	3416	605493.310303014085	1
4	3419	605623.456536003614	2
4	3424	605729.342776228375	1
4	3430	606069.407559482721	0
4	3445	609154.844369695373	1
4	3447	609154.844369695373	0
4	3453	609508.031369982369	1
4	3455	609508.031369982369	0
4	3467	612484.952509269074	1
4	3472	612485.451799427618	0
4	3479	615315.658065238904	1
4	3481	615315.658065238904	0
4	3518	622965.720045765063	1
4	3523	623016.757886479609	0
4	3537	623968.263749594428	1
4	3539	623968.263749594428	0
4	3562	625266.370870908252	1
4	3564	625266.370870908252	0
4	3570	626370.17329665361	1
4	3572	626370.17329665361	0
4	3578	626754.212547254975	1
4	3580	626754.212547254975	0
4	3587	628359.272333353924	1
4	3589	628359.272333353924	0
4	3595	628781.803079585976	1
4	3597	628781.803079585976	0
4	3636	632732.9474513881	1
4	3638	632732.9474513881	0
4	3653	633990.618848019512	1
4	3655	633990.618848019512	0
4	3661	634549.562202809433	1
4	3663	634549.562202809433	0
4	3670	636259.008317543176	1
4	3672	636259.008317543176	0
4	3678	636824.731573574339	1
4	3680	636824.731573574339	0
4	3711	641010.002135683047	1
4	3713	641010.002135683047	0
4	3716	641292.16834400856	1
4	3721	641314.97007057396	0
4	3728	642287.835017741608	1
4	3730	642287.835017741608	0
4	3753	646183.821562090086	1
4	3755	646183.821562090086	0
4	3761	647716.869897174413	1
4	3763	647716.869897174413	0
4	3780	655460.018346787009	1
4	3782	655460.018346787009	0
4	3799	663744.004153276083	1
4	3801	663744.004153276083	0
4	3827	675672.239191854786	1
4	3829	675672.239191854786	0
4	3832	675892.322052062614	1
4	3837	675993.482470931614	0
4	3878	684597.410235952751	1
4	3880	684597.410235952751	0
4	3886	685176.397714737199	1
4	3888	685176.397714737199	0
4	3894	685485.487820448256	1
4	3896	685485.487820448256	0
4	3902	685933.303869144064	1
4	3904	685933.303869144064	0
4	3944	690544.859846268433	1
4	3946	690544.859846268433	0
4	3952	691495.812506295876	1
4	3954	691495.812506295876	0
4	3960	692173.983174441282	1
4	3962	692173.983174441282	0
4	3969	693644.458437747593	1
4	3971	693644.458437747593	0
4	3986	697658.185495789573	1
4	3988	697658.185495789573	0
4	4020	702592.589877385201	1
4	4022	702592.589877385201	0
4	4028	703194.758552921476	1
4	4030	703194.758552921476	0
4	4042	705213.275829741137	1
4	4047	705405.5661229617	0
4	4078	708666.773905256121	1
4	4080	708666.773905256121	0
4	4091	709816.235873089057	1
4	4096	710014.095090472575	0
4	4103	711245.907972268159	1
4	4105	711245.907972268159	0
4	4119	712128.76039839064	1
4	4121	712128.76039839064	0
4	4127	713156.105931272588	1
4	4129	713156.105931272588	0
4	4144	715549.625836548075	1
4	4146	715549.625836548075	0
4	4161	717907.135722244576	1
4	4163	717907.135722244576	0
4	4178	721313.747164204166	1
4	4180	721313.747164204166	0
4	4203	724287.586402216545	1
4	4205	724287.586402216545	0
4	4220	726096.715223238598	1
4	4222	726096.715223238598	0
4	4228	726579.943967538585	1
4	4230	726579.943967538585	0
4	4258	729692.117821771465	1
4	4263	729828.448743314486	0
4	4277	731276.032549746319	1
4	4279	731276.032549746319	0
4	4285	731770.979691440709	1
4	4287	731770.979691440709	0
4	4299	733224.687058311895	1
4	4304	733315.812868061085	0
4	4310	734567.241475001085	1
4	4312	734567.241475001085	0
4	4327	736885.135307203453	1
4	4329	736885.135307203453	0
4	4336	739274.465895018763	1
4	4338	739274.465895018763	0
4	4362	745492.76883825882	1
4	4364	745492.76883825882	0
4	4367	745543.053725224944	1
4	4380	746106.296653991324	0
4	4395	749436.677976020096	1
4	4397	749436.677976020096	0
4	4403	749995.702817563819	1
4	4405	749995.702817563819	0
4	4429	755772.626136914277	1
4	4431	755772.626136914277	0
4	4438	756410.535215049091	1
4	4440	756410.535215049091	0
4	4455	761731.652045285143	1
4	4457	761731.652045285143	0
4	4489	766106.998856218298	1
4	4491	766106.998856218298	0
4	4506	769011.601322656503	1
4	4508	769011.601322656503	0
4	4511	769026.792184341001	1
4	4524	769525.948548428499	0
4	4530	770579.662059939196	1
4	4532	770579.662059939196	0
4	4555	773270.01130307974	1
4	4557	773270.01130307974	0
4	4564	776302.648999631449	1
4	4566	776302.648999631449	0
4	4569	776402.920299989446	1
4	4574	776571.233885492425	0
4	4592	788561.949352154501	1
4	4594	788561.949352154501	0
4	4611	795839.068791568395	1
4	4613	795839.068791568395	0
4	4629	801311.340530908086	1
4	4631	801311.340530908086	0
4	4658	816729.029424853368	1
4	4660	816729.029424853368	0
4	4666	817335.885784747539	1
4	4668	817335.885784747539	0
4	4692	823250.331599814051	1
4	4694	823250.331599814051	0
4	4714	825583.359970836751	1
4	4719	825916.820288186664	0
4	4725	827629.701588486948	1
4	4727	827629.701588486948	0
4	4734	828741.412994596372	1
4	4736	828741.412994596372	0
4	4751	833293.576823945597	1
4	4753	833293.576823945597	0
4	4785	838263.252975908535	1
4	4787	838263.252975908535	0
4	4794	840003.532105170895	1
4	4796	840003.532105170895	0
4	4818	841725.498659421785	1
4	4820	841725.498659421785	0
4	4835	843820.799622776527	1
4	4837	843820.799622776527	0
4	4851	845165.016193389649	1
4	4853	845165.016193389649	0
4	4860	847161.015042302242	1
4	4862	847161.015042302242	0
4	4868	848523.673125437337	1
4	4870	848523.673125437337	0
4	4905	863017.073030007691	1
4	4907	863017.073030007691	0
4	4914	864349.911495820928	1
4	4916	864349.911495820928	0
4	4930	866039.890907470511	1
4	4932	866039.890907470511	0
4	4947	869052.230882395322	1
4	4949	869052.230882395322	0
4	4956	870713.745759115444	1
4	4958	870713.745759115444	0
4	4981	874851.726621416892	1
4	4983	874851.726621416892	0
4	4990	877367.729403414745	1
4	4992	877367.729403414745	0
4	5017	896807.983177139494	1
4	5023	897054.916262680646	0
4	5030	900770.634536542381	1
4	5032	900770.634536542381	0
4	5055	905369.42399569456	1
4	5057	905369.42399569456	0
4	5060	905390.869047154192	1
4	5065	905653.227711648849	0
4	5097	911451.168727004069	1
4	5099	911451.168727004069	0
4	5106	912029.489012531647	1
4	5108	912029.489012531647	0
4	5114	913855.968268254821	1
4	5116	913855.968268254821	0
4	5145	918595.574003491203	1
4	5150	918661.883271495009	0
4	5156	920664.162095900681	1
4	5158	920664.162095900681	0
4	5173	922253.594100784617	1
4	5175	922253.594100784617	0
4	5190	925563.354778436362	1
4	5192	925563.354778436362	0
4	5199	927560.982040002515	1
4	5201	927560.982040002515	0
4	5216	932230.159696948025	1
4	5218	932230.159696948025	0
4	5236	944404.808373789141	1
4	5238	944404.808373789141	0
4	5265	959009.985705230056	1
4	5267	959009.985705230056	0
4	5274	961784.846503479625	1
4	5276	961784.846503479625	0
4	5292	967796.468566466834	1
4	5294	967796.468566466834	0
4	5310	973312.64896714313	1
4	5312	973312.64896714313	0
4	5336	978609.431661781618	1
4	5338	978609.431661781618	0
4	5352	980792.335207483531	1
4	5354	980792.335207483531	0
4	5369	983756.704705477402	1
4	5371	983756.704705477402	0
4	5378	986142.517096331969	1
4	5380	986142.517096331969	0
4	5412	991908.161686886526	1
4	5414	991908.161686886526	0
4	5420	992662.328483607841	1
4	5422	992662.328483607841	0
4	5437	993478.519094073869	1
4	5439	993478.519094073869	0
4	5446	996338.033017507109	1
4	5448	996338.033017507109	0
4	5473	1006315.962399759992	1
4	5475	1006315.962399759992	0
4	5481	1007911.045709694835	1
4	5483	1007911.045709694835	0
4	5509	1019165.78234671455	1
4	5511	1019165.78234671455	0
4	5526	1021173.601313952739	1
4	5528	1021173.601313952739	0
4	5551	1023469.097129764877	1
4	5553	1023469.097129764877	0
4	5567	1025704.982323832384	1
4	5569	1025704.982323832384	0
4	5576	1026397.17866657856	1
4	5578	1026397.17866657856	0
4	5584	1028154.490985422148	1
4	5586	1028154.490985422148	0
4	5610	1034418.857946826265	1
4	5612	1034418.857946826265	0
4	5627	1036563.979772364757	1
4	5629	1036563.979772364757	0
5	633	123000	2
5	650	126000	0
5	651	129000	0
5	652	132000	0
5	661	135000	1
5	678	138000	1
5	687	141000	0
5	704	144000	2
5	729	147000	1
5	751	150000	2
5	784	153000	2
5	812	156000	1
5	861	159000	5
5	878	162000	0
5	911	165000	1
5	928	168000	1
5	929	171000	0
5	938	174000	0
5	939	177000	0
5	940	180000	0
5	954	183000	1
5	982	186000	3
5	1004	189000	1
5	1021	192000	0
5	1041	195000	2
5	1058	198000	1
5	1075	201000	0
5	1089	204000	1
5	1101	207000	1
5	1115	210000	0
5	1119	213000	1
5	1136	216000	1
5	1161	219000	2
5	1178	222000	1
5	1195	225000	0
5	1196	228000	0
5	1205	231000	1
5	1230	234000	3
5	1268	237000	0
5	1272	240000	1
5	1297	243000	2
5	1314	246000	1
5	1336	249000	1
5	1348	252000	1
5	1362	255000	0
5	1366	258000	0
5	1375	261000	1
5	1392	264000	1
5	1409	267000	1
5	1410	270000	0
5	1419	273000	0
5	1433	276000	1
5	1445	279000	1
5	1454	282000	0
5	1471	285000	2
5	1504	288000	2
5	1521	291000	0
5	1546	294000	3
5	1571	297000	2
5	1601	300000	1
5	1621	303000	0
5	1627	306000	0
5	1639	309000	2
5	1664	312000	1
5	1681	315000	1
5	1698	318000	2
5	1728	321000	2
5	1761	324000	1
5	1773	327000	0
5	1790	330000	2
5	1812	333000	1
5	1840	336000	2
5	1849	339000	0
5	1858	342000	0
5	1867	345000	1
5	1876	348000	0
5	1893	351000	2
5	1910	354000	1
5	1927	357000	1
5	1944	360000	0
5	1945	363000	0
5	1954	366000	1
5	1963	369000	0
5	1964	372000	0
5	1989	375000	3
5	2022	378000	1
5	2031	381000	1
5	2048	384000	0
5	2065	387000	2
5	2090	390000	1
5	2107	393000	1
5	2116	396000	0
5	2141	399000	3
5	2155	402000	0
5	2183	405000	2
5	2192	408000	0
5	2201	411000	0
5	2210	414000	1
5	2219	417000	0
5	2228	420000	1
5	2269	423000	4
5	2302	426000	1
5	2324	429000	0
5	2336	432000	2
5	2353	435000	0
5	2359	438000	0
5	2371	441000	2
5	2388	444000	0
5	2394	447000	0
5	2406	450000	2
5	2431	453000	2
5	2456	456000	1
5	2473	459000	0
5	2490	462000	2
5	2491	465000	0
5	2516	468000	1
5	2525	471000	1
5	2558	474000	2
5	2583	477000	1
5	2600	480000	2
5	2625	483000	1
5	2647	486000	0
5	2675	489000	4
5	2705	492000	0
5	2709	495000	0
5	2726	498000	2
5	2748	501000	1
5	2760	504000	0
5	2777	507000	2
5	2794	510000	1
5	2816	513000	1
5	2836	516000	1
5	2861	519000	2
5	2886	522000	1
5	2895	525000	1
5	2928	528000	3
5	2974	531000	2
5	2994	534000	0
5	3003	537000	1
5	3020	540000	1
5	3026	543000	0
5	3038	546000	1
5	3055	549000	2
5	3080	552000	0
5	3089	555000	1
5	3098	558000	0
5	3099	561000	0
5	3100	564000	0
5	3101	567000	0
5	3110	570000	1
5	3119	573000	0
5	3133	576000	1
5	3177	579000	5
5	3226	582000	2
5	3259	585000	2
5	3292	588000	2
5	3325	591000	1
5	3339	594000	1
5	3351	597000	0
5	3360	600000	1
5	3385	603000	3
5	3426	606000	2
5	3443	609000	1
5	3460	612000	0
5	3477	615000	1
5	3486	618000	0
5	3511	621000	3
5	3541	624000	2
5	3582	627000	2
5	3615	630000	1
5	3640	633000	3
5	3668	636000	1
5	3709	639000	3
5	3726	642000	0
5	3751	645000	2
5	3768	648000	0
5	3769	651000	0
5	3778	654000	1
5	3787	657000	0
5	3793	660000	0
5	3797	663000	1
5	3806	666000	0
5	3807	669000	0
5	3816	672000	1
5	3825	675000	1
5	3842	678000	0
5	3843	681000	0
5	3876	684000	4
5	3914	687000	0
5	3942	690000	4
5	3967	693000	0
5	3984	696000	1
5	4006	699000	1
5	4018	702000	2
5	4035	705000	0
5	4068	708000	3
5	4101	711000	2
5	4142	714000	2
5	4151	717000	0
5	4168	720000	1
5	4198	723000	2
5	4218	726000	2
5	4251	729000	2
5	4289	732000	2
5	4317	735000	1
5	4334	738000	1
5	4343	741000	0
5	4360	744000	2
5	4393	747000	2
5	4407	750000	0
5	4424	753000	1
5	4433	756000	1
5	4453	759000	1
5	4459	762000	0
5	4487	765000	3
5	4504	768000	1
5	4537	771000	1
5	4562	774000	2
5	4579	777000	0
5	4580	780000	0
5	4581	783000	0
5	4590	786000	1
5	4599	789000	0
5	4608	792000	1
5	4609	795000	0
5	4626	798000	1
5	4627	801000	0
5	4636	804000	0
5	4637	807000	0
5	4638	810000	0
5	4647	813000	1
5	4656	816000	1
5	4673	819000	0
5	4682	822000	1
5	4707	825000	2
5	4732	828000	1
5	4749	831000	1
5	4766	834000	1
5	4775	837000	1
5	4792	840000	1
5	4825	843000	2
5	4858	846000	2
5	4875	849000	0
5	4876	852000	0
5	4877	855000	0
5	4878	858000	0
5	4895	861000	2
5	4912	864000	1
5	4937	867000	1
5	4954	870000	1
5	4971	873000	1
5	4988	876000	1
5	4997	879000	0
5	4998	882000	0
5	4999	885000	0
5	5000	888000	0
5	5001	891000	0
5	5010	894000	1
5	5019	897000	0
5	5028	900000	1
5	5053	903000	2
5	5070	906000	0
5	5087	909000	2
5	5104	912000	1
5	5126	915000	0
5	5138	918000	2
5	5163	921000	1
5	5180	924000	1
5	5197	927000	1
5	5214	930000	1
5	5223	933000	0
5	5224	936000	0
5	5225	939000	0
5	5234	942000	1
5	5243	945000	0
5	5244	948000	0
5	5245	951000	0
5	5246	954000	0
5	5255	957000	1
5	5272	960000	1
5	5281	963000	0
5	5290	966000	1
5	5299	969000	0
5	5308	972000	1
5	5325	975000	1
5	5334	978000	1
5	5356	981000	1
5	5373	984000	1
5	5385	987000	0
5	5407	990000	2
5	5432	993000	1
5	5444	996000	1
5	5453	999000	0
5	5454	1002000	0
5	5471	1005000	2
5	5485	1008000	0
5	5489	1011000	0
5	5490	1014000	0
5	5499	1017000	1
5	5524	1020000	2
5	5549	1023000	2
5	5574	1026000	1
5	5591	1029000	0
5	5600	1032000	1
5	5617	1035000	1
6	633	123000	1
6	650	126000	2
6	651	129000	0
6	652	132000	0
6	661	135000	0
6	678	138000	1
6	687	141000	1
6	704	144000	0
6	729	147000	2
6	751	150000	0
6	784	153000	2
6	812	156000	3
6	861	159000	1
6	878	162000	1
6	911	165000	4
6	928	168000	1
6	929	171000	0
6	938	174000	1
6	939	177000	0
6	940	180000	0
6	954	183000	0
6	982	186000	1
6	1004	189000	1
6	1021	192000	2
6	1041	195000	1
6	1058	198000	1
6	1075	201000	2
6	1089	204000	0
6	1101	207000	1
6	1115	210000	1
6	1119	213000	0
6	1136	216000	1
6	1161	219000	1
6	1178	222000	1
6	1195	225000	2
6	1196	228000	0
6	1205	231000	0
6	1230	234000	0
6	1268	237000	4
6	1272	240000	0
6	1297	243000	1
6	1314	246000	1
6	1336	249000	1
6	1348	252000	1
6	1362	255000	1
6	1366	258000	1
6	1375	261000	0
6	1392	264000	1
6	1409	267000	1
6	1410	270000	0
6	1419	273000	1
6	1433	276000	0
6	1445	279000	1
6	1454	282000	1
6	1471	285000	0
6	1504	288000	2
6	1521	291000	1
6	1546	294000	1
6	1571	297000	1
6	1601	300000	2
6	1621	303000	3
6	1627	306000	0
6	1639	309000	0
6	1664	312000	2
6	1681	315000	1
6	1698	318000	0
6	1728	321000	1
6	1761	324000	3
6	1773	327000	2
6	1790	330000	0
6	1812	333000	1
6	1840	336000	2
6	1849	339000	1
6	1858	342000	1
6	1867	345000	0
6	1876	348000	1
6	1893	351000	0
6	1910	354000	0
6	1927	357000	2
6	1944	360000	2
6	1945	363000	0
6	1954	366000	0
6	1963	369000	1
6	1964	372000	0
6	1989	375000	0
6	2022	378000	3
6	2031	381000	0
6	2048	384000	2
6	2065	387000	0
6	2090	390000	2
6	2107	393000	1
6	2116	396000	1
6	2141	399000	0
6	2155	402000	1
6	2183	405000	2
6	2192	408000	1
6	2201	411000	1
6	2210	414000	0
6	2219	417000	1
6	2228	420000	0
6	2269	423000	1
6	2302	426000	3
6	2324	429000	2
6	2336	432000	0
6	2353	435000	2
6	2359	438000	0
6	2371	441000	0
6	2388	444000	2
6	2394	447000	0
6	2406	450000	0
6	2431	453000	1
6	2456	456000	1
6	2473	459000	3
6	2490	462000	0
6	2491	465000	0
6	2516	468000	2
6	2525	471000	0
6	2558	474000	2
6	2583	477000	2
6	2600	480000	0
6	2625	483000	2
6	2647	486000	2
6	2675	489000	0
6	2705	492000	3
6	2709	495000	1
6	2726	498000	0
6	2748	501000	1
6	2760	504000	2
6	2777	507000	0
6	2794	510000	1
6	2816	513000	1
6	2836	516000	2
6	2861	519000	1
6	2886	522000	2
6	2895	525000	0
6	2928	528000	1
6	2974	531000	3
6	2994	534000	3
6	3003	537000	0
6	3020	540000	1
6	3026	543000	0
6	3038	546000	1
6	3055	549000	0
6	3080	552000	3
6	3089	555000	0
6	3098	558000	1
6	3099	561000	0
6	3100	564000	0
6	3101	567000	0
6	3110	570000	0
6	3119	573000	1
6	3133	576000	0
6	3177	579000	1
6	3226	582000	3
6	3259	585000	3
6	3292	588000	2
6	3325	591000	3
6	3339	594000	0
6	3351	597000	2
6	3360	600000	0
6	3385	603000	0
6	3426	606000	2
6	3443	609000	2
6	3460	612000	2
6	3477	615000	1
6	3486	618000	1
6	3511	621000	0
6	3541	624000	1
6	3582	627000	3
6	3615	630000	3
6	3640	633000	0
6	3668	636000	3
6	3709	639000	2
6	3726	642000	2
6	3751	645000	1
6	3768	648000	2
6	3769	651000	0
6	3778	654000	0
6	3787	657000	1
6	3793	660000	0
6	3797	663000	0
6	3806	666000	1
6	3807	669000	0
6	3816	672000	0
6	3825	675000	0
6	3842	678000	2
6	3843	681000	0
6	3876	684000	0
6	3914	687000	4
6	3942	690000	0
6	3967	693000	3
6	3984	696000	1
6	4006	699000	1
6	4018	702000	0
6	4035	705000	2
6	4068	708000	1
6	4101	711000	2
6	4142	714000	3
6	4151	717000	1
6	4168	720000	1
6	4198	723000	1
6	4218	726000	1
6	4251	729000	2
6	4289	732000	2
6	4317	735000	3
6	4334	738000	1
6	4343	741000	1
6	4360	744000	0
6	4393	747000	2
6	4407	750000	1
6	4424	753000	1
6	4433	756000	0
6	4453	759000	2
6	4459	762000	0
6	4487	765000	1
6	4504	768000	1
6	4537	771000	3
6	4562	774000	1
6	4579	777000	2
6	4580	780000	0
6	4581	783000	0
6	4590	786000	0
6	4599	789000	1
6	4608	792000	0
6	4609	795000	0
6	4626	798000	1
6	4627	801000	0
6	4636	804000	1
6	4637	807000	0
6	4638	810000	0
6	4647	813000	0
6	4656	816000	0
6	4673	819000	2
6	4682	822000	0
6	4707	825000	1
6	4732	828000	2
6	4749	831000	1
6	4766	834000	1
6	4775	837000	0
6	4792	840000	1
6	4825	843000	2
6	4858	846000	2
6	4875	849000	2
6	4876	852000	0
6	4877	855000	0
6	4878	858000	0
6	4895	861000	0
6	4912	864000	1
6	4937	867000	2
6	4954	870000	1
6	4971	873000	1
6	4988	876000	1
6	4997	879000	1
6	4998	882000	0
6	4999	885000	0
6	5000	888000	0
6	5001	891000	0
6	5010	894000	0
6	5019	897000	0
6	5028	900000	1
6	5053	903000	1
6	5070	906000	2
6	5087	909000	0
6	5104	912000	1
6	5126	915000	2
6	5138	918000	0
6	5163	921000	2
6	5180	924000	1
6	5197	927000	1
6	5214	930000	1
6	5223	933000	1
6	5224	936000	0
6	5225	939000	0
6	5234	942000	0
6	5243	945000	1
6	5244	948000	0
6	5245	951000	0
6	5246	954000	0
6	5255	957000	0
6	5272	960000	1
6	5281	963000	1
6	5290	966000	0
6	5299	969000	1
6	5308	972000	0
6	5325	975000	1
6	5334	978000	0
6	5356	981000	1
6	5373	984000	1
6	5385	987000	2
6	5407	990000	0
6	5432	993000	2
6	5444	996000	1
6	5453	999000	1
6	5454	1002000	0
6	5471	1005000	0
6	5485	1008000	1
6	5489	1011000	1
6	5490	1014000	0
6	5499	1017000	0
6	5524	1020000	1
6	5549	1023000	1
6	5574	1026000	2
6	5591	1029000	2
6	5600	1032000	0
6	5617	1035000	1
7	623	121104.643360366081	3
7	625	122536.317651919318	2
7	634	123205.849641179117	1
7	642	124853.980227414497	0
7	659	133035.377963919013	1
7	668	135870.004682883269	2
7	670	136447.625558701988	1
7	679	139823.811978321326	0
7	694	141572.378041970822	1
7	702	142232.930345520431	2
7	705	145366.865891806982	1
7	719	145978.682620494656	2
7	721	146174.127993716685	1
7	739	148749.264965328601	2
7	744	149078.26980940112	3
7	746	149863.050958962174	2
7	761	151010.52936499026	3
7	769	151596.761112936423	4
7	771	152563.795408758808	3
7	776	152848.822153680879	2
7	794	153536.869497923006	3
7	796	154527.183156758864	2
7	801	154532.095634352006	1
7	813	157164.644842501842	0
7	830	157755.310779510965	1
7	841	158050.066171295156	2
7	846	158322.878822574778	3
7	854	158647.114373378534	4
7	859	158902.046378550876	5
7	862	161495.976333633538	4
7	867	161577.405103671907	3
7	875	161818.980578515075	2
7	884	162216.194523207158	1
7	887	162230.205089724873	0
7	909	164357.995687990551	1
7	918	167547.740174017649	2
7	920	167653.735523807351	1
7	930	171093.06658124863	0
7	947	180293.301626040085	1
7	956	183058.226062154968	2
7	958	183291.027021112098	1
7	975	185383.619201290737	2
7	980	185696.250079268887	3
7	983	186736.791335641215	2
7	997	188455.679849789565	3
7	999	188764.06556196861	2
7	1008	189082.904983528429	1
7	1016	191990.42017507576	0
7	1031	192639.304896542576	1
7	1039	194532.147775873404	2
7	1048	195391.21613285051	3
7	1050	195713.525396375471	2
7	1059	198075.331002346997	1
7	1067	199181.202956620422	0
7	1082	202346.279160592462	1
7	1091	204098.10268670398	2
7	1093	205687.206255471494	1
7	1102	207426.196717491856	0
7	1117	210172.766667511883	1
7	1120	213887.507024348692	0
7	1134	215074.05746459301	1
7	1143	217137.903930348476	2
7	1145	218265.595880291798	1
7	1159	218943.741283737722	2
7	1168	220007.835298666951	3
7	1170	220077.129681516238	2
7	1179	222315.609382262094	1
7	1187	223185.312844389838	0
7	1203	230785.672230132752	1
7	1215	231908.52347829492	2
7	1223	232215.933452523581	3
7	1228	232514.699482580775	4
7	1231	234470.443744527492	3
7	1239	235463.162717033042	2
7	1244	235637.138533715701	1
7	1255	236143.5437349645	0
7	1270	237088.639894060568	1
7	1273	240823.957050406002	0
7	1287	241382.2451061895	1
7	1295	242913.712252845562	2
7	1298	244753.959358366994	1
7	1312	245579.590387200579	2
7	1315	246262.196780169358	1
7	1329	248219.336361001133	2
7	1331	248750.253198743289	1
7	1346	251489.29704783353	2
7	1349	252102.417223415914	1
7	1357	254761.190706064541	0
7	1373	259815.168899777848	1
7	1382	262620.404761318795	2
7	1384	263272.048887445955	1
7	1393	266161.556209479542	0
7	1407	266754.719360894161	1
7	1411	270640.001066590959	0
7	1426	273434.687499819846	1
7	1435	276130.42826873931	2
7	1437	277015.3153539056	1
7	1446	279654.27303255069	0
7	1464	282495.600999482381	1
7	1469	282786.012040407236	2
7	1478	285998.063179909824	3
7	1480	286034.772126809882	2
7	1488	286512.746928310936	1
7	1502	287102.284377943219	2
7	1505	290210.824361589458	1
7	1518	290829.959973931061	0
7	1523	291097.54173287336	1
7	1536	293123.244363581889	2
7	1544	293920.141032713413	3
7	1547	295063.958228308133	2
7	1564	296038.287858313439	3
7	1569	296386.400032551382	4
7	1577	297210.454931693586	3
7	1580	297399.471186640206	2
7	1584	297442.621202980953	3
7	1596	299839.712472303396	2
7	1605	300425.302612829705	1
7	1613	301152.568239203336	0
7	1629	306060.21987250062	1
7	1637	308050.50861670441	2
7	1646	309546.286560113794	3
7	1648	309551.619061797552	2
7	1656	311017.144985978286	1
7	1665	313443.789096216536	0
7	1679	314655.430602703086	1
7	1688	317260.690929557208	2
7	1696	317567.661408245121	3
7	1705	318560.26847689978	4
7	1707	318942.435187382917	3
7	1721	320707.305229918718	4
7	1723	320846.953273060992	3
7	1738	321446.781607892877	4
7	1740	321702.619476965862	3
7	1748	322490.791400369435	2
7	1756	323798.753351523788	1
7	1765	325054.757117162741	0
7	1780	328835.057055116936	1
7	1788	329301.193292648381	2
7	1797	331189.014669812652	3
7	1799	332484.997885354617	2
7	1807	332806.031198300328	1
7	1822	334279.302045641719	2
7	1829	335097.59167452987	1
7	1833	335305.836137901967	2
7	1841	337623.84562861529	1
7	1850	339035.102233421367	0
7	1865	343525.281567594928	1
7	1868	346566.187838781711	0
7	1883	349971.394594589344	1
7	1891	350641.302905412469	2
7	1899	353727.565611354684	1
7	1902	353789.449151667536	0
7	1906	353889.92284855776	1
7	1925	355501.20460494923	2
7	1928	357466.777633014625	1
7	1936	358733.123520013755	0
7	1952	364070.9946221811	1
7	1955	368098.549250374852	0
7	1971	372906.962181245911	1
7	1979	373318.75041511644	2
7	1987	374014.494731985532	3
7	1990	376323.274470024028	2
7	1995	376481.676813001599	1
7	2006	377223.462819863632	0
7	2020	377905.500121976049	1
7	2029	379244.667548893351	2
7	2032	381807.434646607788	1
7	2040	383191.485953045118	0
7	2055	384798.294457109199	1
7	2063	385861.789179018008	2
7	2072	388291.826643332217	3
7	2074	388461.694653004612	2
7	2082	389094.356803114766	1
7	2097	391288.959074199811	2
7	2099	391556.331306181501	1
7	2108	395581.789655535918	0
7	2123	396805.546770483014	1
7	2131	397798.015415829722	2
7	2139	398724.306584508786	3
7	2142	399595.912533875601	2
7	2150	401996.857865805387	1
7	2156	402081.975134961054	0
7	2173	402879.263118583358	1
7	2181	404514.505547647765	2
7	2184	406786.352559724708	1
7	2193	408286.533808995754	0
7	2208	412362.444402168036	1
7	2211	415912.987942999585	0
7	2226	418258.733676123644	1
7	2235	420363.502382559175	2
7	2246	421342.644150613321	3
7	2251	421680.595427726569	4
7	2253	421865.517452623664	3
7	2267	422614.322227630613	4
7	2276	424367.635909265371	5
7	2278	424379.601126712533	4
7	2286	425004.981899602207	3
7	2291	425027.301283635596	2
7	2303	426016.434252116033	1
7	2311	427911.951371967632	0
7	2326	429186.390960131569	1
7	2334	430420.034955314672	2
7	2337	433253.469070845721	1
7	2345	434339.281888489272	0
7	2361	438341.383755866838	1
7	2369	439361.607980900806	2
7	2372	441221.626980466187	1
7	2380	441965.865130583836	0
7	2396	447072.762621283957	1
7	2404	449502.996131313785	2
7	2407	450436.282546472549	1
7	2421	451590.014228290576	2
7	2429	452352.121006922363	3
7	2432	453295.536485745564	2
7	2446	453911.459605688217	3
7	2448	455782.148701265281	2
7	2453	455868.887495317133	1
7	2465	457527.070528111123	0
7	2483	461663.378891565123	1
7	2488	461961.54283823953	2
7	2492	465524.947259193747	1
7	2500	465860.610212466522	0
7	2514	467719.749379819741	1
7	2523	468776.1865457816	2
7	2526	471154.706948717285	1
7	2540	471757.311959236344	2
7	2547	472271.99149243733	1
7	2551	472568.680470122281	2
7	2559	475396.2121911936	1
7	2572	476577.56656668318	0
7	2576	476646.471634960517	1
7	2590	478066.551170943528	2
7	2598	479784.313147773385	3
7	2601	480144.486239775501	2
7	2615	480866.781167089511	3
7	2617	481854.155965909402	2
7	2626	483238.059087004995	1
7	2631	483405.763154026573	0
7	2649	486054.512368320141	1
7	2657	486492.55812683595	2
7	2665	487263.442758707615	3
7	2673	487962.623760700395	4
7	2676	489923.942880284804	3
7	2684	490267.368780210561	2
7	2692	491152.635834218751	1
7	2700	491798.914360421206	0
7	2716	495394.718335608367	1
7	2724	497714.412825490906	2
7	2727	499033.374502080605	1
7	2741	499987.623857269006	2
7	2743	500974.326524182401	1
7	2752	503572.810323720926	0
7	2767	505170.594788475335	1
7	2775	506664.932779797248	2
7	2778	508185.083656679001	1
7	2792	508780.792136948731	2
7	2800	510900.080876088098	1
7	2804	511059.080127841231	2
7	2811	512791.167259326069	1
7	2826	514316.655855622462	2
7	2828	514514.171997100913	1
7	2843	517194.738475082555	2
7	2845	517669.475050696728	1
7	2859	518271.747691461073	2
7	2868	520759.586579965183	3
7	2870	520766.783718937072	2
7	2878	521640.455366812655	1
7	2893	524018.4823852633	2
7	2896	525001.249524733082	1
7	2910	525615.447697417152	2
7	2918	526419.89022584631	3
7	2926	527264.343724741279	4
7	2929	528135.23816421226	3
7	2946	528709.502846482449	4
7	2951	529030.245009933285	5
7	2953	529055.010068278804	4
7	2961	530206.18496246016	3
7	2969	530906.7866473015	2
7	2978	532233.125632970902	1
7	2983	532394.080476785273	0
7	3001	535846.487168307012	1
7	3010	539355.585002360266	2
7	3012	539573.787220244516	1
7	3021	542819.694344159894	0
7	3036	545171.557261987176	1
7	3045	547133.661088026013	2
7	3053	547539.486015608339	3
7	3056	549048.76190917815	2
7	3064	550552.662600029616	1
7	3072	551081.685060984645	0
7	3087	553467.637541190268	1
7	3090	557337.097259918693	0
7	3108	568086.695593430776	1
7	3111	571443.522534043351	0
7	3126	574110.758339256369	1
7	3135	576153.292780075463	2
7	3146	577200.238300706987	3
7	3153	577367.20164478839	2
7	3160	577506.097428035818	3
7	3165	577795.525451880782	4
7	3170	578077.185556054188	5
7	3178	579487.095570979113	4
7	3192	580101.796258469863	5
7	3194	580414.152885171708	4
7	3202	581091.808114764931	3
7	3215	581537.895159469164	2
7	3218	581810.798040582833	1
7	3222	581824.864253716464	2
7	3240	583705.473056675508	1
7	3244	583870.490583573019	2
7	3257	584927.484262977816	3
7	3260	585178.619896903977	2
7	3274	585769.075712720211	3
7	3282	587159.458621158727	4
7	3284	587258.185121376685	3
7	3293	588224.362851220947	2
7	3301	589293.79147993489	1
7	3315	589973.368841987812	2
7	3317	590550.052834580555	1
7	3332	591899.075854657233	2
7	3334	593813.436329477073	1
7	3343	595188.924008942423	0
7	3358	599877.559169687691	1
7	3370	601309.254538106568	2
7	3375	601640.266874525915	3
7	3383	602089.607711655043	4
7	3386	603602.567297054247	3
7	3394	604465.768769584062	2
7	3408	605067.391434143525	3
7	3415	605493.310303014085	2
7	3418	605623.456536003614	1
7	3422	605729.342776228375	2
7	3441	608165.271652914852	3
7	3444	609154.844369695373	2
7	3452	609508.031369982369	1
7	3466	612484.952509269074	0
7	3470	612485.451799427618	1
7	3478	615315.658065238904	0
7	3493	619136.19035160943	1
7	3504	620554.590513797853	2
7	3509	620854.599400673952	3
7	3517	622965.720045765063	2
7	3521	623016.757886479609	3
7	3534	623579.000485073935	4
7	3536	623968.263749594428	3
7	3551	624566.980577560196	4
7	3559	624984.14022248656	5
7	3561	625266.370870908252	4
7	3569	626370.17329665361	3
7	3577	626754.212547254975	2
7	3586	628359.272333353924	1
7	3594	628781.803079585976	0
7	3608	629438.60752268514	1
7	3617	630198.648637789127	2
7	3625	630836.190992449133	3
7	3633	632295.327865862874	4
7	3635	632732.9474513881	3
7	3650	633386.467450443521	4
7	3652	633990.618848019512	3
7	3660	634549.562202809433	2
7	3669	636259.008317543176	1
7	3677	636824.731573574339	0
7	3691	637390.111817650289	1
7	3699	637927.539648356599	2
7	3707	638658.530976180473	3
7	3710	641010.002135683047	2
7	3715	641292.16834400856	1
7	3727	642287.835017741608	0
7	3741	642899.06086348025	1
7	3749	643574.814412031794	2
7	3752	646183.821562090086	1
7	3760	647716.869897174413	0
7	3776	651935.712382099842	1
7	3779	655460.018346787009	0
7	3795	660215.858945406759	1
7	3798	663744.004153276083	0
7	3814	671600.180916680367	1
7	3823	672246.330371668175	2
7	3826	675672.239191854786	1
7	3831	675892.322052062614	0
7	3850	681352.797330817641	1
7	3858	681677.168353141388	2
7	3869	682337.443763325247	3
7	3874	682591.014445518575	4
7	3877	684597.410235952751	3
7	3885	685176.397714737199	2
7	3893	685485.487820448256	1
7	3901	685933.303869144064	0
7	3916	687099.102643413823	1
7	3924	687936.342614827724	2
7	3932	688263.756238495162	3
7	3940	689718.34443184653	4
7	3943	690544.859846268433	3
7	3951	691495.812506295876	2
7	3959	692173.983174441282	1
7	3968	693644.458437747593	0
7	3982	694361.857450207247	1
7	3985	697658.185495789573	0
7	4002	698786.488788514947	1
7	4008	699032.911625688756	2
7	4016	701116.345100363179	3
7	4019	702592.589877385201	2
7	4027	703194.758552921476	1
7	4041	705213.275829741137	0
7	4045	705405.5661229617	1
7	4058	706017.169603130178	2
7	4066	707127.080849096369	3
7	4075	708565.803894526011	4
7	4077	708666.773905256121	3
7	4090	709816.235873089057	2
7	4094	710014.095090472575	3
7	4102	711245.907972268159	2
7	4116	711733.546536943268	3
7	4118	712128.76039839064	2
7	4126	713156.105931272588	1
7	4140	713955.391585014994	2
7	4143	715549.625836548075	1
7	4158	717700.969072786287	2
7	4160	717907.135722244576	1
7	4175	720823.002523885739	2
7	4177	721313.747164204166	1
7	4194	722752.843864278825	2
7	4200	723102.445629665385	3
7	4202	724287.586402216545	2
7	4216	725786.149433702686	3
7	4219	726096.715223238598	2
7	4227	726579.943967538585	1
7	4241	727954.212843980718	2
7	4249	728450.896951805499	3
7	4257	729692.117821771465	2
7	4261	729828.448743314486	3
7	4274	730520.485532189867	4
7	4276	731276.032549746319	3
7	4284	731770.979691440709	2
7	4298	733224.687058311895	1
7	4302	733315.812868061085	2
7	4309	734567.241475001085	1
7	4324	735779.815076613954	2
7	4326	736885.135307203453	1
7	4335	739274.465895018763	0
7	4353	741630.502215390504	1
7	4358	741857.320702913925	2
7	4361	745492.76883825882	1
7	4366	745543.053725224944	0
7	4378	746106.296653991324	1
7	4391	746810.483331987634	2
7	4394	749436.677976020096	1
7	4402	749995.702817563819	0
7	4417	751562.209315392683	1
7	4426	753218.403880391971	2
7	4428	755772.626136914277	1
7	4437	756410.535215049091	0
7	4451	758258.168853457706	1
7	4454	761731.652045285143	0
7	4469	762614.780371862354	1
7	4480	764642.346909842859	2
7	4485	764922.490455571037	3
7	4488	766106.998856218298	2
7	4502	766747.413742847188	3
7	4505	769011.601322656503	2
7	4510	769026.792184341001	1
7	4522	769525.948548428499	2
7	4529	770579.662059939196	1
7	4544	772718.000031082512	2
7	4552	773065.576776089665	3
7	4554	773270.01130307974	2
7	4563	776302.648999631449	1
7	4568	776402.920299989446	0
7	4588	784585.309357101541	1
7	4591	788561.949352154501	0
7	4606	791848.834354678472	1
7	4610	795839.068791568395	0
7	4624	797480.373242982269	1
7	4628	801311.340530908086	0
7	4645	812983.533536956674	1
7	4654	813799.415596979789	2
7	4657	816729.029424853368	1
7	4665	817335.885784747539	0
7	4680	819851.483680976669	1
7	4689	822363.455866766538	2
7	4691	823250.331599814051	1
7	4705	823966.689116005547	2
7	4713	825583.359970836751	1
7	4717	825916.820288186664	2
7	4724	827629.701588486948	1
7	4733	828741.412994596372	0
7	4747	830134.880113362996	1
7	4750	833293.576823945597	0
7	4764	833934.773072100231	1
7	4773	836221.896974940074	2
7	4782	838163.490975823275	3
7	4784	838263.252975908535	2
7	4793	840003.532105170895	1
7	4807	840656.782119888144	2
7	4815	841480.713954941792	3
7	4817	841725.498659421785	2
7	4832	843559.342693545709	3
7	4834	843820.799622776527	2
7	4848	845101.43475842876	3
7	4850	845165.016193389649	2
7	4859	847161.015042302242	1
7	4867	848523.673125437337	0
7	4885	858724.510079107677	1
7	4893	860795.131154140761	2
7	4902	861992.371288131771	3
7	4904	863017.073030007691	2
7	4913	864349.911495820928	1
7	4927	865550.693495785061	2
7	4929	866039.890907470511	1
7	4944	867390.966523476737	2
7	4946	869052.230882395322	1
7	4955	870713.745759115444	0
7	4969	871323.548387518622	1
7	4978	873916.597441167173	2
7	4980	874851.726621416892	1
7	4989	877367.729403414745	0
7	5008	893223.282011145211	1
7	5016	896807.983177139494	0
7	5021	897054.916262680646	1
7	5029	900770.634536542381	0
7	5046	901577.220768913342	1
7	5051	901830.225920660544	2
7	5054	905369.42399569456	1
7	5059	905390.869047154192	0
7	5080	907656.882747094682	1
7	5085	907944.475155404925	2
7	5094	910588.972977816134	3
7	5096	911451.168727004069	2
7	5105	912029.489012531647	1
7	5113	913855.968268254821	0
7	5128	915280.591548386906	1
7	5136	917417.049600264038	2
7	5144	918595.574003491203	1
7	5148	918661.883271495009	2
7	5155	920664.162095900681	1
7	5170	922214.75634622598	2
7	5172	922253.594100784617	1
7	5187	924724.60984565045	2
7	5189	925563.354778436362	1
7	5198	927560.982040002515	0
7	5212	928693.046243426347	1
7	5215	932230.159696948025	0
7	5232	940936.436515872388	1
7	5235	944404.808373789141	0
7	5253	955335.763890511416	1
7	5262	957715.591599137039	2
7	5264	959009.985705230056	1
7	5273	961784.846503479625	0
7	5288	964295.388769185085	1
7	5291	967796.468566466834	0
7	5306	969584.49317143908	1
7	5309	973312.64896714313	0
7	5323	974877.385014729233	1
7	5332	976860.522373341006	2
7	5335	978609.431661781618	1
7	5349	979739.93079452646	2
7	5351	980792.335207483531	1
7	5366	982232.714658520213	2
7	5368	983756.704705477402	1
7	5377	986142.517096331969	0
7	5392	988331.496049532144	1
7	5403	989883.297730415823	2
7	5409	990204.013861867199	3
7	5411	991908.161686886526	2
7	5419	992662.328483607841	1
7	5434	993280.329288146798	2
7	5436	993478.519094073869	1
7	5445	996338.033017507109	0
7	5461	1003157.828919187849	1
7	5469	1004104.708309850966	2
7	5472	1006315.962399759992	1
7	5480	1007911.045709694835	0
7	5497	1015237.533087240653	1
7	5506	1018552.520173494906	2
7	5508	1019165.78234671455	1
7	5522	1019750.688124570466	2
7	5525	1021173.601313952739	1
7	5539	1021946.081892261227	2
7	5547	1022643.079707181186	3
7	5550	1023469.097129764877	2
7	5564	1024840.460934334897	3
7	5566	1025704.982323832384	2
7	5575	1026397.17866657856	1
7	5583	1028154.490985422148	0
7	5598	1031117.523854894891	1
7	5607	1032560.312403761474	2
7	5609	1034418.857946826265	1
7	5624	1036200.418140759881	2
7	5626	1036563.979772364757	1
