file 97323 1483715016                                           
version 2
run ParkingMeasurement-49-20170106-02:04:50-12462
attr configname ParkingMeasurement
attr datetime 20170106-02:04:50
attr experiment ParkingMeasurement
attr inifile parkingStudy.ini
attr iterationvars ""
attr iterationvars2 $repetition=49
attr measurement ""
attr network SimNetwork
attr processid 12462
attr repetition 49
attr replication #49
attr resultdir results
attr runnumber 49
attr seedset 49
param SimNetwork.a.parkingLot.parkingDelay "truncnormal(60min, 6min)"
param SimNetwork.a.runway.landingTime "truncnormal(5min, 0.5min)"
param SimNetwork.a.runway.takeoffTime "truncnormal(5min, 0.5min)"
param SimNetwork.a.runway.throughputCheckInterval 50min
param SimNetwork.wg.interArrivalTime exponential(50min)
vector 2  SimNetwork.a.landingQueue  queueLength:vector  ETV
attr source queueLengthSignal
2	24483 17833 759 5984 120983.918746497901 1036543.490314669947 617 0 2 325 341
vector 7  SimNetwork.a.parkingLot  parkingOccupancy:vector  ETV
attr source parkingOccupancy
7	79568 17755 762 5982 121115.029635000254 1036543.490314669947 615 0 6 1075 2875
vector 1  SimNetwork.a.landingQueue  queueTime:vector  ETV
attr source queueTimeSignal
1	14586 9897 764 5984 121115.029635000254 1036543.490314669947 308 0 538.52195076772 14020.420284763 3903866.5224452
vector 4  SimNetwork.a.takeoffQueue  queueLength:vector  ETV
attr source queueLengthSignal
4	52087 17727 775 5964 121524.625306678961 1034357.272645265448 614 0 3 317 331
vector 3  SimNetwork.a.takeoffQueue  queueTime:vector  ETV
attr source queueTimeSignal
3	42316 9771 780 5964 121696.24392333771 1034357.272645265448 307 0 684.09852018025 14153.113558219 4475330.5081209
vector 0  SimNetwork.wg  responseTime:vector  ETV
attr source responseTimeSignal
0	1456 13130 783 5967 122022.764986728338 1034617.526120303991 307 3782.5442683972 19671.652712571 2239877.5667147 18940572419.633
vector 5  SimNetwork.a.runway  landedThroughput:vector  ETV
attr source landedThroughputSignal
5	69814 4877 785 5969 123000 1035000 305 0 5 307 615
vector 6  SimNetwork.a.runway  tookoffThroughput:vector  ETV
attr source tookoffThroughputSignal
6	74691 4877 785 5969 123000 1035000 305 0 6 308 652
