version 2
run ParkingMeasurement-65-20170108-17:32:56-6417
attr configname ParkingMeasurement
attr datetime 20170108-17:32:56
attr experiment ParkingMeasurement
attr inifile parkingStudy.ini
attr iterationvars ""
attr iterationvars2 $repetition=65
attr measurement ""
attr network controltower.SimNetwork
attr processid 6417
attr repetition 65
attr replication #65
attr resultdir results
attr runnumber 65
attr seedset 65
param SimNetwork.a.parkingLot.parkingDelay "truncnormal(60min, 6min)"
param SimNetwork.a.runway.landingTime "truncnormal(5min, 0.5min)"
param SimNetwork.a.runway.takeoffTime "truncnormal(5min, 0.5min)"
param SimNetwork.a.runway.throughputCheckInterval 50min
param SimNetwork.wg.interArrivalTime exponential(50min)

statistic SimNetwork.wg 	responseTime:stats
field count 304
field mean 7307.0624342967
field stddev 3060.1656629729
field sum 2221346.9800262
field sqrsum 19068999078.394
field min 3874.8459374189
field max 24547.292690496
attr source  responseTimeSignal
scalar SimNetwork.a.landingQueue 	queueLength:timeavg 	0.014132673467401
attr source  queueLengthSignal
statistic SimNetwork.a.landingQueue 	queueLength:stats
field count 612
field mean 0.52287581699346
field stddev 0.52230093125108
field sum 320
field sqrsum 334
field min 0
field max 2
attr source  queueLengthSignal
statistic SimNetwork.a.landingQueue 	queueTime:stats
field count 306
field mean 42.29452216608
field stddev 94.769341159864
field sum 12942.12378282
field sqrsum 3286655.4884904
field min 0
field max 485.57316435769
attr source  queueTimeSignal
scalar SimNetwork.a.takeoffQueue 	queueLength:timeavg 	0.016186443795932
attr source  queueLengthSignal
statistic SimNetwork.a.takeoffQueue 	queueLength:stats
field count 608
field mean 0.51644736842105
field stddev 0.5163481040983
field sum 314
field sqrsum 324
field min 0
field max 2
attr source  queueLengthSignal
statistic SimNetwork.a.takeoffQueue 	queueTime:stats
field count 304
field mean 48.53465424816
field stddev 132.69653265882
field sum 14754.534891441
field sqrsum 6051442.2927899
field min 0
field max 902.93595560055
attr source  queueTimeSignal
scalar SimNetwork.a.parkingLot 	parkingOccupancy:timeavg 	1.2003243241899
attr source  parkingOccupancy
statistic SimNetwork.a.parkingLot 	parkingOccupancy:stats
field count 610
field mean 1.7
field stddev 1.2143774716612
field sum 1037
field sqrsum 2661
field min 0
field max 6
attr source  parkingOccupancy
