version 2
run ParkingMeasurement-14-20170106-02:04:42-12267
attr configname ParkingMeasurement
attr datetime 20170106-02:04:42
attr experiment ParkingMeasurement
attr inifile parkingStudy.ini
attr iterationvars ""
attr iterationvars2 $repetition=14
attr measurement ""
attr network SimNetwork
attr processid 12267
attr repetition 14
attr replication #14
attr resultdir results
attr runnumber 14
attr seedset 14
param SimNetwork.a.parkingLot.parkingDelay "truncnormal(60min, 6min)"
param SimNetwork.a.runway.landingTime "truncnormal(5min, 0.5min)"
param SimNetwork.a.runway.takeoffTime "truncnormal(5min, 0.5min)"
param SimNetwork.a.runway.throughputCheckInterval 50min
param SimNetwork.wg.interArrivalTime exponential(50min)

vector 2  SimNetwork.a.landingQueue  queueLength:vector  ETV
attr source  queueLengthSignal
vector 1  SimNetwork.a.landingQueue  queueTime:vector  ETV
attr source  queueTimeSignal
vector 7  SimNetwork.a.parkingLot  parkingOccupancy:vector  ETV
attr source  parkingOccupancy
vector 4  SimNetwork.a.takeoffQueue  queueLength:vector  ETV
attr source  queueLengthSignal
vector 3  SimNetwork.a.takeoffQueue  queueTime:vector  ETV
attr source  queueTimeSignal
vector 5  SimNetwork.a.runway  landedThroughput:vector  ETV
attr source  landedThroughputSignal
vector 6  SimNetwork.a.runway  tookoffThroughput:vector  ETV
attr source  tookoffThroughputSignal
vector 0  SimNetwork.wg  responseTime:vector  ETV
attr source  responseTimeSignal
0	688	123162.757639937704	6105.0314179669
0	696	125930.826528185463	6722.8850280288
0	723	133208.747873948711	12071.415769131
0	740	135105.118547240479	5849.3703443215
0	751	137780.962611644817	6984.7558816093
0	766	141104.727317425824	7594.766332811
0	794	145804.304605338779	8301.1352039341
0	816	148396.792080619411	6444.7189716787
0	824	149786.756991719917	6090.3653314085
0	836	151364.553215979709	5819.8336595411
0	850	155293.98291414713	7705.9418311837
0	876	159441.826954699363	8354.3553685124
0	900	161678.252876753653	6147.1013655188
0	925	164032.462876828132	6153.4869713523
0	934	165039.626290032679	5404.6971171273
0	953	167032.183265095171	4376.8254301348
0	958	167300.09084190157	6572.5858881728
0	967	169608.474735687591	6419.3867157114
0	1009	181656.98995610062	15925.255015999
0	1019	182248.205335009055	4930.9324883214
0	1036	184853.11590765149	7421.8166063279
0	1044	185294.000752311996	5174.0069430474
0	1069	188105.787908647765	6526.2069365731
0	1081	190565.575956281959	6784.5264754709
0	1086	190846.234230353581	4572.7101952474
0	1112	195761.416626415053	9464.4465786544
0	1129	198636.101693968311	7231.8948413902
0	1157	201582.035289964827	7061.2276864682
0	1179	204129.511958909802	7090.306154283
0	1187	204870.332970267337	5338.2627487771
0	1195	206116.204473973006	5783.3464414898
0	1215	208093.74526629349	6808.453500253
0	1229	210309.771478229231	6883.9087600229
0	1245	212418.738998060108	6260.1622886972
0	1254	215625.333130661859	7784.0702359256
0	1280	220732.621617866073	8976.362332898
0	1289	222695.177466538015	5913.8296209163
0	1327	231225.878438751962	13667.871615271
0	1343	232152.084696921936	4997.3666528598
0	1365	234883.842169742805	6265.6833147802
0	1373	235604.539083191402	5026.0178108025
0	1381	236461.98001955815	5448.5817049516
0	1390	238370.469324754097	6346.5473589542
0	1417	246194.570493725563	11944.958354426
0	1425	246797.280389331541	4782.1709153698
0	1444	256624.652652126119	14178.14955349
0	1479	264281.578502634366	11980.384974824
0	1487	265332.507879050352	5287.3594675528
0	1496	267637.622683252881	6447.7003176599
0	1525	273003.885058115913	9728.9243826104
0	1538	274493.047594715225	5773.2707394
0	1547	277513.659917831004	6394.9595672586
0	1581	283064.08648656149	10362.336938586
0	1589	283476.798266081665	4327.4833149735
0	1598	285628.806876535325	5948.1166525183
0	1625	296674.574085094043	14730.671987239
0	1642	299960.372853197627	7859.9896005113
0	1651	301021.334948195511	6001.8170094864
0	1670	309861.151137426994	12906.151970684
0	1704	316422.759275840475	10822.210227917
0	1712	317316.051808898212	4480.4561890047
0	1721	318007.547537973735	4469.2170481602
0	1746	323815.353288763779	10029.356006118
0	1791	327364.495673488397	7505.3050208645
0	1796	327673.017962961306	4735.4502109632
0	1808	330255.348436650284	4078.0148201728
0	1824	330843.596921116326	4600.2690460149
0	1829	331086.129640444142	6997.3105835901
0	1846	334077.262468304061	7606.5772812672
0	1855	337898.975145077868	7891.3236344043
0	1873	344802.27051705189	11653.291551286
0	1899	349345.334441011948	8203.2571841572
0	1907	350309.131165674116	5431.5486059515
0	1942	357117.363797819582	10790.80860078
0	1951	360669.215975369939	7497.6362305008
0	1959	361238.578775310624	5232.4100763302
0	1977	366628.761729938322	10221.037557425
0	2003	372897.774442924043	10505.8064506
0	2028	376110.396485383101	6553.6765074418
0	2036	377695.458163702464	5988.8163330419
0	2045	380171.056333815607	7053.8182019486
0	2081	390780.223390328176	15286.016625405
0	2100	391985.770526147609	5309.2315874375
0	2105	392286.823205169646	4095.7262109645
0	2122	395247.017543858103	7014.0708610204
0	2131	396819.182224537663	5745.3590247696
0	2164	400418.960046507957	7256.6858147389
0	2173	403469.241663484021	6628.710804217
0	2181	403799.475654061212	4899.6087002951
0	2199	409094.135543544727	9400.9065245773
0	2226	418140.349628390154	13568.419202478
0	2235	421186.774704300667	6916.9424961385
0	2267	435535.40115267307	18883.049339545
0	2272	435823.558682185843	4801.4788095205
0	2305	439976.642913915187	8342.7857929194
0	2333	442681.579445712945	6444.0695190013
0	2338	442969.818433530321	4333.9359952771
0	2347	444882.905651306092	5906.1735144137
0	2355	445697.078550240675	5149.0048511497
0	2382	454220.771039384179	12645.568373487
0	2399	457388.441453747556	6963.773831056
0	2416	460209.177059238498	7390.1872478853
0	2425	462828.347593071523	6627.6367945838
0	2443	468567.866057514093	10133.335567189
0	2477	475100.425248023601	10531.016855058
0	2488	476183.657789848992	4864.0463784213
0	2502	477536.404249015797	5242.7367917079
0	2510	479648.200713914412	6425.9364098683
0	2532	488694.674179276158	12731.764945928
0	2547	493075.206401819979	8788.8110500566
0	2598	498225.08589343811	9831.717793706
0	2613	499197.428772134195	5813.2179630883
0	2621	499905.404407097042	6393.2141163358
0	2630	501579.583073864668	6050.5615562254
0	2646	502376.570331059452	4781.2072662229
0	2654	503160.07931054935	5240.7519995801
0	2671	505587.208935177728	7592.1472288699
0	2688	508940.267182859308	7297.9764503568
0	2705	511652.477052411602	7453.3685161399
0	2714	513262.04426203115	5519.7510882415
0	2758	518948.454010338735	9456.3760445461
0	2772	519858.571575054344	4102.3254965253
0	2780	520397.248679911892	5945.4873272411
0	2797	522136.056506090269	4341.6693677567
0	2805	522970.327194441066	6749.8573357944
0	2813	524597.72183013696	5895.4335964632
0	2862	540619.356693887304	19261.140952433
0	2867	540906.215667651439	4898.8898422326
0	2875	542450.340544864933	5398.3118527248
0	2892	544117.655608676136	5815.8142141821
0	2901	547740.840011455711	7793.7087667349
0	2943	553000.811240394121	9764.2131916284
0	2951	553511.603719060964	4847.1766320136
0	2959	554043.121809383177	4832.9327142642
0	2968	555509.716805142774	5254.456444261
0	2994	562280.621078781722	11449.266304978
0	3003	564398.117967073094	5876.7594149287
0	3030	573246.77462966312	13160.023433667
0	3038	574765.527026572999	5497.6149924143
0	3056	580693.403415528403	9795.7241244898
0	3082	585334.953267167807	9272.9813822122
0	3115	589415.236448794815	7661.9041416576
0	3123	589777.114178849613	5060.6646777471
0	3131	590725.44967737775	4721.1589026895
0	3151	592482.567241713971	6402.1089647799
0	3173	594411.056220835636	6369.9841077713
0	3181	596521.196537489866	5396.6468351553
0	3198	597348.315735638663	4870.167585503
0	3223	600674.702679951743	7738.1739012637
0	3235	603302.925323114237	6527.3653263013
0	3240	603595.748422612587	4751.182106831
0	3272	619642.447983037475	19827.216089946
0	3277	619945.804771776666	4857.4816183991
0	3311	624978.058120611033	9499.5332919774
0	3319	625539.547727656409	4942.1476319112
0	3327	626518.638509132167	5159.3024585575
0	3378	635040.267157234304	12709.743365136
0	3390	636250.939457902614	4922.4359134821
0	3395	636555.540058393616	4582.2389680878
0	3406	637170.091219875454	4455.4173673159
0	3411	637474.629335941243	4625.4453172873
0	3438	645018.652561656315	11838.510352001
0	3446	645369.233609738581	5061.9037757542
0	3484	655053.432781110085	14033.188747774
0	3489	655324.762077951702	5033.1941123383
0	3497	655607.184207393825	4533.3930892287
0	3523	660146.389421295074	8417.676372547
0	3531	662327.885083907753	5945.0330486278
0	3565	666301.73970747072	7735.835671284
0	3585	669419.073128001229	4145.7182815376
0	3590	669763.339306268226	7265.9250248167
0	3598	671741.05788718015	6052.6431314542
0	3625	678367.73106316723	11381.003404476
0	3633	680232.004133002431	6102.2516826387
0	3686	685018.12048667251	4221.4865961601
0	3691	685271.092971047892	9249.0430513843
0	3702	686337.600245904699	3937.041115834
0	3710	686604.934582663521	5307.8819795076
0	3732	688369.034969093035	5800.4199040329
0	3760	691091.846252607834	4555.3443345646
0	3765	691422.31893123865	7349.8170939745
0	3790	693550.088099108466	6323.4837938526
0	3798	694264.312805706801	5197.0431893311
0	3807	696324.881849013568	6797.3434588076
0	3823	697337.437534176675	4855.1841601396
0	3840	700708.530655114836	8083.0619927367
0	3860	703189.877718835509	6634.6234787385
0	3873	704258.479742679956	4622.6463932391
0	3890	706859.948366307737	6086.938013623
0	3907	708244.064648987297	5305.4585601476
0	3924	711510.9004421246	7219.6850240079
0	3932	712310.983669099688	5181.0790702325
0	3957	716916.802829347773	8212.3212526417
0	3966	718643.992783249735	5399.4053417873
0	3984	724272.92724342047	9960.153786
0	4010	730133.294199969388	9600.4874400707
0	4018	730528.627704436592	4741.009420578
0	4052	735933.299092736247	9738.0181582431
0	4060	736327.440045926697	4841.524658619
0	4069	739077.319820832549	6966.6286507614
0	4095	744324.960226632628	9021.4390519295
0	4103	746022.168756827565	6053.4114339582
0	4130	753951.887731945277	12152.519040469
0	4139	756134.201735425201	6067.0838809204
0	4165	763338.255105129319	11054.689840051
0	4174	765407.063065038993	6284.7287646861
0	4192	771383.72549321218	9965.592021806
0	4210	778675.924950596271	11321.928232273
0	4248	787381.560109530334	12845.524589093
0	4253	787680.687639398443	4282.0371158665
0	4262	789971.010978049659	6561.4544213918
0	4295	794267.709501877826	8755.1302526213
0	4326	796767.024290619358	4313.6848377442
0	4336	797401.167544032807	7400.8811458735
0	4356	800301.8145479148	7774.2339844055
0	4361	800614.622500299172	4694.8329426393
0	4370	801520.249181012132	5387.3225638551
0	4378	802298.917883936829	5717.4294180767
0	4412	807145.932294839215	9042.5405603279
0	4420	808526.317266187406	5150.9364101769
0	4428	809814.905713511884	5821.2382754671
0	4446	814910.392228572328	9324.9019976153
0	4464	821347.497082574822	9549.4568840968
0	4483	828904.910113737091	11846.116668072
0	4519	840206.670741708089	15232.098091071
0	4527	841016.928078077742	4429.3376179906
0	4568	843826.103311206112	6468.1920599078
0	4576	844631.072209663798	5109.1629867489
0	4585	846107.79821518818	5001.4882395496
0	4593	846948.626891836382	5041.6906039272
0	4601	847257.757449375723	4383.0739675803
0	4644	856387.056080670179	13458.702277917
0	4652	857501.796063120442	4856.6442227822
0	4677	858824.737780548398	5340.1398403932
0	4685	860120.260222759354	5836.6840000016
0	4694	862172.55689547639	6353.9682398989
0	4702	862651.081995691931	4704.7987870169
0	4720	868532.411649051933	10337.16569112
0	4746	874172.77846881577	9743.7251620655
0	4771	877068.174857884668	6756.2867646394
0	4787	878720.817725257818	5779.928594147
0	4804	880233.210517920596	5460.5974621699
0	4812	881675.71928816976	5563.7313652022
0	4821	883207.766461501924	6043.2374433393
0	4871	890697.639291591472	11660.277814329
0	4886	891618.354633955106	5368.217630569
0	4896	892208.278565501393	5292.3785211864
0	4907	893689.917219932126	5686.5092893162
0	4912	893999.102335556551	4543.802086888
0	4921	895889.213296204505	6271.4098135751
0	4947	902025.523436319824	10626.622986716
0	4964	904994.725030687584	7136.9842894438
0	4989	908546.541759837328	8038.0519767155
0	5009	910416.720259945111	6301.2628389767
0	5022	911604.929700193862	4940.6705301901
0	5034	914003.456857530528	6597.6181251106
0	5047	914619.452036895805	4885.3119008451
0	5065	918030.973215098485	7719.0513077421
0	5081	919782.365391762387	5809.1181191201
0	5090	922830.619804706619	7117.0660542308
0	5120	939188.196409888227	20563.057936316
0	5151	942997.269136913237	7537.1631453706
0	5169	943859.861873474917	5378.5850938879
0	5178	945193.216202168331	5973.0412230643
0	5186	946843.157526821342	5767.2086265754
0	5194	947719.302160541981	4840.8320431676
0	5212	951096.389393295329	7824.9384780429
0	5237	955640.106189914149	7849.133184543
0	5262	957808.838531849705	6446.7755439115
0	5270	959693.62100888375	5571.991860653
0	5279	960115.300470605542	4237.0637215877
0	5328	964035.290149958199	8142.8324059989
0	5336	965128.75194534315	4731.5580481562
0	5353	966227.849572818886	5633.7826209008
0	5361	966975.58926714359	4663.7088799956
0	5369	968407.433335021889	5433.8332262719
0	5378	969122.040422483446	5656.7741361146
0	5395	974984.425960304737	9842.8695902847
0	5422	983151.168493699814	12981.244384102
0	5439	986673.132882871059	7377.170072473
0	5456	989613.680132098726	7032.1073509964
0	5473	992789.112909068823	7119.4748130975
0	5490	994736.732131363626	6497.5182399177
0	5499	997254.604398960386	6895.4607600557
0	5525	1003306.392840514538	10207.354900732
0	5534	1005579.907925088251	6693.586388961
0	5560	1012361.551598075067	11140.924227021
0	5572	1015007.660673695926	6465.5390048895
0	5637	1019445.475152950943	4600.6032967481
0	5642	1019719.068664966904	8796.6032449589
0	5654	1020511.689888465457	5228.4932188149
0	5670	1021162.520957347328	4736.4046686836
0	5675	1021460.232104096308	4344.2524214341
0	5686	1022565.463233988644	4431.5657416407
0	5691	1022847.738168190368	5515.1857259532
0	5700	1025079.082162356995	6829.4128761745
0	5742	1029421.321663228042	9075.6208059031
0	5750	1030242.696320561242	5021.4212876356
0	5767	1032312.072567019199	6703.3203873541
0	5775	1032940.545463254337	5265.1013336746
0	5784	1036060.584632751868	7548.8518067255
1	676	121137.332104817808	0
1	703	129255.748202918942	0
1	711	130796.206730035481	0
1	728	133509.960984614776	0
1	753	137780.962611644817	277.7932102401
1	771	141952.073108940732	0
1	779	143696.39166031145	0
1	796	145804.304605338779	259.58504890016
1	805	147588.041082963447	0
1	838	151364.553215979709	277.0816297927
1	855	155531.15151123484	0
1	864	157878.975905475843	0
1	881	159634.929172905395	0
1	889	160727.504953728785	0
1	906	162655.357834960376	0
1	914	163189.088019976162	0
1	939	165731.734940101579	0
1	975	177317.272846687667	0
1	983	177624.019929432502	192.72062810895
1	992	180119.993809264621	0
1	1011	181656.98995610062	77.408984025961
1	1025	183781.049480811086	0
1	1050	186273.524035106167	0
1	1058	186567.995638721138	271.02559096045
1	1091	191404.206852578081	0
1	1100	194520.807603496588	0
1	1117	197039.205804626759	0
1	1134	199532.070221490254	0
1	1142	200332.858032483244	0
1	1159	201582.035289964827	296.74352392431
1	1167	203425.862718206358	0
1	1200	206158.57670936288	0
1	1217	208093.74526629349	252.48237155719
1	1234	211756.259284968046	0
1	1260	216781.34784562168	0
1	1268	217558.006823481362	0
1	1295	227154.718044062132	0
1	1304	228618.158854962608	0
1	1312	230578.521272388927	0
1	1329	231225.878438751962	212.48012414537
1	1345	232152.084696921936	128.16273112199
1	1354	234249.612139300034	0
1	1396	242015.109473961728	0
1	1404	242446.503098635643	0
1	1432	252301.193527809995	0
1	1450	260045.148411497575	0
1	1459	261189.922365593	0
1	1467	263274.960675505531	0
1	1501	268719.776855315235	0
1	1510	271118.700350572399	0
1	1527	273003.885058115913	302.13551013997
1	1553	279149.314951108207	0
1	1561	279680.690224017037	0
1	1569	281943.902097855411	0
1	1605	292100.383252686281	0
1	1614	295019.517938709133	0
1	1630	296954.999166742591	0
1	1657	305600.549047923879	0
1	1676	312835.595619893545	0
1	1684	313538.330489813583	0
1	1692	313855.444243982665	69.446961336439
1	1726	319859.190652623852	0
1	1735	322937.567751998146	0
1	1752	324088.819056854006	0
1	1760	326177.333616477531	0
1	1771	326484.824874668117	241.49699956668
1	1779	326813.03601690616	342.35082986933
1	1810	330255.348436650284	247.69692597672
1	1835	333148.978965766247	0
1	1861	341142.077256854753	0
1	1878	344877.582559722654	0
1	1887	346326.555197040011	0
1	1913	353171.579744869095	0
1	1922	356006.168698980374	0
1	1930	356407.724172513193	0
1	1964	362391.967992323857	0
1	1983	369556.719977941335	0
1	1991	371706.641830660601	0
1	2008	373117.238131866961	0
1	2017	375494.206764923015	0
1	2052	386676.538938710061	0
1	2061	388191.096994205169	0
1	2069	388521.063597930543	288.11691509288
1	2086	391073.823199768082	0
1	2111	393162.274231769027	0
1	2136	396840.530859267056	0
1	2144	398899.866953766109	0
1	2153	399693.229018967397	0
1	2186	404571.930425912419	0
1	2206	414269.832208162217	0
1	2214	416652.351813128311	0
1	2243	431022.079872665365	0
1	2251	431633.857120995795	0
1	2277	436237.509926711617	0
1	2286	438635.882438253257	0
1	2294	438976.732136892344	0
1	2310	440548.073699090938	0
1	2319	441575.202665897041	0
1	2362	450424.667622691511	0
1	2370	452818.989811353154	0
1	2388	456200.710798487715	0
1	2404	458434.530490324595	0
1	2430	464569.408392966053	0
1	2449	471319.611411427739	0
1	2457	472293.66745730786	0
1	2465	473222.264304046064	0
1	2490	476183.657789848992	220.74855650113
1	2517	484286.395351763367	0
1	2534	488694.674179276158	301.3060795441
1	2552	493384.210809045874	0
1	2560	493668.57238509317	156.38209433198
1	2569	495529.021517639242	0
1	2577	497595.363064836545	0
1	2600	498225.08589343811	305.75858246882
1	2605	498533.729224638284	538.66751833042
1	2635	501642.290732502483	0
1	2660	504199.108536271657	0
1	2677	507742.293173789677	0
1	2693	509492.077965792658	0
1	2719	514451.761352670788	0
1	2727	515756.246078529025	0
1	2736	516220.469858646629	0
1	2744	517794.387138333612	0
1	2760	518948.454010338735	246.16577666494
1	2785	521358.215741454702	0
1	2822	536007.325825418866	0
1	2831	537052.028692140106	0
1	2839	538301.841394494069	0
1	2847	539947.131244720768	0
1	2881	543236.598048765759	0
1	2906	548664.427087047347	0
1	2915	549210.189095118976	0
1	2923	550255.260360881756	0
1	2931	550831.354773803307	0
1	2974	558521.358552144357	0
1	2982	560086.751195995864	0
1	3009	569267.91203415867	0
1	3018	570897.679291038653	0
1	3044	576061.971884955577	0
1	3061	581753.332307137191	0
1	3070	584716.449501102495	0
1	3087	586004.290774688252	0
1	3095	586315.727533107168	235.26925617314
1	3104	588041.072113064384	0
1	3137	591124.549702334599	0
1	3153	592482.567241713971	4.419091578319
1	3161	592936.528778688028	0
1	3186	596775.559996812906	0
1	3203	598844.56631578156	0
1	3211	599815.231893091164	0
1	3249	615088.323153377576	0
1	3257	615478.524828633612	0
1	3282	620597.400095745168	0
1	3291	621359.336050574682	0
1	3299	622330.523792098455	0
1	3334	631328.503544420485	0
1	3342	631973.301090305853	0
1	3350	632714.673852559505	0
1	3359	633045.156929939678	195.9729112857
1	3367	633398.585433649114	218.44322399378
1	3417	640307.329833984371	0
1	3425	641020.244033335587	0
1	3452	650291.567965613421	0
1	3461	651073.791118165109	0
1	3469	651728.71304874812	0
1	3502	656382.852035279988	0
1	3511	658565.904036186714	0
1	3536	662497.414281451515	0
1	3545	665273.354846463642	0
1	3553	665688.41475572597	0
1	3570	666986.727658691474	0
1	3604	674129.752450363718	0
1	3613	676022.049919663641	0
1	3638	680796.633890512459	0
1	3647	681297.052603155877	0
1	3655	682400.559130070676	0
1	3663	682658.930794700485	90.315729640325
1	3672	684072.501837264168	0
1	3712	686604.934582663521	68.432664620244
1	3721	687226.604305255867	0
1	3737	689067.269616375736	0
1	3745	689527.538390205951	0
1	3770	692482.253374037041	0
1	3778	692802.180082153596	176.71141977542
1	3812	696555.254240097045	0
1	3829	699635.833349440839	0
1	3845	700773.010352684767	0
1	3862	703189.877718835509	251.27162999582
1	3878	704291.215418116657	0
1	3895	707129.904598867162	0
1	3912	708704.481576706047	0
1	3937	713244.587441462435	0
1	3946	714312.773457420513	0
1	3972	720532.806759898681	0
1	3989	725787.618283858611	0
1	3998	726195.28093449319	0
1	4023	731485.915387307656	0
1	4032	732110.691170071103	0
1	4041	735303.52117470316	0
1	4074	739968.75732286936	0
1	4083	741799.368691475797	0
1	4110	750067.117854504779	0
1	4118	752283.565265078608	0
1	4145	759122.334300352896	0
1	4153	761418.133471406201	0
1	4179	767353.996718323083	0
1	4198	774536.035520437215	0
1	4217	783398.650523531969	0
1	4225	783694.977308212074	285.42075155426
1	4233	785512.579249256507	0
1	4267	790000.286398159348	0
1	4276	792453.339452875139	0
1	4284	792785.6747450341	258.09418152478
1	4301	795919.789557659914	0
1	4309	796205.004744160784	72.078127003722
1	4328	796767.024290619358	185.53582475928
1	4342	798103.391734511331	0
1	4383	803375.380856010497	0
1	4391	803993.667438044814	0
1	4400	805585.490230957003	0
1	4434	811798.040198478001	0
1	4452	817058.793445665577	0
1	4470	824974.572650637505	0
1	4490	836587.590460087145	0
1	4499	837357.911251298274	0
1	4507	839521.909222914929	0
1	4532	841106.309975638604	0
1	4540	841906.936287909181	0
1	4548	842874.683481795427	0
1	4557	843181.114575902791	252.7607731501
1	4608	852645.151840338251	0
1	4616	853484.597940155232	0
1	4624	854283.576222757793	0
1	4633	855818.58865557751	0
1	4657	857946.283208674988	0
1	4666	858312.317295161417	117.07133722965
1	4708	864429.053306750275	0
1	4726	870311.888093245247	0
1	4734	872940.889131110811	0
1	4751	874772.613055750684	0
1	4760	876111.987922967584	0
1	4776	877164.529018162589	0
1	4793	879037.361477262871	0
1	4827	886250.137003386063	0
1	4835	886915.900044314972	0
1	4844	888003.407930615969	0
1	4852	889455.3002486686	0
1	4860	889734.590972160301	116.78748953085
1	4888	891618.354633955106	219.45418435108
1	4927	897857.740741243748	0
1	4936	900508.489783121875	0
1	4953	904115.457420968455	0
1	4970	906664.259170003746	0
1	4978	907405.838732419906	0
1	4995	909734.140136050684	0
1	5011	910416.720259945111	104.79835258872
1	5036	914003.456857530528	30.209584888265
1	5053	915713.553750475864	0
1	5070	918625.138473571861	0
1	5099	935460.105991542587	0
1	5108	938481.276779587052	0
1	5125	939220.174979104026	0
1	5133	941075.948900245989	0
1	5153	942997.269136913237	118.79901953889
1	5161	943272.063502745948	0.612587493472
1	5199	947790.973005371178	0
1	5217	951362.062987938204	0
1	5226	954121.629148230781	0
1	5242	955878.236749017878	0
1	5250	956226.129274800419	333.67153084107
1	5284	960397.193897186925	0
1	5292	960729.759711850596	135.69275993248
1	5300	962311.880387147957	0
1	5308	962973.600108749981	0
1	5317	963465.26628636888	0
1	5341	965141.556370020018	0
1	5383	970169.92410959736	0
1	5402	979295.962810398104	0
1	5411	982581.572781102338	0
1	5428	985669.638095971357	0
1	5445	988239.213891445942	0
1	5462	990359.143638904645	0
1	5479	993099.037939782087	0
1	5504	998886.321536127289	0
1	5513	1001220.627371054385	0
1	5540	1008542.121668806447	0
1	5548	1010922.46542000802	0
1	5574	1015007.660673695926	162.78881749309
1	5582	1015283.196669650511	0
1	5590	1016426.116288663763	0
1	5599	1017115.979682662253	0
1	5607	1017429.441073781617	96.888631544468
1	5615	1018133.897492347934	0
1	5623	1018466.311363338072	216.64207715554
1	5656	1020511.689888465457	165.98903114053
1	5705	1025221.275032925669	0
1	5713	1025608.752179665113	0
1	5722	1027675.444129579701	0
1	5730	1028511.732826026326	0
1	5755	1030864.775081751884	0
1	5789	1036298.54364933351	0
2	674	121137.332104817808	1
2	676	121137.332104817808	0
2	701	129255.748202918942	1
2	703	129255.748202918942	0
2	709	130796.206730035481	1
2	711	130796.206730035481	0
2	726	133509.960984614776	1
2	728	133509.960984614776	0
2	748	137503.169401404717	1
2	753	137780.962611644817	0
2	769	141952.073108940732	1
2	771	141952.073108940732	0
2	777	143696.39166031145	1
2	779	143696.39166031145	0
2	791	145544.719556438615	1
2	796	145804.304605338779	0
2	803	147588.041082963447	1
2	805	147588.041082963447	0
2	833	151087.471586187004	1
2	838	151364.553215979709	0
2	853	155531.15151123484	1
2	855	155531.15151123484	0
2	862	157878.975905475843	1
2	864	157878.975905475843	0
2	879	159634.929172905395	1
2	881	159634.929172905395	0
2	887	160727.504953728785	1
2	889	160727.504953728785	0
2	904	162655.357834960376	1
2	906	162655.357834960376	0
2	912	163189.088019976162	1
2	914	163189.088019976162	0
2	937	165731.734940101579	1
2	939	165731.734940101579	0
2	973	177317.272846687667	1
2	975	177317.272846687667	0
2	978	177431.299301323554	1
2	983	177624.019929432502	0
2	990	180119.993809264621	1
2	992	180119.993809264621	0
2	1006	181579.580972074659	1
2	1011	181656.98995610062	0
2	1023	183781.049480811086	1
2	1025	183781.049480811086	0
2	1048	186273.524035106167	1
2	1050	186273.524035106167	0
2	1053	186296.970047760687	1
2	1058	186567.995638721138	0
2	1089	191404.206852578081	1
2	1091	191404.206852578081	0
2	1098	194520.807603496588	1
2	1100	194520.807603496588	0
2	1115	197039.205804626759	1
2	1117	197039.205804626759	0
2	1132	199532.070221490254	1
2	1134	199532.070221490254	0
2	1140	200332.858032483244	1
2	1142	200332.858032483244	0
2	1154	201285.291766040519	1
2	1159	201582.035289964827	0
2	1165	203425.862718206358	1
2	1167	203425.862718206358	0
2	1198	206158.57670936288	1
2	1200	206158.57670936288	0
2	1212	207841.262894736301	1
2	1217	208093.74526629349	0
2	1232	211756.259284968046	1
2	1234	211756.259284968046	0
2	1258	216781.34784562168	1
2	1260	216781.34784562168	0
2	1266	217558.006823481362	1
2	1268	217558.006823481362	0
2	1293	227154.718044062132	1
2	1295	227154.718044062132	0
2	1302	228618.158854962608	1
2	1304	228618.158854962608	0
2	1310	230578.521272388927	1
2	1312	230578.521272388927	0
2	1324	231013.398314606588	1
2	1329	231225.878438751962	0
2	1340	232023.921965799941	1
2	1345	232152.084696921936	0
2	1352	234249.612139300034	1
2	1354	234249.612139300034	0
2	1394	242015.109473961728	1
2	1396	242015.109473961728	0
2	1402	242446.503098635643	1
2	1404	242446.503098635643	0
2	1430	252301.193527809995	1
2	1432	252301.193527809995	0
2	1448	260045.148411497575	1
2	1450	260045.148411497575	0
2	1457	261189.922365593	1
2	1459	261189.922365593	0
2	1465	263274.960675505531	1
2	1467	263274.960675505531	0
2	1499	268719.776855315235	1
2	1501	268719.776855315235	0
2	1508	271118.700350572399	1
2	1510	271118.700350572399	0
2	1521	272701.749547975941	1
2	1527	273003.885058115913	0
2	1551	279149.314951108207	1
2	1553	279149.314951108207	0
2	1559	279680.690224017037	1
2	1561	279680.690224017037	0
2	1567	281943.902097855411	1
2	1569	281943.902097855411	0
2	1603	292100.383252686281	1
2	1605	292100.383252686281	0
2	1612	295019.517938709133	1
2	1614	295019.517938709133	0
2	1628	296954.999166742591	1
2	1630	296954.999166742591	0
2	1655	305600.549047923879	1
2	1657	305600.549047923879	0
2	1674	312835.595619893545	1
2	1676	312835.595619893545	0
2	1682	313538.330489813583	1
2	1684	313538.330489813583	0
2	1687	313785.997282646226	1
2	1692	313855.444243982665	0
2	1724	319859.190652623852	1
2	1726	319859.190652623852	0
2	1733	322937.567751998146	1
2	1735	322937.567751998146	0
2	1750	324088.819056854006	1
2	1752	324088.819056854006	0
2	1758	326177.333616477531	1
2	1760	326177.333616477531	0
2	1763	326243.327875101438	1
2	1766	326470.685187036829	2
2	1771	326484.824874668117	1
2	1779	326813.03601690616	0
2	1805	330007.651510673563	1
2	1810	330255.348436650284	0
2	1833	333148.978965766247	1
2	1835	333148.978965766247	0
2	1859	341142.077256854753	1
2	1861	341142.077256854753	0
2	1876	344877.582559722654	1
2	1878	344877.582559722654	0
2	1885	346326.555197040011	1
2	1887	346326.555197040011	0
2	1911	353171.579744869095	1
2	1913	353171.579744869095	0
2	1920	356006.168698980374	1
2	1922	356006.168698980374	0
2	1928	356407.724172513193	1
2	1930	356407.724172513193	0
2	1962	362391.967992323857	1
2	1964	362391.967992323857	0
2	1981	369556.719977941335	1
2	1983	369556.719977941335	0
2	1989	371706.641830660601	1
2	1991	371706.641830660601	0
2	2006	373117.238131866961	1
2	2008	373117.238131866961	0
2	2015	375494.206764923015	1
2	2017	375494.206764923015	0
2	2050	386676.538938710061	1
2	2052	386676.538938710061	0
2	2059	388191.096994205169	1
2	2061	388191.096994205169	0
2	2064	388232.946682837664	1
2	2069	388521.063597930543	0
2	2084	391073.823199768082	1
2	2086	391073.823199768082	0
2	2109	393162.274231769027	1
2	2111	393162.274231769027	0
2	2134	396840.530859267056	1
2	2136	396840.530859267056	0
2	2142	398899.866953766109	1
2	2144	398899.866953766109	0
2	2151	399693.229018967397	1
2	2153	399693.229018967397	0
2	2184	404571.930425912419	1
2	2186	404571.930425912419	0
2	2204	414269.832208162217	1
2	2206	414269.832208162217	0
2	2212	416652.351813128311	1
2	2214	416652.351813128311	0
2	2241	431022.079872665365	1
2	2243	431022.079872665365	0
2	2249	431633.857120995795	1
2	2251	431633.857120995795	0
2	2275	436237.509926711617	1
2	2277	436237.509926711617	0
2	2284	438635.882438253257	1
2	2286	438635.882438253257	0
2	2292	438976.732136892344	1
2	2294	438976.732136892344	0
2	2308	440548.073699090938	1
2	2310	440548.073699090938	0
2	2317	441575.202665897041	1
2	2319	441575.202665897041	0
2	2360	450424.667622691511	1
2	2362	450424.667622691511	0
2	2368	452818.989811353154	1
2	2370	452818.989811353154	0
2	2386	456200.710798487715	1
2	2388	456200.710798487715	0
2	2402	458434.530490324595	1
2	2404	458434.530490324595	0
2	2428	464569.408392966053	1
2	2430	464569.408392966053	0
2	2447	471319.611411427739	1
2	2449	471319.611411427739	0
2	2455	472293.66745730786	1
2	2457	472293.66745730786	0
2	2463	473222.264304046064	1
2	2465	473222.264304046064	0
2	2485	475962.909233347859	1
2	2490	476183.657789848992	0
2	2515	484286.395351763367	1
2	2517	484286.395351763367	0
2	2529	488393.36809973206	1
2	2534	488694.674179276158	0
2	2550	493384.210809045874	1
2	2552	493384.210809045874	0
2	2555	493512.190290761193	1
2	2560	493668.57238509317	0
2	2567	495529.021517639242	1
2	2569	495529.021517639242	0
2	2575	497595.363064836545	1
2	2577	497595.363064836545	0
2	2588	497919.327310969294	1
2	2591	497995.061706307867	2
2	2600	498225.08589343811	1
2	2605	498533.729224638284	0
2	2633	501642.290732502483	1
2	2635	501642.290732502483	0
2	2658	504199.108536271657	1
2	2660	504199.108536271657	0
2	2675	507742.293173789677	1
2	2677	507742.293173789677	0
2	2691	509492.077965792658	1
2	2693	509492.077965792658	0
2	2717	514451.761352670788	1
2	2719	514451.761352670788	0
2	2725	515756.246078529025	1
2	2727	515756.246078529025	0
2	2734	516220.469858646629	1
2	2736	516220.469858646629	0
2	2742	517794.387138333612	1
2	2744	517794.387138333612	0
2	2755	518702.288233673791	1
2	2760	518948.454010338735	0
2	2783	521358.215741454702	1
2	2785	521358.215741454702	0
2	2820	536007.325825418866	1
2	2822	536007.325825418866	0
2	2829	537052.028692140106	1
2	2831	537052.028692140106	0
2	2837	538301.841394494069	1
2	2839	538301.841394494069	0
2	2845	539947.131244720768	1
2	2847	539947.131244720768	0
2	2879	543236.598048765759	1
2	2881	543236.598048765759	0
2	2904	548664.427087047347	1
2	2906	548664.427087047347	0
2	2913	549210.189095118976	1
2	2915	549210.189095118976	0
2	2921	550255.260360881756	1
2	2923	550255.260360881756	0
2	2929	550831.354773803307	1
2	2931	550831.354773803307	0
2	2972	558521.358552144357	1
2	2974	558521.358552144357	0
2	2980	560086.751195995864	1
2	2982	560086.751195995864	0
2	3007	569267.91203415867	1
2	3009	569267.91203415867	0
2	3016	570897.679291038653	1
2	3018	570897.679291038653	0
2	3042	576061.971884955577	1
2	3044	576061.971884955577	0
2	3059	581753.332307137191	1
2	3061	581753.332307137191	0
2	3068	584716.449501102495	1
2	3070	584716.449501102495	0
2	3085	586004.290774688252	1
2	3087	586004.290774688252	0
2	3090	586080.458276934025	1
2	3095	586315.727533107168	0
2	3102	588041.072113064384	1
2	3104	588041.072113064384	0
2	3135	591124.549702334599	1
2	3137	591124.549702334599	0
2	3148	592478.148150135652	1
2	3153	592482.567241713971	0
2	3159	592936.528778688028	1
2	3161	592936.528778688028	0
2	3184	596775.559996812906	1
2	3186	596775.559996812906	0
2	3201	598844.56631578156	1
2	3203	598844.56631578156	0
2	3209	599815.231893091164	1
2	3211	599815.231893091164	0
2	3247	615088.323153377576	1
2	3249	615088.323153377576	0
2	3255	615478.524828633612	1
2	3257	615478.524828633612	0
2	3280	620597.400095745168	1
2	3282	620597.400095745168	0
2	3289	621359.336050574682	1
2	3291	621359.336050574682	0
2	3297	622330.523792098455	1
2	3299	622330.523792098455	0
2	3332	631328.503544420485	1
2	3334	631328.503544420485	0
2	3340	631973.301090305853	1
2	3342	631973.301090305853	0
2	3348	632714.673852559505	1
2	3350	632714.673852559505	0
2	3353	632849.184018653978	1
2	3359	633045.156929939678	0
2	3362	633180.142209655337	1
2	3367	633398.585433649114	0
2	3415	640307.329833984371	1
2	3417	640307.329833984371	0
2	3423	641020.244033335587	1
2	3425	641020.244033335587	0
2	3450	650291.567965613421	1
2	3452	650291.567965613421	0
2	3459	651073.791118165109	1
2	3461	651073.791118165109	0
2	3467	651728.71304874812	1
2	3469	651728.71304874812	0
2	3500	656382.852035279988	1
2	3502	656382.852035279988	0
2	3509	658565.904036186714	1
2	3511	658565.904036186714	0
2	3534	662497.414281451515	1
2	3536	662497.414281451515	0
2	3543	665273.354846463642	1
2	3545	665273.354846463642	0
2	3551	665688.41475572597	1
2	3553	665688.41475572597	0
2	3568	666986.727658691474	1
2	3570	666986.727658691474	0
2	3602	674129.752450363718	1
2	3604	674129.752450363718	0
2	3611	676022.049919663641	1
2	3613	676022.049919663641	0
2	3636	680796.633890512459	1
2	3638	680796.633890512459	0
2	3645	681297.052603155877	1
2	3647	681297.052603155877	0
2	3653	682400.559130070676	1
2	3655	682400.559130070676	0
2	3658	682568.61506506016	1
2	3663	682658.930794700485	0
2	3670	684072.501837264168	1
2	3672	684072.501837264168	0
2	3707	686536.501918043277	1
2	3712	686604.934582663521	0
2	3719	687226.604305255867	1
2	3721	687226.604305255867	0
2	3735	689067.269616375736	1
2	3737	689067.269616375736	0
2	3743	689527.538390205951	1
2	3745	689527.538390205951	0
2	3768	692482.253374037041	1
2	3770	692482.253374037041	0
2	3773	692625.468662378177	1
2	3778	692802.180082153596	0
2	3810	696555.254240097045	1
2	3812	696555.254240097045	0
2	3827	699635.833349440839	1
2	3829	699635.833349440839	0
2	3843	700773.010352684767	1
2	3845	700773.010352684767	0
2	3857	702938.60608883969	1
2	3862	703189.877718835509	0
2	3876	704291.215418116657	1
2	3878	704291.215418116657	0
2	3893	707129.904598867162	1
2	3895	707129.904598867162	0
2	3910	708704.481576706047	1
2	3912	708704.481576706047	0
2	3935	713244.587441462435	1
2	3937	713244.587441462435	0
2	3944	714312.773457420513	1
2	3946	714312.773457420513	0
2	3970	720532.806759898681	1
2	3972	720532.806759898681	0
2	3987	725787.618283858611	1
2	3989	725787.618283858611	0
2	3996	726195.28093449319	1
2	3998	726195.28093449319	0
2	4021	731485.915387307656	1
2	4023	731485.915387307656	0
2	4030	732110.691170071103	1
2	4032	732110.691170071103	0
2	4039	735303.52117470316	1
2	4041	735303.52117470316	0
2	4072	739968.75732286936	1
2	4074	739968.75732286936	0
2	4081	741799.368691475797	1
2	4083	741799.368691475797	0
2	4108	750067.117854504779	1
2	4110	750067.117854504779	0
2	4116	752283.565265078608	1
2	4118	752283.565265078608	0
2	4143	759122.334300352896	1
2	4145	759122.334300352896	0
2	4151	761418.133471406201	1
2	4153	761418.133471406201	0
2	4177	767353.996718323083	1
2	4179	767353.996718323083	0
2	4196	774536.035520437215	1
2	4198	774536.035520437215	0
2	4215	783398.650523531969	1
2	4217	783398.650523531969	0
2	4220	783409.556556657814	1
2	4225	783694.977308212074	0
2	4231	785512.579249256507	1
2	4233	785512.579249256507	0
2	4265	790000.286398159348	1
2	4267	790000.286398159348	0
2	4274	792453.339452875139	1
2	4276	792453.339452875139	0
2	4279	792527.580563509324	1
2	4284	792785.6747450341	0
2	4299	795919.789557659914	1
2	4301	795919.789557659914	0
2	4304	796132.926617157062	1
2	4309	796205.004744160784	0
2	4323	796581.488465860081	1
2	4328	796767.024290619358	0
2	4340	798103.391734511331	1
2	4342	798103.391734511331	0
2	4381	803375.380856010497	1
2	4383	803375.380856010497	0
2	4389	803993.667438044814	1
2	4391	803993.667438044814	0
2	4398	805585.490230957003	1
2	4400	805585.490230957003	0
2	4432	811798.040198478001	1
2	4434	811798.040198478001	0
2	4450	817058.793445665577	1
2	4452	817058.793445665577	0
2	4468	824974.572650637505	1
2	4470	824974.572650637505	0
2	4488	836587.590460087145	1
2	4490	836587.590460087145	0
2	4497	837357.911251298274	1
2	4499	837357.911251298274	0
2	4505	839521.909222914929	1
2	4507	839521.909222914929	0
2	4530	841106.309975638604	1
2	4532	841106.309975638604	0
2	4538	841906.936287909181	1
2	4540	841906.936287909181	0
2	4546	842874.683481795427	1
2	4548	842874.683481795427	0
2	4551	842928.353802752687	1
2	4557	843181.114575902791	0
2	4606	852645.151840338251	1
2	4608	852645.151840338251	0
2	4614	853484.597940155232	1
2	4616	853484.597940155232	0
2	4622	854283.576222757793	1
2	4624	854283.576222757793	0
2	4631	855818.58865557751	1
2	4633	855818.58865557751	0
2	4655	857946.283208674988	1
2	4657	857946.283208674988	0
2	4661	858195.245957931769	1
2	4666	858312.317295161417	0
2	4706	864429.053306750275	1
2	4708	864429.053306750275	0
2	4724	870311.888093245247	1
2	4726	870311.888093245247	0
2	4732	872940.889131110811	1
2	4734	872940.889131110811	0
2	4749	874772.613055750684	1
2	4751	874772.613055750684	0
2	4758	876111.987922967584	1
2	4760	876111.987922967584	0
2	4774	877164.529018162589	1
2	4776	877164.529018162589	0
2	4791	879037.361477262871	1
2	4793	879037.361477262871	0
2	4825	886250.137003386063	1
2	4827	886250.137003386063	0
2	4833	886915.900044314972	1
2	4835	886915.900044314972	0
2	4842	888003.407930615969	1
2	4844	888003.407930615969	0
2	4850	889455.3002486686	1
2	4852	889455.3002486686	0
2	4855	889617.803482629451	1
2	4860	889734.590972160301	0
2	4880	891398.90044960403	1
2	4888	891618.354633955106	0
2	4925	897857.740741243748	1
2	4927	897857.740741243748	0
2	4934	900508.489783121875	1
2	4936	900508.489783121875	0
2	4951	904115.457420968455	1
2	4953	904115.457420968455	0
2	4968	906664.259170003746	1
2	4970	906664.259170003746	0
2	4976	907405.838732419906	1
2	4978	907405.838732419906	0
2	4993	909734.140136050684	1
2	4995	909734.140136050684	0
2	5006	910311.921907356395	1
2	5011	910416.720259945111	0
2	5031	913973.247272642263	1
2	5036	914003.456857530528	0
2	5051	915713.553750475864	1
2	5053	915713.553750475864	0
2	5068	918625.138473571861	1
2	5070	918625.138473571861	0
2	5097	935460.105991542587	1
2	5099	935460.105991542587	0
2	5106	938481.276779587052	1
2	5108	938481.276779587052	0
2	5123	939220.174979104026	1
2	5125	939220.174979104026	0
2	5131	941075.948900245989	1
2	5133	941075.948900245989	0
2	5148	942878.470117374351	1
2	5153	942997.269136913237	0
2	5156	943271.450915252476	1
2	5161	943272.063502745948	0
2	5197	947790.973005371178	1
2	5199	947790.973005371178	0
2	5215	951362.062987938204	1
2	5217	951362.062987938204	0
2	5224	954121.629148230781	1
2	5226	954121.629148230781	0
2	5240	955878.236749017878	1
2	5242	955878.236749017878	0
2	5245	955892.457743959347	1
2	5250	956226.129274800419	0
2	5282	960397.193897186925	1
2	5284	960397.193897186925	0
2	5287	960594.06695191812	1
2	5292	960729.759711850596	0
2	5298	962311.880387147957	1
2	5300	962311.880387147957	0
2	5306	962973.600108749981	1
2	5308	962973.600108749981	0
2	5315	963465.26628636888	1
2	5317	963465.26628636888	0
2	5339	965141.556370020018	1
2	5341	965141.556370020018	0
2	5381	970169.92410959736	1
2	5383	970169.92410959736	0
2	5400	979295.962810398104	1
2	5402	979295.962810398104	0
2	5409	982581.572781102338	1
2	5411	982581.572781102338	0
2	5426	985669.638095971357	1
2	5428	985669.638095971357	0
2	5443	988239.213891445942	1
2	5445	988239.213891445942	0
2	5460	990359.143638904645	1
2	5462	990359.143638904645	0
2	5477	993099.037939782087	1
2	5479	993099.037939782087	0
2	5502	998886.321536127289	1
2	5504	998886.321536127289	0
2	5511	1001220.627371054385	1
2	5513	1001220.627371054385	0
2	5538	1008542.121668806447	1
2	5540	1008542.121668806447	0
2	5546	1010922.46542000802	1
2	5548	1010922.46542000802	0
2	5569	1014844.87185620284	1
2	5574	1015007.660673695926	0
2	5580	1015283.196669650511	1
2	5582	1015283.196669650511	0
2	5588	1016426.116288663763	1
2	5590	1016426.116288663763	0
2	5597	1017115.979682662253	1
2	5599	1017115.979682662253	0
2	5602	1017332.552442237149	1
2	5607	1017429.441073781617	0
2	5613	1018133.897492347934	1
2	5615	1018133.897492347934	0
2	5618	1018249.669286182529	1
2	5623	1018466.311363338072	0
2	5651	1020345.700857324925	1
2	5656	1020511.689888465457	0
2	5703	1025221.275032925669	1
2	5705	1025221.275032925669	0
2	5711	1025608.752179665113	1
2	5713	1025608.752179665113	0
2	5720	1027675.444129579701	1
2	5722	1027675.444129579701	0
2	5728	1028511.732826026326	1
2	5730	1028511.732826026326	0
2	5753	1030864.775081751884	1
2	5755	1030864.775081751884	0
2	5787	1036298.54364933351	1
2	5789	1036298.54364933351	0
3	684	122848.088747858633	0
3	693	125651.760443653754	0
3	720	132897.547253083926	0
3	736	134797.116844431307	0
3	745	137465.528600485926	0
3	762	140868.495354230949	0
3	788	145476.057532252269	0
3	813	148109.896331698832	0
3	821	149461.320312174205	0
3	830	151037.268311540243	0
3	847	155029.617607348766	0
3	873	159223.787378417114	0
3	897	161418.50482764977	0
3	922	163717.805526337853	0
3	930	164704.654131764483	0
3	947	166739.408872393906	0
3	955	167032.183265095171	113.1940269912
3	964	169297.263322266647	0
3	1000	181366.591935079686	0
3	1016	181969.861122809749	528.2093602981
3	1033	184582.844176023409	0
3	1041	185000.500063714832	0
3	1066	187789.464103529455	0
3	1075	190226.97784256308	0
3	1083	190565.575956281959	160.46037420792
3	1109	195458.98524584581	0
3	1126	198308.563201888095	0
3	1151	201277.84042596263	0
3	1175	203796.202565703577	0
3	1184	204549.989468114139	0
3	1192	205873.11024618069	0
3	1209	207726.722691219852	0
3	1225	209967.532454171465	0
3	1242	212134.708910849744	0
3	1251	215293.817540374051	0
3	1277	220400.800405787297	0
3	1286	222396.737969296401	0
3	1320	230913.859230115778	149.44821456321
3	1337	231857.305353700763	0
3	1362	234612.720692135103	0
3	1370	235324.442557788133	0
3	1378	236115.889581617791	0
3	1387	238126.855256484259	0
3	1413	245900.232573081277	0
3	1422	246488.147727962258	0
3	1441	256344.583118594882	0
3	1476	264025.814545559827	0
3	1484	265091.290260447726	0
3	1493	267328.910457237232	0
3	1518	272699.092661885626	0
3	1535	274238.586018285978	0
3	1544	277127.845550171418	0
3	1578	282778.065551528625	0
3	1586	283209.826626291992	0
3	1595	285372.012959512446	0
3	1622	296398.810376232008	0
3	1639	299669.288096280525	0
3	1648	300754.080101999438	0
3	1667	309543.517030241608	0
3	1701	316091.92305274086	0
3	1709	317013.857816017947	0
3	1717	317683.776419171532	0
3	1743	323517.924683293775	0
3	1788	327041.691257740891	469.92336318818
3	1793	327364.495673488397	375.79362881557
3	1801	329979.599893080374	0
3	1821	330566.642729335638	5.34750441075
3	1826	330843.596921116326	279.40292222886
3	1843	333785.584780364078	0
3	1852	337595.578972080733	0
3	1870	344496.786453209425	0
3	1896	349005.579043450009	0
3	1904	349995.315150426315	0
3	1938	356813.478021409418	0
3	1948	360365.323351341265	0
3	1956	360919.996536719388	0
3	1974	366382.319448745533	0
3	2000	372571.209965017007	0
3	2025	375813.982597148226	243.5995778925
3	2033	377374.815809076548	0
3	2042	379863.53479026668	0
3	2078	390460.714785142288	0
3	2094	391745.410665969395	0
3	2102	391985.770526147609	66.818284764165
3	2119	394922.183096176895	0
3	2128	396532.106711826287	0
3	2161	400117.979108061662	0
3	2170	403134.99588043623	0
3	2178	403531.20898255705	0
3	2196	408798.94236325701	0
3	2223	417819.438474605171	0
3	2232	420919.988401025942	0
3	2261	435199.097390108537	0
3	2269	435535.40115267307	268.36224320556
3	2302	439654.991759023429	0
3	2327	442374.41137021772	0
3	2335	442681.579445712945	3.034708226782
3	2344	444582.44089351164	0
3	2352	445386.368840053934	0
3	2379	453911.659875527831	0
3	2396	457073.396495861851	0
3	2413	459921.137017718953	0
3	2422	462503.858678524693	0
3	2440	468262.810332609973	0
3	2474	474785.021725113408	0
3	2482	475852.22320514924	0
3	2499	477243.881341421337	0
3	2507	479365.059956102353	0
3	2526	488322.026349969084	0
3	2544	492733.839348815713	0
3	2585	497915.572293833217	291.31914096382
3	2610	498874.785162000299	869.45749471414
3	2618	499572.751624618993	0
3	2627	501283.031798326823	0
3	2643	502028.38229746101	0
3	2651	502878.649644155637	0
3	2668	505279.019639038303	0
3	2685	508621.690332993081	0
3	2702	511344.843454218566	0
3	2710	512995.104231035961	0
3	2752	518623.162153395965	0
3	2769	519594.700100110674	0
3	2777	520138.337781137021	0
3	2793	521829.575456878804	0
3	2802	522648.902545701936	0
3	2810	524274.166714214603	0
3	2856	540248.314291827663	15.785811095565
3	2864	540619.356693887304	217.00481009562
3	2872	542131.328301850239	0
3	2889	543828.974964427108	0
3	2898	547411.287352762055	0
3	2940	552694.03861013259	0
3	2948	553185.04758543614	0
3	2956	553779.037767767564	0
3	2965	555187.693992170875	0
3	2991	561985.22115947448	0
3	3000	564062.078570770272	0
3	3026	572994.55160438543	0
3	3035	574478.953874557186	0
3	3053	580425.071229012979	0
3	3079	585008.584462905502	120.87471633637
3	3112	589086.302661805512	0
3	3120	589507.12066046382	0
3	3128	590446.55297215028	0
3	3145	592162.999384209537	0
3	3170	594159.685686989528	0
3	3178	596244.726152512733	0
3	3195	597072.709428056206	268.76198748597
3	3220	600360.675949812071	0
3	3229	603003.19991848858	0
3	3237	603302.925323114237	58.261589290842
3	3266	619325.993666095992	0
3	3274	619642.447983037475	113.851749041
3	3308	624665.093858877449	0
3	3316	625249.831383890474	0
3	3324	626234.724919389357	0
3	3375	634723.287527539423	0
3	3383	635939.385139030347	0
3	3392	636250.939457902614	65.001201867143
3	3400	636812.048912408649	0
3	3408	637170.091219875454	80.906359927003
3	3434	644689.958662957524	0
3	3443	645075.323660605825	0
3	3478	654762.187705786355	0
3	3486	655053.432781110085	44.585548354238
3	3494	655360.396511283714	0
3	3519	659849.645461552967	0
3	3528	662053.087389374017	0
3	3562	666006.208847042968	0
3	3579	669152.832600080472	0
3	3587	669419.073128001229	79.519238819855
3	3595	671404.506658361383	0
3	3622	678069.652254149229	0
3	3630	679886.064294717645	0
3	3680	684698.775567457223	0
3	3688	685018.12048667251	288.0092932457
3	3696	686074.459195404319	0
3	3704	686337.600245904699	259.59472156432
3	3729	688095.548354629914	0
3	3754	690812.000802682842	0
3	3762	691091.846252607834	276.42160751739
3	3787	693217.359273341262	0
3	3795	693966.918825920347	0
3	3804	696050.801354901752	0
3	3820	697027.672720069339	0
3	3837	700413.005902597935	0
3	3854	702881.24009991892	0
3	3870	703963.437367065264	0
3	3887	706595.428000766323	0
3	3903	707899.504309673726	0
3	3921	711164.244127743351	0
3	3929	711955.728735988072	0
3	3954	716580.86922682863	0
3	3963	718310.20755921673	0
3	3981	723984.526441992199	0
3	4007	729804.186882853614	0
3	4015	730187.860206271163	0
3	4049	735643.949705625812	0
3	4057	736008.002936005194	0
3	4066	738809.782627153746	0
3	4092	744100.117975032932	0
3	4100	745685.177796397716	0
3	4127	753664.921000841089	0
3	4135	755806.569870530563	0
3	4162	763046.466230478263	0
3	4171	765089.018931273107	0
3	4189	771033.894496928882	0
3	4207	778367.460328258142	0
3	4242	787143.035571263467	0
3	4250	787381.560109530334	231.02005972392
3	4259	789711.834996983406	0
3	4292	793954.18020405013	0
3	4317	796483.010220828568	159.73711694346
3	4333	797065.959784580639	488.84401238533
3	4350	800005.064073615263	0
3	4358	800301.8145479148	62.448673433818
3	4367	801177.803397432739	0
3	4375	801977.431748818227	0
3	4408	806896.123962941631	0
3	4417	808238.142001279118	0
3	4425	809506.264899567914	0
3	4443	814638.844617227852	0
3	4461	821115.767670195373	0
3	4480	828644.475705726922	0
3	4515	839919.618966717612	0
3	4524	840711.868778094703	0
3	4565	843500.591383245635	153.3499019275
3	4573	844326.595001577826	0
3	4581	845839.396756720236	0
3	4590	846629.777911388695	0
3	4598	846998.015894280561	0
3	4641	856083.686270643214	74.37153550646
3	4649	857217.38706526744	0
3	4674	858587.330618517817	126.95113142902
3	4682	859796.624403365577	0
3	4691	861883.668584800732	0
3	4699	862328.645410463277	0
3	4717	868249.872508722021	0
3	4743	873907.630633060746	0
3	4768	876753.030975940528	0
3	4784	878401.522862173508	0
3	4801	879981.966093584283	0
3	4809	881359.732432028866	0
3	4818	882931.104112192451	0
3	4868	890409.511482611263	0
3	4877	891314.849894643274	0
3	4893	891901.390415097844	468.15122350657
3	4901	893390.485059702075	0
3	4909	893689.917219932126	224.3483581273
3	4918	895585.215029073018	0
3	4944	901730.169401968104	0
3	4961	904662.991248909735	0
3	4986	908265.00854833919	0
3	5003	910107.826279887079	0
3	5019	911333.239616210357	0
3	5028	913667.040796762634	0
3	5044	914339.468753268912	256.78652104251
3	5061	917726.490073743297	0
3	5078	919516.923539199741	0
3	5087	922534.216898986655	0
3	5116	938874.50614037054	0
3	5142	942677.537418707084	0
3	5166	943590.708749422221	844.50412171885
3	5174	944882.327944573424	0
3	5183	946584.859005167619	0
3	5191	947405.975209959578	0
3	5208	950787.494957702146	0
3	5234	955352.361866258319	0
3	5259	957522.064608632352	0
3	5267	959427.080722244937	0
3	5275	959864.03595184462	0
3	5325	963793.413266884465	73.505399545508
3	5333	964814.506967086301	0
3	5349	965913.214616875547	0
3	5358	966659.310579678642	0
3	5366	968073.135112036542	0
3	5374	968823.395992498417	0
3	5392	974687.097940194915	0
3	5419	982901.180681127048	170.12378509097
3	5436	986344.898689347128	0
3	5453	989301.373264584114	0
3	5470	992480.884511136993	0
3	5487	994421.591564889272	0
3	5496	996918.984202257112	0
3	5522	1002997.292681062107	0
3	5531	1005289.308848084758	0
3	5557	1012080.870959456892	0
3	5566	1014716.981023579482	0
3	5631	1019106.670753123849	0
3	5639	1019445.475152950943	258.77641558348
3	5648	1020249.782095682602	0
3	5664	1020890.035870758811	0
3	5672	1021162.520957347328	123.95065531425
3	5680	1022230.97603627585	0
3	5688	1022565.463233988644	201.91236287842
3	5697	1024813.338140150423	0
3	5739	1029096.497623699524	0
3	5747	1029977.947468649132	0
3	5764	1032038.389113674658	0
3	5772	1032572.550981554653	0
3	5781	1035740.583554965533	0
4	682	122848.088747858633	1
4	684	122848.088747858633	0
4	691	125651.760443653754	1
4	693	125651.760443653754	0
4	718	132897.547253083926	1
4	720	132897.547253083926	0
4	734	134797.116844431307	1
4	736	134797.116844431307	0
4	743	137465.528600485926	1
4	745	137465.528600485926	0
4	760	140868.495354230949	1
4	762	140868.495354230949	0
4	786	145476.057532252269	1
4	788	145476.057532252269	0
4	811	148109.896331698832	1
4	813	148109.896331698832	0
4	819	149461.320312174205	1
4	821	149461.320312174205	0
4	828	151037.268311540243	1
4	830	151037.268311540243	0
4	845	155029.617607348766	1
4	847	155029.617607348766	0
4	871	159223.787378417114	1
4	873	159223.787378417114	0
4	895	161418.50482764977	1
4	897	161418.50482764977	0
4	920	163717.805526337853	1
4	922	163717.805526337853	0
4	928	164704.654131764483	1
4	930	164704.654131764483	0
4	945	166739.408872393906	1
4	947	166739.408872393906	0
4	950	166918.989238103972	1
4	955	167032.183265095171	0
4	962	169297.263322266647	1
4	964	169297.263322266647	0
4	998	181366.591935079686	1
4	1000	181366.591935079686	0
4	1003	181441.651762511648	1
4	1016	181969.861122809749	0
4	1031	184582.844176023409	1
4	1033	184582.844176023409	0
4	1039	185000.500063714832	1
4	1041	185000.500063714832	0
4	1064	187789.464103529455	1
4	1066	187789.464103529455	0
4	1073	190226.97784256308	1
4	1075	190226.97784256308	0
4	1078	190405.115582074034	1
4	1083	190565.575956281959	0
4	1107	195458.98524584581	1
4	1109	195458.98524584581	0
4	1124	198308.563201888095	1
4	1126	198308.563201888095	0
4	1149	201277.84042596263	1
4	1151	201277.84042596263	0
4	1173	203796.202565703577	1
4	1175	203796.202565703577	0
4	1182	204549.989468114139	1
4	1184	204549.989468114139	0
4	1190	205873.11024618069	1
4	1192	205873.11024618069	0
4	1207	207726.722691219852	1
4	1209	207726.722691219852	0
4	1223	209967.532454171465	1
4	1225	209967.532454171465	0
4	1240	212134.708910849744	1
4	1242	212134.708910849744	0
4	1249	215293.817540374051	1
4	1251	215293.817540374051	0
4	1275	220400.800405787297	1
4	1277	220400.800405787297	0
4	1284	222396.737969296401	1
4	1286	222396.737969296401	0
4	1315	230764.411015552565	1
4	1320	230913.859230115778	0
4	1335	231857.305353700763	1
4	1337	231857.305353700763	0
4	1360	234612.720692135103	1
4	1362	234612.720692135103	0
4	1368	235324.442557788133	1
4	1370	235324.442557788133	0
4	1376	236115.889581617791	1
4	1378	236115.889581617791	0
4	1385	238126.855256484259	1
4	1387	238126.855256484259	0
4	1411	245900.232573081277	1
4	1413	245900.232573081277	0
4	1420	246488.147727962258	1
4	1422	246488.147727962258	0
4	1439	256344.583118594882	1
4	1441	256344.583118594882	0
4	1474	264025.814545559827	1
4	1476	264025.814545559827	0
4	1482	265091.290260447726	1
4	1484	265091.290260447726	0
4	1491	267328.910457237232	1
4	1493	267328.910457237232	0
4	1516	272699.092661885626	1
4	1518	272699.092661885626	0
4	1533	274238.586018285978	1
4	1535	274238.586018285978	0
4	1542	277127.845550171418	1
4	1544	277127.845550171418	0
4	1576	282778.065551528625	1
4	1578	282778.065551528625	0
4	1584	283209.826626291992	1
4	1586	283209.826626291992	0
4	1593	285372.012959512446	1
4	1595	285372.012959512446	0
4	1620	296398.810376232008	1
4	1622	296398.810376232008	0
4	1637	299669.288096280525	1
4	1639	299669.288096280525	0
4	1646	300754.080101999438	1
4	1648	300754.080101999438	0
4	1665	309543.517030241608	1
4	1667	309543.517030241608	0
4	1699	316091.92305274086	1
4	1701	316091.92305274086	0
4	1707	317013.857816017947	1
4	1709	317013.857816017947	0
4	1715	317683.776419171532	1
4	1717	317683.776419171532	0
4	1741	323517.924683293775	1
4	1743	323517.924683293775	0
4	1774	326571.767894552715	1
4	1782	326988.702044672831	2
4	1788	327041.691257740891	1
4	1793	327364.495673488397	0
4	1799	329979.599893080374	1
4	1801	329979.599893080374	0
4	1813	330561.295224924888	1
4	1816	330564.193998887462	2
4	1821	330566.642729335638	1
4	1826	330843.596921116326	0
4	1841	333785.584780364078	1
4	1843	333785.584780364078	0
4	1850	337595.578972080733	1
4	1852	337595.578972080733	0
4	1868	344496.786453209425	1
4	1870	344496.786453209425	0
4	1894	349005.579043450009	1
4	1896	349005.579043450009	0
4	1902	349995.315150426315	1
4	1904	349995.315150426315	0
4	1936	356813.478021409418	1
4	1938	356813.478021409418	0
4	1946	360365.323351341265	1
4	1948	360365.323351341265	0
4	1954	360919.996536719388	1
4	1956	360919.996536719388	0
4	1972	366382.319448745533	1
4	1974	366382.319448745533	0
4	1998	372571.209965017007	1
4	2000	372571.209965017007	0
4	2020	375570.383019255726	1
4	2025	375813.982597148226	0
4	2031	377374.815809076548	1
4	2033	377374.815809076548	0
4	2040	379863.53479026668	1
4	2042	379863.53479026668	0
4	2076	390460.714785142288	1
4	2078	390460.714785142288	0
4	2092	391745.410665969395	1
4	2094	391745.410665969395	0
4	2097	391918.952241383444	1
4	2102	391985.770526147609	0
4	2117	394922.183096176895	1
4	2119	394922.183096176895	0
4	2126	396532.106711826287	1
4	2128	396532.106711826287	0
4	2159	400117.979108061662	1
4	2161	400117.979108061662	0
4	2168	403134.99588043623	1
4	2170	403134.99588043623	0
4	2176	403531.20898255705	1
4	2178	403531.20898255705	0
4	2194	408798.94236325701	1
4	2196	408798.94236325701	0
4	2221	417819.438474605171	1
4	2223	417819.438474605171	0
4	2230	420919.988401025942	1
4	2232	420919.988401025942	0
4	2259	435199.097390108537	1
4	2261	435199.097390108537	0
4	2264	435267.038909467508	1
4	2269	435535.40115267307	0
4	2300	439654.991759023429	1
4	2302	439654.991759023429	0
4	2325	442374.41137021772	1
4	2327	442374.41137021772	0
4	2330	442678.544737486163	1
4	2335	442681.579445712945	0
4	2342	444582.44089351164	1
4	2344	444582.44089351164	0
4	2350	445386.368840053934	1
4	2352	445386.368840053934	0
4	2377	453911.659875527831	1
4	2379	453911.659875527831	0
4	2394	457073.396495861851	1
4	2396	457073.396495861851	0
4	2411	459921.137017718953	1
4	2413	459921.137017718953	0
4	2420	462503.858678524693	1
4	2422	462503.858678524693	0
4	2438	468262.810332609973	1
4	2440	468262.810332609973	0
4	2472	474785.021725113408	1
4	2474	474785.021725113408	0
4	2480	475852.22320514924	1
4	2482	475852.22320514924	0
4	2497	477243.881341421337	1
4	2499	477243.881341421337	0
4	2505	479365.059956102353	1
4	2507	479365.059956102353	0
4	2524	488322.026349969084	1
4	2526	488322.026349969084	0
4	2542	492733.839348815713	1
4	2544	492733.839348815713	0
4	2580	497624.253152869399	1
4	2585	497915.572293833217	0
4	2595	498005.327667286159	1
4	2610	498874.785162000299	0
4	2616	499572.751624618993	1
4	2618	499572.751624618993	0
4	2625	501283.031798326823	1
4	2627	501283.031798326823	0
4	2641	502028.38229746101	1
4	2643	502028.38229746101	0
4	2649	502878.649644155637	1
4	2651	502878.649644155637	0
4	2666	505279.019639038303	1
4	2668	505279.019639038303	0
4	2683	508621.690332993081	1
4	2685	508621.690332993081	0
4	2700	511344.843454218566	1
4	2702	511344.843454218566	0
4	2708	512995.104231035961	1
4	2710	512995.104231035961	0
4	2750	518623.162153395965	1
4	2752	518623.162153395965	0
4	2767	519594.700100110674	1
4	2769	519594.700100110674	0
4	2775	520138.337781137021	1
4	2777	520138.337781137021	0
4	2791	521829.575456878804	1
4	2793	521829.575456878804	0
4	2800	522648.902545701936	1
4	2802	522648.902545701936	0
4	2808	524274.166714214603	1
4	2810	524274.166714214603	0
4	2851	540232.528480732098	1
4	2856	540248.314291827663	0
4	2859	540402.35188379168	1
4	2864	540619.356693887304	0
4	2870	542131.328301850239	1
4	2872	542131.328301850239	0
4	2887	543828.974964427108	1
4	2889	543828.974964427108	0
4	2896	547411.287352762055	1
4	2898	547411.287352762055	0
4	2938	552694.03861013259	1
4	2940	552694.03861013259	0
4	2946	553185.04758543614	1
4	2948	553185.04758543614	0
4	2954	553779.037767767564	1
4	2956	553779.037767767564	0
4	2963	555187.693992170875	1
4	2965	555187.693992170875	0
4	2989	561985.22115947448	1
4	2991	561985.22115947448	0
4	2998	564062.078570770272	1
4	3000	564062.078570770272	0
4	3024	572994.55160438543	1
4	3026	572994.55160438543	0
4	3033	574478.953874557186	1
4	3035	574478.953874557186	0
4	3051	580425.071229012979	1
4	3053	580425.071229012979	0
4	3073	584887.709746569129	1
4	3079	585008.584462905502	0
4	3110	589086.302661805512	1
4	3112	589086.302661805512	0
4	3118	589507.12066046382	1
4	3120	589507.12066046382	0
4	3126	590446.55297215028	1
4	3128	590446.55297215028	0
4	3143	592162.999384209537	1
4	3145	592162.999384209537	0
4	3168	594159.685686989528	1
4	3170	594159.685686989528	0
4	3176	596244.726152512733	1
4	3178	596244.726152512733	0
4	3189	596803.947440570238	1
4	3195	597072.709428056206	0
4	3218	600360.675949812071	1
4	3220	600360.675949812071	0
4	3227	603003.19991848858	1
4	3229	603003.19991848858	0
4	3232	603244.663733823395	1
4	3237	603302.925323114237	0
4	3264	619325.993666095992	1
4	3266	619325.993666095992	0
4	3269	619528.596233996476	1
4	3274	619642.447983037475	0
4	3306	624665.093858877449	1
4	3308	624665.093858877449	0
4	3314	625249.831383890474	1
4	3316	625249.831383890474	0
4	3322	626234.724919389357	1
4	3324	626234.724919389357	0
4	3373	634723.287527539423	1
4	3375	634723.287527539423	0
4	3381	635939.385139030347	1
4	3383	635939.385139030347	0
4	3387	636185.938256035471	1
4	3392	636250.939457902614	0
4	3398	636812.048912408649	1
4	3400	636812.048912408649	0
4	3403	637089.184859948451	1
4	3408	637170.091219875454	0
4	3432	644689.958662957524	1
4	3434	644689.958662957524	0
4	3441	645075.323660605825	1
4	3443	645075.323660605825	0
4	3476	654762.187705786355	1
4	3478	654762.187705786355	0
4	3481	655008.847232755847	1
4	3486	655053.432781110085	0
4	3492	655360.396511283714	1
4	3494	655360.396511283714	0
4	3517	659849.645461552967	1
4	3519	659849.645461552967	0
4	3526	662053.087389374017	1
4	3528	662053.087389374017	0
4	3560	666006.208847042968	1
4	3562	666006.208847042968	0
4	3577	669152.832600080472	1
4	3579	669152.832600080472	0
4	3582	669339.553889181374	1
4	3587	669419.073128001229	0
4	3593	671404.506658361383	1
4	3595	671404.506658361383	0
4	3620	678069.652254149229	1
4	3622	678069.652254149229	0
4	3628	679886.064294717645	1
4	3630	679886.064294717645	0
4	3678	684698.775567457223	1
4	3680	684698.775567457223	0
4	3683	684730.111193426811	1
4	3688	685018.12048667251	0
4	3694	686074.459195404319	1
4	3696	686074.459195404319	0
4	3699	686078.005524340383	1
4	3704	686337.600245904699	0
4	3727	688095.548354629914	1
4	3729	688095.548354629914	0
4	3752	690812.000802682842	1
4	3754	690812.000802682842	0
4	3757	690815.424645090441	1
4	3762	691091.846252607834	0
4	3785	693217.359273341262	1
4	3787	693217.359273341262	0
4	3793	693966.918825920347	1
4	3795	693966.918825920347	0
4	3802	696050.801354901752	1
4	3804	696050.801354901752	0
4	3818	697027.672720069339	1
4	3820	697027.672720069339	0
4	3835	700413.005902597935	1
4	3837	700413.005902597935	0
4	3852	702881.24009991892	1
4	3854	702881.24009991892	0
4	3868	703963.437367065264	1
4	3870	703963.437367065264	0
4	3885	706595.428000766323	1
4	3887	706595.428000766323	0
4	3901	707899.504309673726	1
4	3903	707899.504309673726	0
4	3919	711164.244127743351	1
4	3921	711164.244127743351	0
4	3927	711955.728735988072	1
4	3929	711955.728735988072	0
4	3952	716580.86922682863	1
4	3954	716580.86922682863	0
4	3961	718310.20755921673	1
4	3963	718310.20755921673	0
4	3979	723984.526441992199	1
4	3981	723984.526441992199	0
4	4005	729804.186882853614	1
4	4007	729804.186882853614	0
4	4013	730187.860206271163	1
4	4015	730187.860206271163	0
4	4047	735643.949705625812	1
4	4049	735643.949705625812	0
4	4055	736008.002936005194	1
4	4057	736008.002936005194	0
4	4064	738809.782627153746	1
4	4066	738809.782627153746	0
4	4090	744100.117975032932	1
4	4092	744100.117975032932	0
4	4098	745685.177796397716	1
4	4100	745685.177796397716	0
4	4125	753664.921000841089	1
4	4127	753664.921000841089	0
4	4133	755806.569870530563	1
4	4135	755806.569870530563	0
4	4160	763046.466230478263	1
4	4162	763046.466230478263	0
4	4169	765089.018931273107	1
4	4171	765089.018931273107	0
4	4187	771033.894496928882	1
4	4189	771033.894496928882	0
4	4205	778367.460328258142	1
4	4207	778367.460328258142	0
4	4240	787143.035571263467	1
4	4242	787143.035571263467	0
4	4245	787150.540049806409	1
4	4250	787381.560109530334	0
4	4257	789711.834996983406	1
4	4259	789711.834996983406	0
4	4290	793954.18020405013	1
4	4292	793954.18020405013	0
4	4312	796323.273103885109	1
4	4317	796483.010220828568	0
4	4320	796577.115772195309	1
4	4333	797065.959784580639	0
4	4348	800005.064073615263	1
4	4350	800005.064073615263	0
4	4353	800239.365874480982	1
4	4358	800301.8145479148	0
4	4365	801177.803397432739	1
4	4367	801177.803397432739	0
4	4373	801977.431748818227	1
4	4375	801977.431748818227	0
4	4406	806896.123962941631	1
4	4408	806896.123962941631	0
4	4415	808238.142001279118	1
4	4417	808238.142001279118	0
4	4423	809506.264899567914	1
4	4425	809506.264899567914	0
4	4441	814638.844617227852	1
4	4443	814638.844617227852	0
4	4459	821115.767670195373	1
4	4461	821115.767670195373	0
4	4478	828644.475705726922	1
4	4480	828644.475705726922	0
4	4513	839919.618966717612	1
4	4515	839919.618966717612	0
4	4522	840711.868778094703	1
4	4524	840711.868778094703	0
4	4560	843347.241481318135	1
4	4565	843500.591383245635	0
4	4571	844326.595001577826	1
4	4573	844326.595001577826	0
4	4579	845839.396756720236	1
4	4581	845839.396756720236	0
4	4588	846629.777911388695	1
4	4590	846629.777911388695	0
4	4596	846998.015894280561	1
4	4598	846998.015894280561	0
4	4636	856009.314735136754	1
4	4641	856083.686270643214	0
4	4647	857217.38706526744	1
4	4649	857217.38706526744	0
4	4669	858460.379487088798	1
4	4674	858587.330618517817	0
4	4680	859796.624403365577	1
4	4682	859796.624403365577	0
4	4689	861883.668584800732	1
4	4691	861883.668584800732	0
4	4697	862328.645410463277	1
4	4699	862328.645410463277	0
4	4715	868249.872508722021	1
4	4717	868249.872508722021	0
4	4741	873907.630633060746	1
4	4743	873907.630633060746	0
4	4766	876753.030975940528	1
4	4768	876753.030975940528	0
4	4782	878401.522862173508	1
4	4784	878401.522862173508	0
4	4799	879981.966093584283	1
4	4801	879981.966093584283	0
4	4807	881359.732432028866	1
4	4809	881359.732432028866	0
4	4816	882931.104112192451	1
4	4818	882931.104112192451	0
4	4866	890409.511482611263	1
4	4868	890409.511482611263	0
4	4875	891314.849894643274	1
4	4877	891314.849894643274	0
4	4883	891433.239191591277	1
4	4893	891901.390415097844	0
4	4899	893390.485059702075	1
4	4901	893390.485059702075	0
4	4904	893465.568861804828	1
4	4909	893689.917219932126	0
4	4916	895585.215029073018	1
4	4918	895585.215029073018	0
4	4942	901730.169401968104	1
4	4944	901730.169401968104	0
4	4959	904662.991248909735	1
4	4961	904662.991248909735	0
4	4984	908265.00854833919	1
4	4986	908265.00854833919	0
4	5001	910107.826279887079	1
4	5003	910107.826279887079	0
4	5017	911333.239616210357	1
4	5019	911333.239616210357	0
4	5026	913667.040796762634	1
4	5028	913667.040796762634	0
4	5039	914082.682232226398	1
4	5044	914339.468753268912	0
4	5059	917726.490073743297	1
4	5061	917726.490073743297	0
4	5076	919516.923539199741	1
4	5078	919516.923539199741	0
4	5085	922534.216898986655	1
4	5087	922534.216898986655	0
4	5114	938874.50614037054	1
4	5116	938874.50614037054	0
4	5140	942677.537418707084	1
4	5142	942677.537418707084	0
4	5145	942746.204627703372	1
4	5166	943590.708749422221	0
4	5172	944882.327944573424	1
4	5174	944882.327944573424	0
4	5181	946584.859005167619	1
4	5183	946584.859005167619	0
4	5189	947405.975209959578	1
4	5191	947405.975209959578	0
4	5206	950787.494957702146	1
4	5208	950787.494957702146	0
4	5232	955352.361866258319	1
4	5234	955352.361866258319	0
4	5257	957522.064608632352	1
4	5259	957522.064608632352	0
4	5265	959427.080722244937	1
4	5267	959427.080722244937	0
4	5273	959864.03595184462	1
4	5275	959864.03595184462	0
4	5320	963719.907867338957	1
4	5325	963793.413266884465	0
4	5331	964814.506967086301	1
4	5333	964814.506967086301	0
4	5347	965913.214616875547	1
4	5349	965913.214616875547	0
4	5356	966659.310579678642	1
4	5358	966659.310579678642	0
4	5364	968073.135112036542	1
4	5366	968073.135112036542	0
4	5372	968823.395992498417	1
4	5374	968823.395992498417	0
4	5390	974687.097940194915	1
4	5392	974687.097940194915	0
4	5414	982731.056896036077	1
4	5419	982901.180681127048	0
4	5434	986344.898689347128	1
4	5436	986344.898689347128	0
4	5451	989301.373264584114	1
4	5453	989301.373264584114	0
4	5468	992480.884511136993	1
4	5470	992480.884511136993	0
4	5485	994421.591564889272	1
4	5487	994421.591564889272	0
4	5494	996918.984202257112	1
4	5496	996918.984202257112	0
4	5520	1002997.292681062107	1
4	5522	1002997.292681062107	0
4	5529	1005289.308848084758	1
4	5531	1005289.308848084758	0
4	5555	1012080.870959456892	1
4	5557	1012080.870959456892	0
4	5564	1014716.981023579482	1
4	5566	1014716.981023579482	0
4	5629	1019106.670753123849	1
4	5631	1019106.670753123849	0
4	5634	1019186.698737367466	1
4	5639	1019445.475152950943	0
4	5646	1020249.782095682602	1
4	5648	1020249.782095682602	0
4	5662	1020890.035870758811	1
4	5664	1020890.035870758811	0
4	5667	1021038.570302033078	1
4	5672	1021162.520957347328	0
4	5678	1022230.97603627585	1
4	5680	1022230.97603627585	0
4	5683	1022363.550871110221	1
4	5688	1022565.463233988644	0
4	5695	1024813.338140150423	1
4	5697	1024813.338140150423	0
4	5737	1029096.497623699524	1
4	5739	1029096.497623699524	0
4	5745	1029977.947468649132	1
4	5747	1029977.947468649132	0
4	5762	1032038.389113674658	1
4	5764	1032038.389113674658	0
4	5770	1032572.550981554653	1
4	5772	1032572.550981554653	0
4	5779	1035740.583554965533	1
4	5781	1035740.583554965533	0
5	686	123000	1
5	698	126000	0
5	699	129000	0
5	716	132000	2
5	738	135000	1
5	755	138000	0
5	764	141000	1
5	781	144000	1
5	801	147000	2
5	826	150000	1
5	843	153000	1
5	860	156000	1
5	869	159000	1
5	902	162000	2
5	932	165000	2
5	960	168000	1
5	969	171000	0
5	970	174000	0
5	971	177000	0
5	988	180000	2
5	1021	183000	2
5	1046	186000	1
5	1071	189000	2
5	1096	192000	1
5	1105	195000	1
5	1122	198000	1
5	1147	201000	2
5	1177	204000	2
5	1205	207000	1
5	1227	210000	1
5	1247	213000	1
5	1256	216000	0
5	1273	219000	2
5	1282	222000	0
5	1291	225000	0
5	1300	228000	1
5	1322	231000	2
5	1350	234000	2
5	1383	237000	1
5	1392	240000	0
5	1409	243000	2
5	1415	246000	0
5	1427	249000	0
5	1428	252000	0
5	1437	255000	1
5	1446	258000	0
5	1455	261000	1
5	1472	264000	2
5	1489	267000	0
5	1506	270000	1
5	1523	273000	1
5	1540	276000	1
5	1549	279000	0
5	1571	282000	2
5	1591	285000	1
5	1600	288000	0
5	1601	291000	0
5	1610	294000	1
5	1632	297000	1
5	1644	300000	1
5	1653	303000	0
5	1662	306000	1
5	1663	309000	0
5	1672	312000	0
5	1697	315000	3
5	1719	318000	0
5	1731	321000	1
5	1748	324000	1
5	1784	327000	3
5	1803	330000	1
5	1831	333000	1
5	1848	336000	1
5	1857	339000	0
5	1866	342000	1
5	1880	345000	0
5	1892	348000	2
5	1909	351000	0
5	1918	354000	1
5	1940	357000	2
5	1944	360000	0
5	1969	363000	1
5	1970	366000	0
5	1979	369000	0
5	1996	372000	2
5	2013	375000	1
5	2038	378000	1
5	2047	381000	0
5	2048	384000	0
5	2057	387000	1
5	2074	390000	2
5	2107	393000	1
5	2124	396000	1
5	2146	399000	1
5	2166	402000	2
5	2191	405000	1
5	2192	408000	0
5	2201	411000	0
5	2202	414000	0
5	2219	417000	2
5	2228	420000	0
5	2237	423000	0
5	2238	426000	0
5	2239	429000	0
5	2256	432000	2
5	2257	435000	0
5	2282	438000	1
5	2315	441000	3
5	2340	444000	1
5	2357	447000	0
5	2358	450000	0
5	2372	453000	1
5	2384	456000	1
5	2409	459000	2
5	2418	462000	0
5	2435	465000	1
5	2436	468000	0
5	2445	471000	0
5	2470	474000	3
5	2495	477000	1
5	2512	480000	0
5	2513	483000	0
5	2522	486000	1
5	2536	489000	0
5	2540	492000	1
5	2565	495000	2
5	2593	498000	2
5	2623	501000	2
5	2656	504000	1
5	2673	507000	1
5	2698	510000	2
5	2712	513000	0
5	2729	516000	1
5	2762	519000	3
5	2795	522000	2
5	2815	525000	0
5	2816	528000	0
5	2817	531000	0
5	2818	534000	0
5	2827	537000	1
5	2849	540000	2
5	2877	543000	1
5	2894	546000	1
5	2911	549000	1
5	2936	552000	3
5	2961	555000	0
5	2970	558000	0
5	2987	561000	2
5	2996	564000	0
5	3005	567000	0
5	3014	570000	1
5	3028	573000	1
5	3040	576000	0
5	3049	579000	1
5	3063	582000	0
5	3075	585000	1
5	3100	588000	3
5	3133	591000	1
5	3166	594000	3
5	3191	597000	0
5	3213	600000	2
5	3225	603000	1
5	3242	606000	0
5	3243	609000	0
5	3244	612000	0
5	3245	615000	0
5	3262	618000	2
5	3287	621000	1
5	3304	624000	2
5	3329	627000	0
5	3330	630000	0
5	3355	633000	2
5	3385	636000	3
5	3413	639000	0
5	3430	642000	2
5	3436	645000	0
5	3448	648000	0
5	3457	651000	1
5	3474	654000	2
5	3507	657000	1
5	3521	660000	1
5	3541	663000	1
5	3555	666000	1
5	3575	669000	2
5	3600	672000	0
5	3609	675000	1
5	3618	678000	1
5	3640	681000	0
5	3668	684000	4
5	3717	687000	2
5	3750	690000	3
5	3780	693000	1
5	3800	696000	1
5	3825	699000	1
5	3850	702000	2
5	3883	705000	2
5	3905	708000	1
5	3917	711000	1
5	3942	714000	1
5	3959	717000	1
5	3968	720000	0
5	3977	723000	1
5	3991	726000	0
5	4003	729000	2
5	4028	732000	1
5	4037	735000	1
5	4062	738000	1
5	4079	741000	1
5	4088	744000	1
5	4105	747000	0
5	4106	750000	0
5	4123	753000	2
5	4137	756000	0
5	4141	759000	0
5	4158	762000	2
5	4167	765000	0
5	4184	768000	1
5	4185	771000	0
5	4194	774000	0
5	4203	777000	1
5	4212	780000	0
5	4213	783000	0
5	4238	786000	3
5	4255	789000	0
5	4272	792000	1
5	4297	795000	2
5	4338	798000	3
5	4363	801000	1
5	4393	804000	1
5	4410	807000	2
5	4430	810000	0
5	4439	813000	1
5	4448	816000	0
5	4457	819000	1
5	4466	822000	0
5	4472	825000	0
5	4476	828000	1
5	4485	831000	0
5	4486	834000	0
5	4495	837000	1
5	4517	840000	2
5	4553	843000	2
5	4583	846000	2
5	4603	849000	0
5	4604	852000	0
5	4629	855000	3
5	4659	858000	1
5	4687	861000	2
5	4704	864000	0
5	4713	867000	1
5	4722	870000	0
5	4736	873000	1
5	4756	876000	2
5	4789	879000	2
5	4814	882000	1
5	4823	885000	0
5	4840	888000	2
5	4873	891000	3
5	4914	894000	1
5	4923	897000	0
5	4932	900000	1
5	4949	903000	1
5	4966	906000	1
5	4991	909000	2
5	5024	912000	2
5	5049	915000	1
5	5063	918000	1
5	5083	921000	1
5	5092	924000	0
5	5093	927000	0
5	5094	930000	0
5	5095	933000	0
5	5104	936000	1
5	5118	939000	1
5	5138	942000	2
5	5176	945000	2
5	5201	948000	0
5	5210	951000	1
5	5222	954000	1
5	5255	957000	3
5	5277	960000	0
5	5310	963000	3
5	5351	966000	3
5	5376	969000	0
5	5388	972000	1
5	5397	975000	0
5	5398	978000	0
5	5407	981000	1
5	5424	984000	1
5	5441	987000	1
5	5458	990000	1
5	5475	993000	1
5	5492	996000	1
5	5506	999000	0
5	5518	1002000	2
5	5527	1005000	0
5	5536	1008000	0
5	5550	1011000	1
5	5562	1014000	1
5	5595	1017000	3
5	5644	1020000	4
5	5693	1023000	1
5	5718	1026000	2
5	5735	1029000	2
5	5760	1032000	1
5	5777	1035000	0
6	686	123000	1
6	698	126000	2
6	699	129000	0
6	716	132000	0
6	738	135000	1
6	755	138000	2
6	764	141000	0
6	781	144000	1
6	801	147000	1
6	826	150000	2
6	843	153000	1
6	860	156000	1
6	869	159000	0
6	902	162000	2
6	932	165000	1
6	960	168000	3
6	969	171000	1
6	970	174000	0
6	971	177000	0
6	988	180000	0
6	1021	183000	2
6	1046	186000	2
6	1071	189000	1
6	1096	192000	2
6	1105	195000	0
6	1122	198000	1
6	1147	201000	1
6	1177	204000	1
6	1205	207000	3
6	1227	210000	1
6	1247	213000	2
6	1256	216000	1
6	1273	219000	0
6	1282	222000	1
6	1291	225000	1
6	1300	228000	0
6	1322	231000	0
6	1350	234000	2
6	1383	237000	3
6	1392	240000	1
6	1409	243000	0
6	1415	246000	0
6	1427	249000	2
6	1428	252000	0
6	1437	255000	0
6	1446	258000	1
6	1455	261000	0
6	1472	264000	0
6	1489	267000	2
6	1506	270000	1
6	1523	273000	0
6	1540	276000	2
6	1549	279000	1
6	1571	282000	0
6	1591	285000	2
6	1600	288000	1
6	1601	291000	0
6	1610	294000	0
6	1632	297000	1
6	1644	300000	1
6	1653	303000	1
6	1662	306000	0
6	1663	309000	0
6	1672	312000	1
6	1697	315000	0
6	1719	318000	2
6	1731	321000	1
6	1748	324000	1
6	1784	327000	0
6	1803	330000	2
6	1831	333000	3
6	1848	336000	1
6	1857	339000	1
6	1866	342000	0
6	1880	345000	1
6	1892	348000	0
6	1909	351000	2
6	1918	354000	0
6	1940	357000	0
6	1944	360000	1
6	1969	363000	2
6	1970	366000	0
6	1979	369000	1
6	1996	372000	0
6	2013	375000	1
6	2038	378000	2
6	2047	381000	1
6	2048	384000	0
6	2057	387000	0
6	2074	390000	0
6	2107	393000	3
6	2124	396000	1
6	2146	399000	1
6	2166	402000	1
6	2191	405000	2
6	2192	408000	0
6	2201	411000	1
6	2202	414000	0
6	2219	417000	0
6	2228	420000	1
6	2237	423000	1
6	2238	426000	0
6	2239	429000	0
6	2256	432000	0
6	2257	435000	0
6	2282	438000	2
6	2315	441000	1
6	2340	444000	2
6	2357	447000	2
6	2358	450000	0
6	2372	453000	0
6	2384	456000	1
6	2409	459000	1
6	2418	462000	1
6	2435	465000	1
6	2436	468000	0
6	2445	471000	1
6	2470	474000	0
6	2495	477000	2
6	2512	480000	2
6	2513	483000	0
6	2522	486000	0
6	2536	489000	1
6	2540	492000	0
6	2565	495000	1
6	2593	498000	0
6	2623	501000	3
6	2656	504000	3
6	2673	507000	1
6	2698	510000	1
6	2712	513000	1
6	2729	516000	1
6	2762	519000	1
6	2795	522000	2
6	2815	525000	3
6	2816	528000	0
6	2817	531000	0
6	2818	534000	0
6	2827	537000	0
6	2849	540000	0
6	2877	543000	3
6	2894	546000	1
6	2911	549000	1
6	2936	552000	0
6	2961	555000	3
6	2970	558000	1
6	2987	561000	0
6	2996	564000	1
6	3005	567000	1
6	3014	570000	0
6	3028	573000	0
6	3040	576000	2
6	3049	579000	0
6	3063	582000	1
6	3075	585000	0
6	3100	588000	1
6	3133	591000	3
6	3166	594000	1
6	3191	597000	2
6	3213	600000	1
6	3225	603000	1
6	3242	606000	2
6	3243	609000	0
6	3244	612000	0
6	3245	615000	0
6	3262	618000	0
6	3287	621000	2
6	3304	624000	0
6	3329	627000	3
6	3330	630000	0
6	3355	633000	0
6	3385	636000	1
6	3413	639000	4
6	3430	642000	0
6	3436	645000	0
6	3448	648000	2
6	3457	651000	0
6	3474	654000	0
6	3507	657000	3
6	3521	660000	0
6	3541	663000	2
6	3555	666000	0
6	3575	669000	1
6	3600	672000	3
6	3609	675000	0
6	3618	678000	0
6	3640	681000	2
6	3668	684000	0
6	3717	687000	4
6	3750	690000	1
6	3780	693000	2
6	3800	696000	2
6	3825	699000	2
6	3850	702000	1
6	3883	705000	2
6	3905	708000	1
6	3917	711000	1
6	3942	714000	2
6	3959	717000	1
6	3968	720000	1
6	3977	723000	0
6	3991	726000	1
6	4003	729000	0
6	4028	732000	2
6	4037	735000	0
6	4062	738000	2
6	4079	741000	1
6	4088	744000	0
6	4105	747000	2
6	4106	750000	0
6	4123	753000	0
6	4137	756000	1
6	4141	759000	1
6	4158	762000	0
6	4167	765000	1
6	4184	768000	1
6	4185	771000	0
6	4194	774000	1
6	4203	777000	0
6	4212	780000	1
6	4213	783000	0
6	4238	786000	0
6	4255	789000	2
6	4272	792000	1
6	4297	795000	1
6	4338	798000	2
6	4363	801000	2
6	4393	804000	2
6	4410	807000	0
6	4430	810000	3
6	4439	813000	0
6	4448	816000	1
6	4457	819000	0
6	4466	822000	1
6	4472	825000	0
6	4476	828000	0
6	4485	831000	1
6	4486	834000	0
6	4495	837000	0
6	4517	840000	0
6	4553	843000	2
6	4583	846000	2
6	4603	849000	3
6	4604	852000	0
6	4629	855000	0
6	4659	858000	2
6	4687	861000	2
6	4704	864000	2
6	4713	867000	0
6	4722	870000	1
6	4736	873000	0
6	4756	876000	1
6	4789	879000	2
6	4814	882000	2
6	4823	885000	1
6	4840	888000	0
6	4873	891000	1
6	4914	894000	4
6	4923	897000	1
6	4932	900000	0
6	4949	903000	1
6	4966	906000	1
6	4991	909000	1
6	5024	912000	2
6	5049	915000	2
6	5063	918000	0
6	5083	921000	2
6	5092	924000	1
6	5093	927000	0
6	5094	930000	0
6	5095	933000	0
6	5104	936000	0
6	5118	939000	0
6	5138	942000	1
6	5176	945000	2
6	5201	948000	3
6	5210	951000	0
6	5222	954000	1
6	5255	957000	1
6	5277	960000	2
6	5310	963000	1
6	5351	966000	2
6	5376	969000	3
6	5388	972000	1
6	5397	975000	1
6	5398	978000	0
6	5407	981000	0
6	5424	984000	1
6	5441	987000	1
6	5458	990000	1
6	5475	993000	1
6	5492	996000	1
6	5506	999000	1
6	5518	1002000	0
6	5527	1005000	1
6	5536	1008000	1
6	5550	1011000	0
6	5562	1014000	1
6	5595	1017000	1
6	5644	1020000	2
6	5693	1023000	5
6	5718	1026000	1
6	5735	1029000	0
6	5760	1032000	2
6	5777	1035000	2
7	679	121464.688014273353	2
7	681	122848.088747858633	1
7	690	125651.760443653754	0
7	706	129551.377583210865	1
7	714	131098.938322997149	2
7	717	132897.547253083926	1
7	731	133808.287923251189	2
7	733	134797.116844431307	1
7	742	137465.528600485926	0
7	757	138112.755197443389	1
7	759	140868.495354230949	0
7	774	142210.836780020256	1
7	783	144005.924519338721	2
7	785	145476.057532252269	1
7	799	146102.833352658669	2
7	808	147889.250005555676	3
7	810	148109.896331698832	2
7	818	149461.320312174205	1
7	827	151037.268311540243	0
7	841	151649.319092685944	1
7	844	155029.617607348766	0
7	858	155853.363216211652	1
7	867	158167.32818019636	2
7	870	159223.787378417114	1
7	884	159915.798103888953	2
7	892	161059.110750723291	3
7	894	161418.50482764977	2
7	909	162924.303294844828	3
7	917	163470.947426739411	4
7	919	163717.805526337853	3
7	927	164704.654131764483	2
7	942	166014.128508876598	3
7	944	166739.408872393906	2
7	949	166918.989238103972	1
7	961	169297.263322266647	0
7	981	177624.019929432502	1
7	986	177900.628240793136	2
7	995	180406.740469638818	3
7	997	181366.591935079686	2
7	1002	181441.651762511648	1
7	1014	181969.861122809749	2
7	1028	184047.515297646176	3
7	1030	184582.844176023409	2
7	1038	185000.500063714832	1
7	1056	186567.995638721138	2
7	1061	186930.828388276144	3
7	1063	187789.464103529455	2
7	1072	190226.97784256308	1
7	1077	190405.115582074034	0
7	1094	191709.880835873621	1
7	1103	194828.146092249582	2
7	1106	195458.98524584581	1
7	1120	197369.152208169728	2
7	1123	198308.563201888095	1
7	1137	199824.94140873399	2
7	1145	200645.249623417156	3
7	1148	201277.84042596263	2
7	1162	201893.315159889442	3
7	1170	203745.74904808634	4
7	1172	203796.202565703577	3
7	1181	204549.989468114139	2
7	1189	205873.11024618069	1
7	1203	206441.929850528725	2
7	1206	207726.722691219852	1
7	1220	208394.911047943913	2
7	1222	209967.532454171465	1
7	1237	212086.955591391606	2
7	1239	212134.708910849744	1
7	1248	215293.817540374051	0
7	1263	217055.811206980184	1
7	1271	217899.550260651141	2
7	1274	220400.800405787297	1
7	1283	222396.737969296401	0
7	1298	227427.763317647392	1
7	1307	228900.214308464433	2
7	1314	230764.411015552565	1
7	1318	230913.859230115778	2
7	1332	231482.727089360865	3
7	1334	231857.305353700763	2
7	1348	232434.39690355534	3
7	1357	234582.003413933831	4
7	1359	234612.720692135103	3
7	1367	235324.442557788133	2
7	1375	236115.889581617791	1
7	1384	238126.855256484259	0
7	1399	242323.726026139855	1
7	1407	242777.632606163407	2
7	1410	245900.232573081277	1
7	1419	246488.147727962258	0
7	1435	252602.390103735978	1
7	1438	256344.583118594882	0
7	1453	260335.628665613041	1
7	1462	261540.39290418219	2
7	1470	263560.920281952605	3
7	1473	264025.814545559827	2
7	1481	265091.290260447726	1
7	1490	267328.910457237232	0
7	1504	269020.464257588248	1
7	1513	271436.715886236079	2
7	1515	272699.092661885626	1
7	1530	273298.149851390126	2
7	1532	274238.586018285978	1
7	1541	277127.845550171418	0
7	1556	279469.806968604367	1
7	1564	279944.378642430111	2
7	1573	282253.375527340518	3
7	1575	282778.065551528625	2
7	1583	283209.826626291992	1
7	1592	285372.012959512446	0
7	1608	292377.686765828079	1
7	1617	295298.835504756563	2
7	1619	296398.810376232008	1
7	1634	297197.791622994322	2
7	1636	299669.288096280525	1
7	1645	300754.080101999438	0
7	1660	305885.549627959771	1
7	1664	309543.517030241608	0
7	1679	313158.164364974586	1
7	1690	313855.444243982665	2
7	1695	314114.604522052559	3
7	1698	316091.92305274086	2
7	1706	317013.857816017947	1
7	1714	317683.776419171532	0
7	1729	320195.234633406561	1
7	1738	323170.231688549122	2
7	1740	323517.924683293775	1
7	1755	324372.314621189377	2
7	1769	326484.824874668117	3
7	1773	326571.767894552715	2
7	1777	326813.03601690616	3
7	1781	326988.702044672831	2
7	1786	327041.691257740891	3
7	1798	329979.599893080374	2
7	1812	330561.295224924888	1
7	1815	330564.193998887462	0
7	1819	330566.642729335638	1
7	1838	333475.665098808149	2
7	1840	333785.584780364078	1
7	1849	337595.578972080733	0
7	1864	341469.503663366539	1
7	1867	344496.786453209425	0
7	1882	345209.559331286632	1
7	1890	346606.240255051297	2
7	1893	349005.579043450009	1
7	1901	349995.315150426315	0
7	1916	353503.962379721268	1
7	1925	356320.507028898708	2
7	1933	356668.090564722216	3
7	1935	356813.478021409418	2
7	1945	360365.323351341265	1
7	1953	360919.996536719388	0
7	1967	362672.294053716067	1
7	1971	366382.319448745533	0
7	1986	369919.301979280255	1
7	1994	371956.136096631816	2
7	1997	372571.209965017007	1
7	2011	373428.841446762957	2
7	2019	375570.383019255726	1
7	2023	375813.982597148226	2
7	2030	377374.815809076548	1
7	2039	379863.53479026668	0
7	2055	386973.245662652941	1
7	2067	388521.063597930543	2
7	2072	388845.119806842723	3
7	2075	390460.714785142288	2
7	2089	391404.639674929107	3
7	2091	391745.410665969395	2
7	2096	391918.952241383444	1
7	2114	393456.536020849433	2
7	2116	394922.183096176895	1
7	2125	396532.106711826287	0
7	2139	397137.577153235244	1
7	2148	399191.838545210642	2
7	2156	399966.066298740582	3
7	2158	400117.979108061662	2
7	2167	403134.99588043623	1
7	2175	403531.20898255705	0
7	2189	404924.830641201096	1
7	2193	408798.94236325701	0
7	2209	414618.938797011924	1
7	2217	416940.076524857052	2
7	2220	417819.438474605171	1
7	2229	420919.988401025942	0
7	2246	431308.956795415834	1
7	2254	431911.59407664237	2
7	2258	435199.097390108537	1
7	2263	435267.038909467508	0
7	2280	436569.564243658146	1
7	2289	438933.650458396003	2
7	2297	439263.764038080549	3
7	2299	439654.991759023429	2
7	2313	440839.780368903834	3
7	2322	441858.577064080207	4
7	2324	442374.41137021772	3
7	2329	442678.544737486163	2
7	2341	444582.44089351164	1
7	2349	445386.368840053934	0
7	2365	450715.546286372984	1
7	2374	453142.020910816149	2
7	2376	453911.659875527831	1
7	2391	456432.754193818911	2
7	2393	457073.396495861851	1
7	2407	458745.957983725629	2
7	2410	459921.137017718953	1
7	2419	462503.858678524693	0
7	2433	464857.210376916179	1
7	2437	468262.810332609973	0
7	2452	471612.14909832371	1
7	2460	472597.836276575454	2
7	2468	473468.865926243514	3
7	2471	474785.021725113408	2
7	2479	475852.22320514924	1
7	2493	476517.572385244718	2
7	2496	477243.881341421337	1
7	2504	479365.059956102353	0
7	2520	484614.473158617337	1
7	2523	488322.026349969084	0
7	2538	489038.926193695934	1
7	2541	492733.839348815713	0
7	2558	493668.57238509317	1
7	2563	493979.481748700804	2
7	2572	495822.766913833234	3
7	2579	497624.253152869399	2
7	2583	497915.572293833217	3
7	2594	498005.327667286159	2
7	2603	498533.729224638284	3
7	2608	498874.785162000299	4
7	2615	499572.751624618993	3
7	2624	501283.031798326823	2
7	2638	501941.830693333199	3
7	2640	502028.38229746101	2
7	2648	502878.649644155637	1
7	2663	504537.142204481256	2
7	2665	505279.019639038303	1
7	2680	508052.060302606996	2
7	2682	508621.690332993081	1
7	2696	509806.975482581177	2
7	2699	511344.843454218566	1
7	2707	512995.104231035961	0
7	2722	514721.542623167839	1
7	2731	516045.904531437421	2
7	2739	516557.054887385874	3
7	2747	518137.158015210226	4
7	2749	518623.162153395965	3
7	2764	519200.986487483462	4
7	2766	519594.700100110674	3
7	2774	520138.337781137021	2
7	2788	521661.722883274834	3
7	2790	521829.575456878804	2
7	2799	522648.902545701936	1
7	2807	524274.166714214603	0
7	2825	536307.801185088643	1
7	2834	537348.75802166529	2
7	2842	538580.847084881129	3
7	2850	540232.528480732098	2
7	2854	540248.314291827663	3
7	2858	540402.35188379168	2
7	2869	542131.328301850239	1
7	2884	543510.074486945614	2
7	2886	543828.974964427108	1
7	2895	547411.287352762055	0
7	2909	548962.378393883893	1
7	2918	549516.990928254	2
7	2926	550543.495762329427	3
7	2934	551140.368964750404	4
7	2937	552694.03861013259	3
7	2945	553185.04758543614	2
7	2953	553779.037767767564	1
7	2962	555187.693992170875	0
7	2977	558848.050972573504	1
7	2985	560398.796320066696	2
7	2988	561985.22115947448	1
7	2997	564062.078570770272	0
7	3012	569564.160602117004	1
7	3021	571182.800882837136	2
7	3023	572994.55160438543	1
7	3032	574478.953874557186	0
7	3047	576304.116520246045	1
7	3050	580425.071229012979	0
7	3065	582010.78300067383	1
7	3072	584887.709746569129	0
7	3077	585008.584462905502	1
7	3093	586315.727533107168	2
7	3098	586645.145985839568	3
7	3107	588338.206024247622	4
7	3109	589086.302661805512	3
7	3117	589507.12066046382	2
7	3125	590446.55297215028	1
7	3140	591408.840871713026	2
7	3142	592162.999384209537	1
7	3156	592782.494539903546	2
7	3164	593221.416638315926	3
7	3167	594159.685686989528	2
7	3175	596244.726152512733	1
7	3188	596803.947440570238	0
7	3193	597072.709428056206	1
7	3206	599115.708400700491	2
7	3215	600165.965068004087	3
7	3217	600360.675949812071	2
7	3226	603003.19991848858	1
7	3231	603244.663733823395	0
7	3252	615384.850227962416	1
7	3260	615780.089056790257	2
7	3263	619325.993666095992	1
7	3268	619528.596233996476	0
7	3285	620906.488446746759	1
7	3294	621686.290518557829	2
7	3302	622628.381324122025	3
7	3305	624665.093858877449	2
7	3313	625249.831383890474	1
7	3321	626234.724919389357	0
7	3337	631669.043949432028	1
7	3345	632276.498085091001	2
7	3357	633045.156929939678	3
7	3365	633398.585433649114	4
7	3370	633661.987102032419	5
7	3372	634723.287527539423	4
7	3380	635939.385139030347	3
7	3386	636185.938256035471	2
7	3397	636812.048912408649	1
7	3402	637089.184859948451	0
7	3420	640660.98852351605	1
7	3428	641316.034141568645	2
7	3431	644689.958662957524	1
7	3440	645075.323660605825	0
7	3455	650604.993337669719	1
7	3464	651351.058179635482	2
7	3472	652050.10346949586	3
7	3475	654762.187705786355	2
7	3480	655008.847232755847	1
7	3491	655360.396511283714	0
7	3505	656638.143170365245	1
7	3514	658911.264241506136	2
7	3516	659849.645461552967	1
7	3525	662053.087389374017	0
7	3539	662800.080290176959	1
7	3548	665617.099355599896	2
7	3557	666005.68329482156	3
7	3559	666006.208847042968	2
7	3573	667260.143810735007	3
7	3576	669152.832600080472	2
7	3581	669339.553889181374	1
7	3592	671404.506658361383	0
7	3607	674363.357501707422	1
7	3616	676312.621884447005	2
7	3619	678069.652254149229	1
7	3627	679886.064294717645	0
7	3642	681119.079092270475	1
7	3650	681643.315936052519	2
7	3661	682658.930794700485	3
7	3666	682964.516268259865	4
7	3675	684354.942457983187	5
7	3677	684698.775567457223	4
7	3682	684730.111193426811	3
7	3693	686074.459195404319	2
7	3698	686078.005524340383	1
7	3715	686964.005166648191	2
7	3724	687438.098677974394	3
7	3726	688095.548354629914	2
7	3740	689439.589696403621	3
7	3748	689857.468793095951	4
7	3751	690812.000802682842	3
7	3756	690815.424645090441	2
7	3776	692802.180082153596	3
7	3782	693077.812588987072	4
7	3784	693217.359273341262	3
7	3792	693966.918825920347	2
7	3801	696050.801354901752	1
7	3815	696881.830799998327	2
7	3817	697027.672720069339	1
7	3832	699979.180411924157	2
7	3834	700413.005902597935	1
7	3848	701091.958120490181	2
7	3851	702881.24009991892	1
7	3865	703534.241104111816	2
7	3867	703963.437367065264	1
7	3881	704542.324107707299	2
7	3884	706595.428000766323	1
7	3898	707370.422627120839	2
7	3900	707899.504309673726	1
7	3915	708970.944297997767	2
7	3918	711164.244127743351	1
7	3926	711955.728735988072	0
7	3940	713588.670208748981	1
7	3949	714596.099229997962	2
7	3951	716580.86922682863	1
7	3960	718310.20755921673	0
7	3975	720769.153425979434	1
7	3978	723984.526441992199	0
7	3993	726116.39421233275	1
7	4001	726471.921663325514	2
7	4004	729804.186882853614	1
7	4012	730187.860206271163	0
7	4026	731836.983586801321	1
7	4035	732460.096668913569	2
7	4044	735594.213887976496	3
7	4046	735643.949705625812	2
7	4054	736008.002936005194	1
7	4063	738809.782627153746	0
7	4077	740253.734922854291	1
7	4086	742051.607142037751	2
7	4089	744100.117975032932	1
7	4097	745685.177796397716	0
7	4113	750289.339445429525	1
7	4121	752569.052553639197	2
7	4124	753664.921000841089	1
7	4132	755806.569870530563	0
7	4148	759445.210031711403	1
7	4156	761707.56406998921	2
7	4159	763046.466230478263	1
7	4168	765089.018931273107	0
7	4182	767624.936677496758	1
7	4186	771033.894496928882	0
7	4201	774898.46161473262	1
7	4204	778367.460328258142	0
7	4223	783694.977308212074	1
7	4228	784012.484452896371	2
7	4236	785825.964633405489	3
7	4239	787143.035571263467	2
7	4244	787150.540049806409	1
7	4256	789711.834996983406	0
7	4270	790293.513132449069	1
7	4282	792785.6747450341	2
7	4287	793106.318853273858	3
7	4289	793954.18020405013	2
7	4307	796205.004744160784	3
7	4311	796323.273103885109	2
7	4315	796483.010220828568	3
7	4319	796577.115772195309	2
7	4331	797065.959784580639	3
7	4345	798377.897388781052	4
7	4347	800005.064073615263	3
7	4352	800239.365874480982	2
7	4364	801177.803397432739	1
7	4372	801977.431748818227	0
7	4386	803666.727666968645	1
7	4395	804308.210245834186	2
7	4403	805908.483423769977	3
7	4405	806896.123962941631	2
7	4414	808238.142001279118	1
7	4422	809506.264899567914	0
7	4437	812066.088502121245	1
7	4440	814638.844617227852	0
7	4455	817352.362273866812	1
7	4458	821115.767670195373	0
7	4474	825261.822606373507	1
7	4477	828644.475705726922	0
7	4493	836839.818168793432	1
7	4502	837636.048081811124	2
7	4510	839841.848941512297	3
7	4512	839919.618966717612	2
7	4521	840711.868778094703	1
7	4535	841438.068252762004	2
7	4543	842250.175832611676	3
7	4555	843181.114575902791	4
7	4559	843347.241481318135	3
7	4563	843500.591383245635	4
7	4570	844326.595001577826	3
7	4578	845839.396756720236	2
7	4587	846629.777911388695	1
7	4595	846998.015894280561	0
7	4611	852912.826131397354	1
7	4619	853797.509793166081	2
7	4627	854608.327820903071	3
7	4635	856009.314735136754	2
7	4639	856083.686270643214	3
7	4646	857217.38706526744	2
7	4664	858312.317295161417	3
7	4668	858460.379487088798	2
7	4672	858587.330618517817	3
7	4679	859796.624403365577	2
7	4688	861883.668584800732	1
7	4696	862328.645410463277	0
7	4711	864714.435638117993	1
7	4714	868249.872508722021	0
7	4729	870637.398908120457	1
7	4738	873222.412946512439	2
7	4740	873907.630633060746	1
7	4754	875097.801757954936	2
7	4763	876427.602391496204	3
7	4765	876753.030975940528	2
7	4779	877444.221419249756	3
7	4781	878401.522862173508	2
7	4796	879352.130258422039	3
7	4798	879981.966093584283	2
7	4806	881359.732432028866	1
7	4815	882931.104112192451	0
7	4830	886552.729259057672	1
7	4838	887182.509146855405	2
7	4847	888293.266915791232	3
7	4858	889734.590972160301	4
7	4863	890040.221391362394	5
7	4865	890409.511482611263	4
7	4874	891314.849894643274	3
7	4882	891433.239191591277	2
7	4891	891901.390415097844	3
7	4898	893390.485059702075	2
7	4903	893465.568861804828	1
7	4915	895585.215029073018	0
7	4930	898120.81068801577	1
7	4939	900868.819609258675	2
7	4941	901730.169401968104	1
7	4956	904432.182855619132	2
7	4958	904662.991248909735	1
7	4973	906942.935592944429	2
7	4981	907726.029218219469	3
7	4983	908265.00854833919	2
7	4998	910069.163406124721	3
7	5000	910107.826279887079	2
7	5014	910747.394155584698	3
7	5016	911333.239616210357	2
7	5025	913667.040796762634	1
7	5038	914082.682232226398	0
7	5042	914339.468753268912	1
7	5056	916012.929459060476	2
7	5058	917726.490073743297	1
7	5073	918932.332470426521	2
7	5075	919516.923539199741	1
7	5084	922534.216898986655	0
7	5102	935762.553020706451	1
7	5111	938751.670493781501	2
7	5113	938874.50614037054	1
7	5128	939539.553266935592	2
7	5136	941330.713855944304	3
7	5139	942677.537418707084	2
7	5144	942746.204627703372	1
7	5159	943272.063502745948	2
7	5164	943590.708749422221	3
7	5171	944882.327944573424	2
7	5180	946584.859005167619	1
7	5188	947405.975209959578	0
7	5203	948078.028139977118	1
7	5205	950787.494957702146	0
7	5220	951573.566800736342	1
7	5229	954412.142653731284	2
7	5231	955352.361866258319	1
7	5248	956226.129274800419	2
7	5253	956528.326292781003	3
7	5256	957522.064608632352	2
7	5264	959427.080722244937	1
7	5272	959864.03595184462	0
7	5290	960729.759711850596	1
7	5295	961064.93879007792	2
7	5303	962580.866674057827	3
7	5312	963279.082938388777	4
7	5319	963719.907867338957	3
7	5323	963793.413266884465	4
7	5330	964814.506967086301	3
7	5344	965457.197066591365	4
7	5346	965913.214616875547	3
7	5355	966659.310579678642	2
7	5363	968073.135112036542	1
7	5371	968823.395992498417	0
7	5386	970460.373901305775	1
7	5389	974687.097940194915	0
7	5405	979589.857273036178	1
7	5413	982731.056896036077	0
7	5417	982901.180681127048	1
7	5431	985942.220724507258	2
7	5433	986344.898689347128	1
7	5448	988533.735383470784	2
7	5450	989301.373264584114	1
7	5465	990678.365857426893	2
7	5467	992480.884511136993	1
7	5482	993415.000849873599	2
7	5484	994421.591564889272	1
7	5493	996918.984202257112	0
7	5508	999182.429163824558	1
7	5516	1001580.154242402923	2
7	5519	1002997.292681062107	1
7	5528	1005289.308848084758	0
7	5543	1008786.016408204406	1
7	5552	1011205.449576929445	2
7	5554	1012080.870959456892	1
7	5563	1014716.981023579482	0
7	5577	1015274.57571254718	1
7	5585	1015580.080232402426	2
7	5593	1016749.061013172279	3
7	5605	1017429.441073781617	4
7	5610	1017742.610764639276	5
7	5621	1018466.311363338072	6
7	5626	1018742.99029906384	7
7	5628	1019106.670753123849	6
7	5633	1019186.698737367466	5
7	5645	1020249.782095682602	4
7	5659	1020814.01583326804	5
7	5661	1020890.035870758811	4
7	5666	1021038.570302033078	3
7	5677	1022230.97603627585	2
7	5682	1022363.550871110221	1
7	5694	1024813.338140150423	0
7	5708	1025526.561131790234	1
7	5716	1025963.011508245581	2
7	5725	1027932.245389521036	3
7	5733	1028788.882367465472	4
7	5736	1029096.497623699524	3
7	5744	1029977.947468649132	2
7	5758	1031139.538880583537	3
7	5761	1032038.389113674658	2
7	5769	1032572.550981554653	1
7	5778	1035740.583554965533	0
7	5792	1036629.372298855577	1
