version 2
run ParkingMeasurement-50-20170106-02:04:50-12466
attr configname ParkingMeasurement
attr datetime 20170106-02:04:50
attr experiment ParkingMeasurement
attr inifile parkingStudy.ini
attr iterationvars ""
attr iterationvars2 $repetition=50
attr measurement ""
attr network SimNetwork
attr processid 12466
attr repetition 50
attr replication #50
attr resultdir results
attr runnumber 50
attr seedset 50
param SimNetwork.a.parkingLot.parkingDelay "truncnormal(60min, 6min)"
param SimNetwork.a.runway.landingTime "truncnormal(5min, 0.5min)"
param SimNetwork.a.runway.takeoffTime "truncnormal(5min, 0.5min)"
param SimNetwork.a.runway.throughputCheckInterval 50min
param SimNetwork.wg.interArrivalTime exponential(50min)

statistic SimNetwork.wg 	responseTime:stats
field count 285
field mean 7535.6741934915
field stddev 3453.1862968414
field sum 2147667.1451451
field sqrsum 19570676632.476
field min 3820.6942145982
field max 28450.794502554
attr source  responseTimeSignal
scalar SimNetwork.a.landingQueue 	queueLength:timeavg 	0.012678009445812
attr source  queueLengthSignal
statistic SimNetwork.a.landingQueue 	queueLength:stats
field count 572
field mean 0.52797202797203
field stddev 0.53355439594934
field sum 302
field sqrsum 322
field min 0
field max 3
attr source  queueLengthSignal
statistic SimNetwork.a.landingQueue 	queueTime:stats
field count 286
field mean 40.306371448897
field stddev 102.47515038119
field sum 11527.622234384
field sqrsum 3457466.2107112
field min 0
field max 682.39766749803
attr source  queueTimeSignal
scalar SimNetwork.a.takeoffQueue 	queueLength:timeavg 	0.014240396754241
attr source  queueLengthSignal
statistic SimNetwork.a.takeoffQueue 	queueLength:stats
field count 572
field mean 0.51398601398601
field stddev 0.51405484638608
field sum 294
field sqrsum 302
field min 0
field max 2
attr source  queueLengthSignal
statistic SimNetwork.a.takeoffQueue 	queueTime:stats
field count 286
field mean 45.547168310689
field stddev 124.69575006159
field sum 13026.490136857
field sqrsum 5024793.3125363
field min 0
field max 804.96325926337
attr source  queueTimeSignal
scalar SimNetwork.a.parkingLot 	parkingOccupancy:timeavg 	1.1399080116086
attr source  parkingOccupancy
statistic SimNetwork.a.parkingLot 	parkingOccupancy:stats
field count 572
field mean 1.7727272727273
field stddev 1.3263162483505
field sum 1014
field sqrsum 2802
field min 0
field max 7
attr source  parkingOccupancy
