version 2
run ParkingMeasurement-60-20170108-17:32:55-6407
attr configname ParkingMeasurement
attr datetime 20170108-17:32:55
attr experiment ParkingMeasurement
attr inifile parkingStudy.ini
attr iterationvars ""
attr iterationvars2 $repetition=60
attr measurement ""
attr network controltower.SimNetwork
attr processid 6407
attr repetition 60
attr replication #60
attr resultdir results
attr runnumber 60
attr seedset 60
param SimNetwork.a.parkingLot.parkingDelay "truncnormal(60min, 6min)"
param SimNetwork.a.runway.landingTime "truncnormal(5min, 0.5min)"
param SimNetwork.a.runway.takeoffTime "truncnormal(5min, 0.5min)"
param SimNetwork.a.runway.throughputCheckInterval 50min
param SimNetwork.wg.interArrivalTime exponential(50min)

vector 2  SimNetwork.a.landingQueue  queueLength:vector  ETV
attr source  queueLengthSignal
vector 1  SimNetwork.a.landingQueue  queueTime:vector  ETV
attr source  queueTimeSignal
vector 7  SimNetwork.a.parkingLot  parkingOccupancy:vector  ETV
attr source  parkingOccupancy
vector 4  SimNetwork.a.takeoffQueue  queueLength:vector  ETV
attr source  queueLengthSignal
vector 3  SimNetwork.a.takeoffQueue  queueTime:vector  ETV
attr source  queueTimeSignal
vector 5  SimNetwork.a.runway  landedThroughput:vector  ETV
attr source  landedThroughputSignal
vector 6  SimNetwork.a.runway  tookoffThroughput:vector  ETV
attr source  tookoffThroughputSignal
vector 0  SimNetwork.wg  responseTime:vector  ETV
attr source  responseTimeSignal
0	627	123001.548982913189	8659.2981448206
0	640	125451.257496841386	6585.8254993476
0	649	126674.264395532446	5233.6323687889
0	667	132388.343528040538	9436.1948901464
0	692	136663.157719886601	8570.456117874
0	709	139949.423925847657	7501.056549215
0	742	143291.135756062175	8108.926691619
0	751	145620.403465545569	7051.025705195
0	762	146244.580797477679	5242.0526233065
0	775	146970.070266587604	5349.8002003789
0	801	150350.163486555652	7936.8268988089
0	817	151360.027375221976	5309.9584691559
0	833	152696.229865995375	4920.0865977892
0	850	154700.64634855308	6509.2817210277
0	867	156319.676743912709	5727.1373343238
0	883	157546.528930612866	5429.9280700645
0	900	159025.269209033817	4896.7767632184
0	908	161142.433089905609	5862.2882940163
0	917	162181.631621116708	5265.9972180732
0	958	166393.678709565139	8493.9011127791
0	969	166979.47333828658	4462.773390366
0	974	167263.948584482241	4685.4201178448
0	983	168471.984228541195	5017.0512042509
0	1012	174190.733463806243	10054.026587522
0	1028	174701.041958953112	4479.880664428
0	1066	177940.708892634723	6518.6709367284
0	1074	178793.210887144897	4742.5444829952
0	1101	179885.000149002188	5404.6708817839
0	1107	180168.666214482921	4794.2300686723
0	1115	181130.861801591774	5161.519967431
0	1132	183557.440923585817	4552.6010350865
0	1146	183878.976790501381	7223.4394896829
0	1181	186305.001881021168	7092.514085573
0	1200	187961.437414971397	4315.4094375399
0	1208	188270.847289159556	4540.3126799496
0	1213	188534.397324483808	6506.5293053849
0	1222	190376.764515611893	6448.8067172342
0	1230	190972.53333768204	5282.3650990392
0	1248	197426.698329337584	10631.813650024
0	1267	205265.988542208079	12044.853409916
0	1285	212274.286811707463	11031.803196124
0	1327	217302.17636178552	9048.5545824982
0	1338	217942.297060017944	4174.4989022955
0	1346	218235.094591192871	5418.6759211278
0	1360	220768.727877761533	6869.1926102306
0	1388	223098.904693253107	6516.3754389752
0	1413	225817.905826178021	7782.0210239604
0	1426	226476.987773630842	4786.6956982189
0	1437	227361.960866859953	4883.8298019455
0	1442	227664.721735686266	4822.8633947822
0	1475	230074.217288251338	6537.2718557109
0	1487	231776.853273019139	6172.1415554849
0	1500	233211.920939938377	4999.4014966434
0	1508	233635.480093701173	4787.6820771556
0	1517	235922.952332749906	6439.9373762017
0	1560	245444.311060008785	13941.165342187
0	1568	245809.716257249609	4529.0039494984
0	1593	247065.29474597045	5777.1708623181
0	1601	247845.19356415339	5080.117824861
0	1613	249961.694136650555	6298.9760467194
0	1618	250283.736086010437	4456.4023114424
0	1646	261603.273789976893	15554.757475302
0	1654	262299.560082920741	5281.3454785314
0	1673	270214.492542313067	12143.34431954
0	1699	277752.20226898893	11388.882887314
0	1708	279921.148211062128	6113.4417987023
0	1749	290991.595679059358	15535.563172293
0	1760	291595.321653863738	4686.1326672685
0	1776	292942.331122609084	5969.48858204
0	1793	295671.947187027966	6438.8136401397
0	1801	296533.143388397433	5716.307115049
0	1810	298018.495523519556	6216.3661687263
0	1853	306489.853360276234	12747.35759239
0	1861	307086.160621117853	4439.4921464039
0	1869	308743.618128931634	5686.0168276751
0	1878	309170.598637409189	4970.1782356701
0	1911	314603.452923478098	9730.4531039493
0	1920	315123.587018622006	5031.9603207519
0	1928	315775.607193128143	4801.2098516635
0	1954	321659.213680121353	9594.002159698
0	1979	324810.093723660707	7253.9247296726
0	1995	326863.589304254377	6479.2142629856
0	2007	328489.701993176599	5642.3511293425
0	2012	328740.452584376458	5132.1891908869
0	2038	334033.460867543597	9003.4994369064
0	2054	335883.331070069513	5697.0426159835
0	2063	338891.616293249264	7316.7906547075
0	2081	344333.156871838739	9575.2507327593
0	2107	350419.566663393672	10302.414668845
0	2141	354673.109353082359	8058.0213090838
0	2149	356493.868142135079	6677.4236617243
0	2158	357412.283804757588	4725.0519506822
0	2166	357955.656613834556	4997.5985058594
0	2196	368886.775962040865	15042.436594076
0	2210	371247.56719098589	6867.2247361656
0	2219	372895.486798865119	6014.3880446137
0	2246	381067.341794827223	12220.521941124
0	2262	382506.019179682825	5417.0932967025
0	2274	384326.174859803901	6127.6693764292
0	2312	388564.547852187957	7320.1530474767
0	2328	389411.969341456575	5142.5147058748
0	2337	390016.957300865848	5159.3339578294
0	2345	390649.267337254665	5322.3092002322
0	2356	392487.652273516404	5798.4234289765
0	2379	396493.992598324934	7710.7285801703
0	2387	398685.624563289185	6458.594412564
0	2423	410945.446460776001	16358.743785985
0	2432	413258.209528634462	7168.8820847933
0	2441	414394.635014658255	5505.7665359566
0	2458	418993.480154352288	8661.7657338742
0	2497	431760.723714440556	16746.409321169
0	2503	432110.361161005229	4655.4132160871
0	2527	433964.935825521554	5626.8324650324
0	2536	437381.982046895807	4366.3198918387
0	2544	437795.282612163026	8181.4733768605
0	2579	444334.281810049975	11008.611335834
0	2587	446215.914305545801	5936.656791843
0	2596	448182.054502298732	5981.6662346652
0	2630	454317.266553544685	10714.314608742
0	2671	457429.97378284731	6918.0006833212
0	2679	458233.162183162287	5168.4547633473
0	2687	458852.889484522102	5110.8574824787
0	2704	460076.936421657387	4979.4223601678
0	2715	460702.412812583368	5561.9084094571
0	2720	460991.84837026747	5081.9400713781
0	2737	463615.91669000895	6994.9170528316
0	2754	466719.933656790891	7631.7698808886
0	2779	469934.334187509417	7197.4751888707
0	2796	472136.868154555148	6998.9371336103
0	2807	473514.406873663445	5378.4610122097
0	2821	474463.575465671279	5186.8440314575
0	2846	477911.681475271431	7629.5113930173
0	2871	480086.460881689138	6698.3227261706
0	2887	481632.951059918039	5676.0873577225
0	2895	482585.044785368371	5722.8225875424
0	2904	483118.597085146024	4494.5531940118
0	2915	484122.457691084962	5444.0830641852
0	2945	488385.888524246719	8115.4518931741
0	2954	490175.999531503662	6067.0995669544
0	2962	490913.391275813338	5213.7176518419
0	3009	494953.165967921865	3981.2584701872
0	3015	495247.923494303451	8632.973742571
0	3020	495500.867270050075	4131.475375685
0	3036	497847.64861077968	6315.1019678918
0	3045	500528.319448181424	6176.7471816818
0	3072	509179.62787831483	13330.114535104
0	3081	511252.644851720759	6256.4257174785
0	3098	514864.54181536383	7679.3722101529
0	3140	519949.320961038667	4465.4336558866
0	3151	520269.740632229665	8975.232768786
0	3156	520570.724235507254	4618.4928261659
0	3173	522785.0920745954	6424.3386970115
0	3182	525392.361337274123	6552.6188215593
0	3202	529298.849359287154	7766.0826554387
0	3232	533091.747795895529	7295.7133386425
0	3241	534650.483057018676	5516.2513930352
0	3249	535877.454967588814	5501.7514480131
0	3310	541564.409065721995	4529.8024545467
0	3315	541821.71791364723	10162.036537104
0	3323	542571.079037758244	5292.3988753869
0	3332	543690.682618338918	5566.047453764
0	3343	544378.882669328496	4852.7341506393
0	3348	544691.650115255255	4249.3991050949
0	3366	551150.323941044425	10257.919833807
0	3400	555843.187357041349	8655.7951588343
0	3408	557968.049880937853	6097.2263870403
0	3420	559304.761564476505	5731.0666488649
0	3443	564033.965762451256	8843.2924550332
0	3452	567126.658354472724	8047.4837706438
0	3472	572271.589521672874	9089.5751774171
0	3487	576640.967472702627	8555.8491472458
0	3509	586364.996900218843	14183.651088255
0	3523	590720.105119097831	8690.2088689302
0	3561	597074.545938956926	10778.756952128
0	3566	597322.570036197603	4820.0124137904
0	3574	598447.485286640904	5809.2489718872
0	3626	611476.372547847303	4296.8307599001
0	3634	611857.661029992136	18312.011118156
0	3643	613535.829412195684	3755.3078055918
0	3651	614001.904765519775	6589.3968466288
0	3659	614761.303234091741	4947.5319167789
0	3685	619114.341581743997	8731.2265301105
0	3701	620621.870627053807	5831.706083095
0	3721	623800.001253233546	7460.6774441827
0	3743	625410.142281028918	5908.2919205513
0	3760	627997.228302325511	6457.3511848654
0	3776	629172.651881021002	5447.7474650915
0	3796	632590.626050053077	8157.8327916172
0	3801	632937.535307888775	5507.698879584
0	3827	636216.671343887379	7871.7965102736
0	3851	638919.64539819491	6930.3521772293
0	3863	640249.104302126504	4650.7585263194
0	3868	640577.169445281973	6278.760854489
0	3876	641138.013449985204	4892.3220180091
0	3921	646037.086944718863	9477.3695111251
0	3926	646345.82360942191	4927.9328868785
0	3945	647860.713173449618	5770.2330708854
0	3975	649639.16922153878	5653.4406318898
0	3984	651422.716271022604	6033.6564163566
0	3995	652228.525379606557	4617.8549240214
0	4000	652523.345770480334	5338.3627781224
0	4008	653751.385988218136	5583.7143659219
0	4026	659541.115756141962	10550.231653332
0	4054	670005.88801447896	14614.068735963
0	4090	674097.826972427857	8352.8483025959
0	4104	675937.047929124767	6788.9051824262
0	4123	677695.064763566089	6540.8258357434
0	4131	677951.600997962999	4843.0610317486
0	4137	678207.125142557197	4798.814295075
0	4154	681320.282434638823	7470.7157087364
0	4162	683753.657089215775	7225.1401877116
0	4196	687759.84483196604	8264.6805001477
0	4207	688730.777619420957	4926.8830111312
0	4212	689068.14830377035	5238.2833204559
0	4246	695831.112508560945	11182.546850497
0	4266	697719.339177899575	5853.8263638908
0	4271	697988.944181030141	5229.3727687054
0	4304	701258.528003177841	7868.2168204977
0	4324	704272.188664134934	4292.8806164736
0	4329	704592.483654244183	7470.5273080618
0	4337	704872.547938029673	4661.2150257644
0	4354	707495.285244546036	6881.3298625749
0	4371	710460.511162330017	6795.906222415
0	4388	713618.509217166176	7036.4294844805
0	4397	716674.882477756959	7404.510515304
0	4415	721466.546353365759	8825.720512197
0	4441	727170.882786830927	9884.1900736976
0	4449	728470.307391820186	6010.6074723282
0	4475	733239.841185638758	8897.1274004112
0	4491	734670.895683820694	6030.8973158328
0	4533	738310.535697492975	7943.9389788257
0	4541	739607.338188068224	5632.6394793095
0	4557	740872.261473915302	5503.4439671168
0	4566	741262.38911427716	4660.7832420775
0	4585	742195.118354654182	5169.788782672
0	4606	743890.55636582727	6780.3207749967
0	4615	745608.181428622343	5293.5058680238
0	4634	746983.812234512831	5689.3210698022
0	4640	747339.102861633761	5465.0593398891
0	4673	750025.931975406738	7641.2244257959
0	4681	751141.99941342312	5026.6116874827
0	4690	753080.913654412497	5512.9857368153
0	4698	753771.357486159645	4585.360243009
0	4735	761877.578584234795	12399.567691262
0	4744	762144.187077927988	4538.3362398623
0	4774	765337.433467266677	7008.7232366933
0	4785	766431.230879948275	4338.7682228804
0	4793	766735.507681226562	5853.1901729584
0	4798	767085.072291391413	4842.8335063993
0	4825	776413.70714012001	13426.736911236
0	4851	780069.784111822799	8280.7741974731
0	4859	782138.890579764591	6319.3046254359
0	4867	782690.175625254124	4624.1618797106
0	4910	789172.107809146279	10915.468180433
0	4918	789609.68364110382	4930.9950317427
0	4934	791328.950211350207	5273.5749988848
0	4943	792452.302117921354	5057.5420841
0	4951	794512.534318412041	5982.6116117358
0	4969	800301.378983516148	10121.274410316
0	5009	805453.771276724536	9432.3019984837
0	5019	806051.244430765371	4909.1797086557
0	5035	806831.346368271498	5513.2688989104
0	5044	809477.200207279808	7178.1322841656
0	5053	810744.066517584299	5354.0069433892
0	5080	820058.70106778739	13832.529386733
0	5097	822530.755117126126	6517.1544370317
0	5113	824359.657788221478	5700.6018783667
0	5138	827181.662181094652	6843.5971367064
0	5150	829949.619952385398	4556.1677139043
0	5155	830230.571043366361	7688.8132884191
0	5184	843506.500521052935	17553.227439782
0	5192	845826.084862349623	6682.2712416637
0	5226	851974.755752840245	10660.405298769
0	5241	854017.526147821869	6416.2459657087
0	5251	854599.439387749904	4635.1143923108
0	5277	858659.797214631551	8459.0366269859
0	5293	860469.042620828355	6774.8763611525
0	5302	862140.154906963946	6042.6468689252
0	5322	864226.95940206628	6605.951445587
0	5343	866133.324097681644	6478.2101757851
0	5363	868663.137884745422	6251.156781914
0	5368	868943.58441317401	4969.790508076
0	5376	869979.122526286273	5456.7026651351
0	5394	875986.200114039559	9756.1807387151
0	5420	880087.459755723261	8151.9712136211
0	5436	881763.971740444427	5418.9375453249
0	5453	884662.622594866319	7236.0001867384
0	5462	886368.435841604915	5407.8476812089
0	5487	890719.409964027172	8788.7225157326
0	5496	891537.778589793259	4819.1307094943
0	5514	898012.687143371315	10080.459806253
0	5548	903596.017563423657	4297.9480362141
0	5556	904260.100746053909	9801.7988791571
0	5564	905316.92866860836	5181.037999063
0	5598	911207.927517007846	9930.2184341975
0	5607	912341.877651151015	5616.7451501919
0	5626	914026.710325902675	6335.7956657734
0	5640	917295.157974634271	7371.3675023585
0	5648	917886.375236140028	4366.2606705483
0	5674	923325.478088309808	9307.0493191126
0	5683	925290.541345609773	6477.4266756793
0	5726	933599.664779159687	12586.431662296
0	5750	934930.147580246395	5576.103499549
0	5758	935718.322344838359	5150.384695314
0	5767	936640.937307209295	5684.106935439
0	5775	938095.643586925655	5597.5501794861
0	5783	938756.006549598769	5064.7302369563
0	5801	944885.796786966791	11094.354187254
0	5819	949290.555038184271	8312.0299978773
0	5848	956043.837969082126	10817.300454409
0	5870	959886.840082373447	7445.0245323243
0	5882	960782.3064526493	5507.4706441617
0	5895	962242.584270957356	6331.7509667305
0	5920	964827.404544415794	6842.8848165155
0	5929	966779.192019359608	6157.0741136483
0	5945	968324.25192969183	5744.8571805462
0	5970	971531.640525705558	8100.1266490112
0	5987	973779.859314573871	6108.069648243
0	6001	974314.126237428696	4439.6894393435
0	6020	977081.636096539639	7093.4585873284
0	6032	978579.239280904607	5342.8627283939
0	6037	978858.757364087096	4770.6733051352
0	6075	989623.605505326243	15333.680685547
0	6081	990010.330411140345	4762.2500050389
0	6089	991564.258382406791	6289.2652337431
0	6123	996154.273108550868	8052.5101236274
0	6131	997462.300835398688	5074.41762687
0	6139	998865.295169581849	5192.1388925908
0	6165	1004931.218397161147	10016.697999373
0	6174	1007445.11495887118	6233.2780381669
0	6203	1011459.760606470928	7791.0073791167
0	6225	1014687.544723369502	6946.6412628393
0	6241	1015502.607420864274	5374.45058916
0	6250	1018094.864037040975	6755.7551071182
0	6258	1019172.335476901852	5311.036459366
0	6293	1026806.518384070076	11926.056207637
0	6302	1029051.226153909124	6746.3145948244
0	6313	1029751.012987027716	4608.839159868
0	6327	1033936.72612976523	8743.7803656271
1	612	121440.632026743511	0
1	629	123001.548982913189	49.400345019085
1	654	128092.701602012644	0
1	672	132448.367376632654	0
1	681	135182.209064443169	0
1	698	138569.377760350555	0
1	715	141002.52817417122	0
1	723	141620.270066208731	0
1	731	142413.336587746783	0
1	764	146244.580797477679	194.5118914116
1	781	147776.143268206197	0
1	789	148191.364627525362	0
1	806	150592.539409588891	0
1	822	152116.600860548378	0
1	839	154128.492445815367	0
1	855	155280.144795889345	0
1	872	156915.634403043496	0
1	888	157899.777596786033	0
1	922	162516.699947920571	0
1	930	162825.201698515184	246.67323187774
1	938	163454.933024290309	0
1	946	164136.706876284277	0
1	988	170221.161294525157	0
1	997	171422.037955906367	0
1	1014	174190.733463806243	140.06705965651
1	1030	174701.041958953112	220.71269173484
1	1038	175374.436145810639	0
1	1046	175969.341834160757	0
1	1054	176655.537300818506	0
1	1079	179004.839888499347	0
1	1087	179302.21464187516	89.72684642699
1	1120	182027.868019098953	0
1	1148	183878.976790501381	232.94881306985
1	1156	184165.771825567379	435.23721635743
1	1161	184509.087268131695	581.12946975398
1	1169	185690.168238642801	0
1	1186	186794.884679313451	0
1	1236	193221.135132291935	0
1	1255	201242.483615583813	0
1	1273	208253.621779287273	0
1	1290	212816.418670065111	0
1	1299	213767.798157722437	0
1	1307	214069.007584259791	169.47231672888
1	1316	216582.529254277883	0
1	1348	218235.094591192871	199.20978897523
1	1365	221690.292075411938	0
1	1374	222478.131064914455	0
1	1390	223098.904693253107	257.04635234908
1	1398	223536.945432540476	0
1	1415	225817.905826178021	213.19410864382
1	1448	228212.519443294992	0
1	1456	228847.798016545545	0
1	1464	229483.014956548201	0
1	1489	231776.853273019139	273.70755519744
1	1524	241280.712307751219	0
1	1532	241599.509762452955	311.38587880059
1	1540	242765.075739292377	0
1	1549	243662.718089931127	0
1	1573	245827.33377456801	0
1	1582	246155.118198089078	106.60188341402
1	1625	257018.21460438935	0
1	1634	258071.148222773565	0
1	1660	266363.319381675265	0
1	1679	273807.706412359831	0
1	1687	275456.032506766382	0
1	1715	286909.188986595196	0
1	1723	287215.733058763711	242.89051819458
1	1732	289233.133546888294	0
1	1751	290991.595679059358	174.75940571092
1	1765	291802.129354793236	0
1	1781	293742.495767885879	0
1	1816	302646.668474713937	0
1	1825	303057.601301256498	0
1	1833	304200.420401739085	0
1	1841	304872.999819528823	0
1	1883	310091.626697870101	0
1	1891	310974.397341464689	0
1	1900	312065.211520423386	0
1	1933	317556.168993988102	0
1	1942	320384.375041268738	0
1	1959	322847.350863834094	0
1	1967	323608.263393489582	0
1	1984	325029.961430637196	0
1	2018	330186.288454085992	0
1	2026	331574.825638541791	0
1	2043	334757.906139079436	0
1	2069	340117.15199454871	0
1	2087	346615.088043998558	0
1	2096	349816.444480410779	0
1	2113	352687.231854075365	0
1	2121	352958.058107975169	0
1	2129	353844.339367964902	0
1	2173	364380.342454820274	0
1	2182	366881.098754251434	0
1	2198	368886.775962040865	39.956108337653
1	2225	377088.925882980278	0
1	2234	378198.505483374694	0
1	2251	381244.394804711231	0
1	2276	384326.174859803901	56.720224222078
1	2284	384857.623343036485	0
1	2292	385326.958137022454	0
1	2300	386689.228844539947	0
1	2317	388783.264018154621	0
1	2358	392487.652273516404	260.62212279124
1	2367	394586.702674790742	0
1	2395	406089.327443841198	0
1	2404	408888.868478701662	0
1	2412	410331.714420478048	0
1	2446	415014.314393271386	0
1	2466	427454.947944918088	0
1	2474	428338.103360489203	0
1	2483	429613.809235302532	0
1	2508	433015.662155057102	0
1	2519	433379.781564434708	54.111090218365
1	2550	440279.257513702759	0
1	2559	442200.388267633575	0
1	2567	443602.951944802379	0
1	2602	450511.973099526101	0
1	2611	453064.707419815016	0
1	2619	453742.032002043445	0
1	2635	455097.514061489591	0
1	2643	455385.979396990683	245.47499386441
1	2651	455909.908298889388	0
1	2660	456620.999637177317	0
1	2693	459088.163775902246	0
1	2726	462736.858998638678	0
1	2743	465137.93102094485	0
1	2760	468135.945861453758	0
1	2768	469276.731434213781	0
1	2784	470282.170082254168	0
1	2809	473514.406873663445	126.26871814491
1	2826	475956.863702195533	0
1	2834	476862.222197825941	0
1	2851	478624.043891134262	0
1	2859	478920.822708951828	242.44808205205
1	2876	480270.436631072593	0
1	2917	484122.457691084962	13.557726535728
1	2925	485699.673623971469	0
1	2934	486614.949751732455	0
1	2967	490971.90749773464	0
1	2975	491369.391894365114	0
1	2983	491667.809063735264	135.26242084739
1	2992	494351.572266499596	0
1	3025	495849.513343210333	0
1	3052	504996.219134242281	0
1	3061	507185.169605210904	0
1	3086	511294.507863443616	0
1	3103	515483.887305152043	0
1	3111	515952.231409341354	0
1	3120	516360.753377583905	0
1	3128	518839.742515714864	0
1	3161	521532.766703848433	0
1	3187	525796.034457253046	0
1	3204	529298.849359287154	164.61769530364
1	3212	530375.703519575667	0
1	3221	531659.681376543613	0
1	3255	537034.606611175253	0
1	3263	537372.979697317599	94.299534946249
1	3271	538124.635164574938	0
1	3279	539526.148518689187	0
1	3288	540442.251010160392	0
1	3296	540892.404107237811	0
1	3354	547187.392198207083	0
1	3371	551870.823493897591	0
1	3380	553573.694915611616	0
1	3389	555190.673307418028	0
1	3422	559304.761564476505	225.58698064755
1	3431	563182.014344255747	0
1	3457	568085.118325456875	0
1	3474	572271.589521672874	90.243709709345
1	3494	582029.896250167585	0
1	3511	586364.996900218843	69.207913390288
1	3529	592502.557622407165	0
1	3537	592789.040713442339	150.80439868865
1	3545	593545.649911835956	0
1	3582	607179.541787947246	0
1	3590	607485.620417794951	73.112498904011
1	3599	609780.52160660389	0
1	3607	610074.387861857118	260.61654454426
1	3615	610383.115051633528	0
1	3664	614790.164543958804	0
1	3673	616339.323809050872	0
1	3690	619501.85036047757	0
1	3707	621539.87711746013	0
1	3723	623800.001253233546	75.09683730405
1	3732	624432.793258435837	0
1	3749	627429.836428304786	0
1	3765	628344.87483361373	0
1	3782	631989.293220965561	0
1	3807	634298.408590793017	0
1	3815	635598.345775807063	0
1	3832	636245.691431976078	0
1	3840	636559.717433593735	0
1	3881	641417.890722543401	0
1	3890	642090.480102564201	0
1	3898	643985.728589648971	0
1	3907	645389.059854666026	0
1	3931	647184.982992357927	0
1	3947	647860.713173449618	250.04271786443
1	3956	648167.671622296243	0
1	3964	648990.884102809939	0
1	4014	655391.819278515911	0
1	4033	665744.978669831943	0
1	4043	669148.142746698524	0
1	4059	671154.23892782267	0
1	4068	673108.539966214436	0
1	4079	673437.780571333069	29.469723850841
1	4092	674097.826972427857	248.26024652548
1	4109	676528.516901504153	0
1	4142	679495.164331818294	0
1	4167	683803.894608289793	0
1	4176	684119.944794272519	290.07981095811
1	4184	684648.565658063827	0
1	4218	691865.512814008799	0
1	4226	692759.571412324715	0
1	4235	693390.311182680118	0
1	4252	697121.956346182406	0
1	4277	699979.308047661298	0
1	4285	700301.204987039238	89.872074773977
1	4293	700613.955381971113	0
1	4310	703664.604939915033	0
1	4343	706582.079732685683	0
1	4360	709270.371962452982	0
1	4377	712640.825841168766	0
1	4403	717286.69271313329	0
1	4420	722459.69991949194	0
1	4429	724342.713785227556	0
1	4454	728639.998367987936	0
1	4463	730366.596718667271	0
1	4480	733974.698708758758	0
1	4497	735368.817506798484	0
1	4505	736601.605872199616	0
1	4513	737025.329571982202	0
1	4521	737316.365012307288	206.12942147673
1	4546	740314.675560598592	0
1	4571	741294.491164710664	0
1	4587	742195.118354654182	321.07483290948
1	4595	742473.855608105617	89.148058494744
1	4620	746115.387725940468	0
1	4645	747567.927917597191	0
1	4653	749185.99724315067	0
1	4661	749490.651557155181	12.640664182078
1	4704	757605.850838065657	0
1	4712	758328.710230573328	0
1	4721	760882.317508268144	0
1	4746	762144.187077927988	51.724420860066
1	4754	762432.350254429655	190.11146943754
1	4762	762986.970228884445	0
1	4805	771789.009914349705	0
1	4814	775819.585954328678	0
1	4831	778066.013745543518	0
1	4839	778341.438973754224	84.799345041162
1	4873	784678.68860936109	0
1	4882	786055.375212465456	0
1	4890	787394.760033821358	0
1	4898	788529.922706676198	0
1	4923	790180.104573200312	0
1	4957	796021.469278240832	0
1	4975	801142.064722109628	0
1	4983	801493.764679411879	175.68721005079
1	4991	802299.067923114243	0
1	5011	805453.771276724536	63.711702529455
1	5024	806226.171681054121	0
1	5060	816013.600680094463	0
1	5068	818659.055909854801	0
1	5085	820338.065044388255	0
1	5102	822541.757754947267	0
1	5119	825393.452238481097	0
1	5127	825953.27308127106	0
1	5163	839143.813620685894	0
1	5172	841314.350454071497	0
1	5198	847601.280182113207	0
1	5207	849964.32499543909	0
1	5215	850299.73883177959	98.978244133967
1	5243	854017.526147821869	323.35988814599
1	5257	856097.508038038744	0
1	5265	857621.007956479234	0
1	5282	859655.113921896548	0
1	5307	862411.981102831466	0
1	5324	864226.95940206628	253.16549696822
1	5332	864532.829787842939	10.409926691765
1	5348	866230.019375324481	0
1	5382	871935.488542102207	0
1	5400	876345.034195119549	0
1	5408	877426.622408127952	0
1	5425	880960.588160396005	0
1	5441	881930.687448294573	0
1	5467	886718.647880298991	0
1	5475	887932.227337118014	0
1	5502	894458.301866896798	0
1	5519	899298.0695272096	0
1	5528	900135.8906695454	0
1	5536	901277.709082810377	0
1	5570	906725.132500959101	0
1	5578	907690.91466012928	0
1	5587	909923.790472275814	0
1	5612	913520.114565591764	0
1	5628	914026.710325902675	8.281556705461
1	5654	918813.114669930488	0
1	5663	921013.233116863349	0
1	5689	929354.044080697417	0
1	5698	930567.937649524324	0
1	5706	930956.830371770331	0
1	5714	932498.093407439598	0
1	5731	933691.276312642491	0
1	5739	934000.501618325088	209.05901861223
1	5789	940978.52504030695	0
1	5807	945226.537514673243	0
1	5825	952441.815550049193	0
1	5834	955274.835808487642	0
1	5850	956043.837969082126	133.00466485531
1	5859	957984.519727900273	0
1	5884	960782.3064526493	160.18854693795
1	5900	962579.39474914562	0
1	5909	963431.513876694367	0
1	5934	967671.789666330886	0
1	5951	969874.436798085225	0
1	5959	970119.293939352367	131.11643014109
1	5976	973236.376552510739	0
1	6003	974314.126237428696	226.04217847675
1	6008	974559.163790570257	269.2389707909
1	6044	985248.080406101491	0
1	6052	985564.518423616369	289.52527495264
1	6061	988101.762984923445	0
1	6094	992387.883208528645	0
1	6103	993673.15627699109	0
1	6111	994914.520397787795	0
1	6145	1001211.836920704241	0
1	6154	1003668.753227354198	0
1	6179	1007740.903460530202	0
1	6188	1010128.156831704272	0
1	6205	1011459.760606470928	120.65167654812
1	6213	1013861.299017535858	0
1	6230	1014880.462176433145	0
1	6264	1022304.911559084699	0
1	6273	1025142.173827159713	0
1	6281	1025414.982471341155	222.03670720303
1	6315	1029751.012987027716	76.721156817141
2	610	121440.632026743511	1
2	612	121440.632026743511	0
2	623	122952.148637894104	1
2	629	123001.548982913189	0
2	652	128092.701602012644	1
2	654	128092.701602012644	0
2	670	132448.367376632654	1
2	672	132448.367376632654	0
2	679	135182.209064443169	1
2	681	135182.209064443169	0
2	696	138569.377760350555	1
2	698	138569.377760350555	0
2	713	141002.52817417122	1
2	715	141002.52817417122	0
2	721	141620.270066208731	1
2	723	141620.270066208731	0
2	729	142413.336587746783	1
2	731	142413.336587746783	0
2	759	146050.068906066076	1
2	764	146244.580797477679	0
2	779	147776.143268206197	1
2	781	147776.143268206197	0
2	787	148191.364627525362	1
2	789	148191.364627525362	0
2	804	150592.539409588891	1
2	806	150592.539409588891	0
2	820	152116.600860548378	1
2	822	152116.600860548378	0
2	837	154128.492445815367	1
2	839	154128.492445815367	0
2	853	155280.144795889345	1
2	855	155280.144795889345	0
2	870	156915.634403043496	1
2	872	156915.634403043496	0
2	886	157899.777596786033	1
2	888	157899.777596786033	0
2	920	162516.699947920571	1
2	922	162516.699947920571	0
2	925	162578.52846663744	1
2	930	162825.201698515184	0
2	936	163454.933024290309	1
2	938	163454.933024290309	0
2	944	164136.706876284277	1
2	946	164136.706876284277	0
2	986	170221.161294525157	1
2	988	170221.161294525157	0
2	995	171422.037955906367	1
2	997	171422.037955906367	0
2	1009	174050.666404149731	1
2	1014	174190.733463806243	0
2	1025	174480.329267218269	1
2	1030	174701.041958953112	0
2	1036	175374.436145810639	1
2	1038	175374.436145810639	0
2	1044	175969.341834160757	1
2	1046	175969.341834160757	0
2	1052	176655.537300818506	1
2	1054	176655.537300818506	0
2	1077	179004.839888499347	1
2	1079	179004.839888499347	0
2	1082	179212.48779544817	1
2	1087	179302.21464187516	0
2	1118	182027.868019098953	1
2	1120	182027.868019098953	0
2	1140	183646.027977431535	1
2	1143	183730.534609209953	2
2	1148	183878.976790501381	1
2	1151	183927.957798377712	2
2	1156	184165.771825567379	1
2	1161	184509.087268131695	0
2	1167	185690.168238642801	1
2	1169	185690.168238642801	0
2	1184	186794.884679313451	1
2	1186	186794.884679313451	0
2	1234	193221.135132291935	1
2	1236	193221.135132291935	0
2	1253	201242.483615583813	1
2	1255	201242.483615583813	0
2	1271	208253.621779287273	1
2	1273	208253.621779287273	0
2	1288	212816.418670065111	1
2	1290	212816.418670065111	0
2	1297	213767.798157722437	1
2	1299	213767.798157722437	0
2	1302	213899.535267530909	1
2	1307	214069.007584259791	0
2	1314	216582.529254277883	1
2	1316	216582.529254277883	0
2	1343	218035.884802217636	1
2	1348	218235.094591192871	0
2	1363	221690.292075411938	1
2	1365	221690.292075411938	0
2	1372	222478.131064914455	1
2	1374	222478.131064914455	0
2	1385	222841.858340904031	1
2	1390	223098.904693253107	0
2	1396	223536.945432540476	1
2	1398	223536.945432540476	0
2	1410	225604.711717534198	1
2	1415	225817.905826178021	0
2	1446	228212.519443294992	1
2	1448	228212.519443294992	0
2	1454	228847.798016545545	1
2	1456	228847.798016545545	0
2	1462	229483.014956548201	1
2	1464	229483.014956548201	0
2	1484	231503.145717821695	1
2	1489	231776.853273019139	0
2	1522	241280.712307751219	1
2	1524	241280.712307751219	0
2	1527	241288.123883652361	1
2	1532	241599.509762452955	0
2	1538	242765.075739292377	1
2	1540	242765.075739292377	0
2	1547	243662.718089931127	1
2	1549	243662.718089931127	0
2	1571	245827.33377456801	1
2	1573	245827.33377456801	0
2	1577	246048.51631467506	1
2	1582	246155.118198089078	0
2	1623	257018.21460438935	1
2	1625	257018.21460438935	0
2	1632	258071.148222773565	1
2	1634	258071.148222773565	0
2	1658	266363.319381675265	1
2	1660	266363.319381675265	0
2	1677	273807.706412359831	1
2	1679	273807.706412359831	0
2	1685	275456.032506766382	1
2	1687	275456.032506766382	0
2	1713	286909.188986595196	1
2	1715	286909.188986595196	0
2	1718	286972.842540569129	1
2	1723	287215.733058763711	0
2	1730	289233.133546888294	1
2	1732	289233.133546888294	0
2	1743	290816.836273348441	1
2	1751	290991.595679059358	0
2	1763	291802.129354793236	1
2	1765	291802.129354793236	0
2	1779	293742.495767885879	1
2	1781	293742.495767885879	0
2	1814	302646.668474713937	1
2	1816	302646.668474713937	0
2	1823	303057.601301256498	1
2	1825	303057.601301256498	0
2	1831	304200.420401739085	1
2	1833	304200.420401739085	0
2	1839	304872.999819528823	1
2	1841	304872.999819528823	0
2	1881	310091.626697870101	1
2	1883	310091.626697870101	0
2	1889	310974.397341464689	1
2	1891	310974.397341464689	0
2	1898	312065.211520423386	1
2	1900	312065.211520423386	0
2	1931	317556.168993988102	1
2	1933	317556.168993988102	0
2	1940	320384.375041268738	1
2	1942	320384.375041268738	0
2	1957	322847.350863834094	1
2	1959	322847.350863834094	0
2	1965	323608.263393489582	1
2	1967	323608.263393489582	0
2	1982	325029.961430637196	1
2	1984	325029.961430637196	0
2	2016	330186.288454085992	1
2	2018	330186.288454085992	0
2	2024	331574.825638541791	1
2	2026	331574.825638541791	0
2	2041	334757.906139079436	1
2	2043	334757.906139079436	0
2	2067	340117.15199454871	1
2	2069	340117.15199454871	0
2	2085	346615.088043998558	1
2	2087	346615.088043998558	0
2	2094	349816.444480410779	1
2	2096	349816.444480410779	0
2	2111	352687.231854075365	1
2	2113	352687.231854075365	0
2	2119	352958.058107975169	1
2	2121	352958.058107975169	0
2	2127	353844.339367964902	1
2	2129	353844.339367964902	0
2	2171	364380.342454820274	1
2	2173	364380.342454820274	0
2	2180	366881.098754251434	1
2	2182	366881.098754251434	0
2	2193	368846.819853703212	1
2	2198	368886.775962040865	0
2	2223	377088.925882980278	1
2	2225	377088.925882980278	0
2	2232	378198.505483374694	1
2	2234	378198.505483374694	0
2	2249	381244.394804711231	1
2	2251	381244.394804711231	0
2	2271	384269.454635581823	1
2	2276	384326.174859803901	0
2	2282	384857.623343036485	1
2	2284	384857.623343036485	0
2	2290	385326.958137022454	1
2	2292	385326.958137022454	0
2	2298	386689.228844539947	1
2	2300	386689.228844539947	0
2	2315	388783.264018154621	1
2	2317	388783.264018154621	0
2	2353	392227.030150725164	1
2	2358	392487.652273516404	0
2	2365	394586.702674790742	1
2	2367	394586.702674790742	0
2	2393	406089.327443841198	1
2	2395	406089.327443841198	0
2	2402	408888.868478701662	1
2	2404	408888.868478701662	0
2	2410	410331.714420478048	1
2	2412	410331.714420478048	0
2	2444	415014.314393271386	1
2	2446	415014.314393271386	0
2	2464	427454.947944918088	1
2	2466	427454.947944918088	0
2	2472	428338.103360489203	1
2	2474	428338.103360489203	0
2	2481	429613.809235302532	1
2	2483	429613.809235302532	0
2	2506	433015.662155057102	1
2	2508	433015.662155057102	0
2	2514	433325.670474216343	1
2	2519	433379.781564434708	0
2	2548	440279.257513702759	1
2	2550	440279.257513702759	0
2	2557	442200.388267633575	1
2	2559	442200.388267633575	0
2	2565	443602.951944802379	1
2	2567	443602.951944802379	0
2	2600	450511.973099526101	1
2	2602	450511.973099526101	0
2	2609	453064.707419815016	1
2	2611	453064.707419815016	0
2	2617	453742.032002043445	1
2	2619	453742.032002043445	0
2	2633	455097.514061489591	1
2	2635	455097.514061489591	0
2	2638	455140.504403126272	1
2	2643	455385.979396990683	0
2	2649	455909.908298889388	1
2	2651	455909.908298889388	0
2	2658	456620.999637177317	1
2	2660	456620.999637177317	0
2	2691	459088.163775902246	1
2	2693	459088.163775902246	0
2	2724	462736.858998638678	1
2	2726	462736.858998638678	0
2	2741	465137.93102094485	1
2	2743	465137.93102094485	0
2	2758	468135.945861453758	1
2	2760	468135.945861453758	0
2	2766	469276.731434213781	1
2	2768	469276.731434213781	0
2	2782	470282.170082254168	1
2	2784	470282.170082254168	0
2	2804	473388.138155518534	1
2	2809	473514.406873663445	0
2	2824	475956.863702195533	1
2	2826	475956.863702195533	0
2	2832	476862.222197825941	1
2	2834	476862.222197825941	0
2	2849	478624.043891134262	1
2	2851	478624.043891134262	0
2	2854	478678.374626899774	1
2	2859	478920.822708951828	0
2	2874	480270.436631072593	1
2	2876	480270.436631072593	0
2	2912	484108.899964549234	1
2	2917	484122.457691084962	0
2	2923	485699.673623971469	1
2	2925	485699.673623971469	0
2	2932	486614.949751732455	1
2	2934	486614.949751732455	0
2	2965	490971.90749773464	1
2	2967	490971.90749773464	0
2	2973	491369.391894365114	1
2	2975	491369.391894365114	0
2	2978	491532.546642887871	1
2	2983	491667.809063735264	0
2	2990	494351.572266499596	1
2	2992	494351.572266499596	0
2	3023	495849.513343210333	1
2	3025	495849.513343210333	0
2	3050	504996.219134242281	1
2	3052	504996.219134242281	0
2	3059	507185.169605210904	1
2	3061	507185.169605210904	0
2	3084	511294.507863443616	1
2	3086	511294.507863443616	0
2	3101	515483.887305152043	1
2	3103	515483.887305152043	0
2	3109	515952.231409341354	1
2	3111	515952.231409341354	0
2	3118	516360.753377583905	1
2	3120	516360.753377583905	0
2	3126	518839.742515714864	1
2	3128	518839.742515714864	0
2	3159	521532.766703848433	1
2	3161	521532.766703848433	0
2	3185	525796.034457253046	1
2	3187	525796.034457253046	0
2	3199	529134.231663983513	1
2	3204	529298.849359287154	0
2	3210	530375.703519575667	1
2	3212	530375.703519575667	0
2	3219	531659.681376543613	1
2	3221	531659.681376543613	0
2	3253	537034.606611175253	1
2	3255	537034.606611175253	0
2	3258	537278.68016237135	1
2	3263	537372.979697317599	0
2	3269	538124.635164574938	1
2	3271	538124.635164574938	0
2	3277	539526.148518689187	1
2	3279	539526.148518689187	0
2	3286	540442.251010160392	1
2	3288	540442.251010160392	0
2	3294	540892.404107237811	1
2	3296	540892.404107237811	0
2	3352	547187.392198207083	1
2	3354	547187.392198207083	0
2	3369	551870.823493897591	1
2	3371	551870.823493897591	0
2	3378	553573.694915611616	1
2	3380	553573.694915611616	0
2	3387	555190.673307418028	1
2	3389	555190.673307418028	0
2	3417	559079.174583828957	1
2	3422	559304.761564476505	0
2	3429	563182.014344255747	1
2	3431	563182.014344255747	0
2	3455	568085.118325456875	1
2	3457	568085.118325456875	0
2	3469	572181.345811963529	1
2	3474	572271.589521672874	0
2	3492	582029.896250167585	1
2	3494	582029.896250167585	0
2	3506	586295.788986828555	1
2	3511	586364.996900218843	0
2	3527	592502.557622407165	1
2	3529	592502.557622407165	0
2	3532	592638.236314753686	1
2	3537	592789.040713442339	0
2	3543	593545.649911835956	1
2	3545	593545.649911835956	0
2	3580	607179.541787947246	1
2	3582	607179.541787947246	0
2	3585	607412.50791889094	1
2	3590	607485.620417794951	0
2	3597	609780.52160660389	1
2	3599	609780.52160660389	0
2	3602	609813.771317312853	1
2	3607	610074.387861857118	0
2	3613	610383.115051633528	1
2	3615	610383.115051633528	0
2	3662	614790.164543958804	1
2	3664	614790.164543958804	0
2	3671	616339.323809050872	1
2	3673	616339.323809050872	0
2	3688	619501.85036047757	1
2	3690	619501.85036047757	0
2	3705	621539.87711746013	1
2	3707	621539.87711746013	0
2	3718	623724.904415929496	1
2	3723	623800.001253233546	0
2	3730	624432.793258435837	1
2	3732	624432.793258435837	0
2	3747	627429.836428304786	1
2	3749	627429.836428304786	0
2	3763	628344.87483361373	1
2	3765	628344.87483361373	0
2	3780	631989.293220965561	1
2	3782	631989.293220965561	0
2	3805	634298.408590793017	1
2	3807	634298.408590793017	0
2	3813	635598.345775807063	1
2	3815	635598.345775807063	0
2	3830	636245.691431976078	1
2	3832	636245.691431976078	0
2	3838	636559.717433593735	1
2	3840	636559.717433593735	0
2	3879	641417.890722543401	1
2	3881	641417.890722543401	0
2	3888	642090.480102564201	1
2	3890	642090.480102564201	0
2	3896	643985.728589648971	1
2	3898	643985.728589648971	0
2	3905	645389.059854666026	1
2	3907	645389.059854666026	0
2	3929	647184.982992357927	1
2	3931	647184.982992357927	0
2	3942	647610.670455585189	1
2	3947	647860.713173449618	0
2	3954	648167.671622296243	1
2	3956	648167.671622296243	0
2	3962	648990.884102809939	1
2	3964	648990.884102809939	0
2	4012	655391.819278515911	1
2	4014	655391.819278515911	0
2	4031	665744.978669831943	1
2	4033	665744.978669831943	0
2	4041	669148.142746698524	1
2	4043	669148.142746698524	0
2	4057	671154.23892782267	1
2	4059	671154.23892782267	0
2	4066	673108.539966214436	1
2	4068	673108.539966214436	0
2	4074	673408.310847482228	1
2	4079	673437.780571333069	0
2	4087	673849.566725902377	1
2	4092	674097.826972427857	0
2	4107	676528.516901504153	1
2	4109	676528.516901504153	0
2	4140	679495.164331818294	1
2	4142	679495.164331818294	0
2	4165	683803.894608289793	1
2	4167	683803.894608289793	0
2	4170	683829.864983314411	1
2	4176	684119.944794272519	0
2	4182	684648.565658063827	1
2	4184	684648.565658063827	0
2	4216	691865.512814008799	1
2	4218	691865.512814008799	0
2	4224	692759.571412324715	1
2	4226	692759.571412324715	0
2	4233	693390.311182680118	1
2	4235	693390.311182680118	0
2	4250	697121.956346182406	1
2	4252	697121.956346182406	0
2	4275	699979.308047661298	1
2	4277	699979.308047661298	0
2	4280	700211.332912265261	1
2	4285	700301.204987039238	0
2	4291	700613.955381971113	1
2	4293	700613.955381971113	0
2	4308	703664.604939915033	1
2	4310	703664.604939915033	0
2	4341	706582.079732685683	1
2	4343	706582.079732685683	0
2	4358	709270.371962452982	1
2	4360	709270.371962452982	0
2	4375	712640.825841168766	1
2	4377	712640.825841168766	0
2	4401	717286.69271313329	1
2	4403	717286.69271313329	0
2	4418	722459.69991949194	1
2	4420	722459.69991949194	0
2	4427	724342.713785227556	1
2	4429	724342.713785227556	0
2	4452	728639.998367987936	1
2	4454	728639.998367987936	0
2	4461	730366.596718667271	1
2	4463	730366.596718667271	0
2	4478	733974.698708758758	1
2	4480	733974.698708758758	0
2	4495	735368.817506798484	1
2	4497	735368.817506798484	0
2	4503	736601.605872199616	1
2	4505	736601.605872199616	0
2	4511	737025.329571982202	1
2	4513	737025.329571982202	0
2	4516	737110.235590830557	1
2	4521	737316.365012307288	0
2	4544	740314.675560598592	1
2	4546	740314.675560598592	0
2	4569	741294.491164710664	1
2	4571	741294.491164710664	0
2	4582	741874.043521744705	1
2	4587	742195.118354654182	0
2	4590	742384.707549610873	1
2	4595	742473.855608105617	0
2	4618	746115.387725940468	1
2	4620	746115.387725940468	0
2	4643	747567.927917597191	1
2	4645	747567.927917597191	0
2	4651	749185.99724315067	1
2	4653	749185.99724315067	0
2	4656	749478.010892973103	1
2	4661	749490.651557155181	0
2	4702	757605.850838065657	1
2	4704	757605.850838065657	0
2	4710	758328.710230573328	1
2	4712	758328.710230573328	0
2	4719	760882.317508268144	1
2	4721	760882.317508268144	0
2	4741	762092.462657067922	1
2	4746	762144.187077927988	0
2	4749	762242.238784992119	1
2	4754	762432.350254429655	0
2	4760	762986.970228884445	1
2	4762	762986.970228884445	0
2	4803	771789.009914349705	1
2	4805	771789.009914349705	0
2	4812	775819.585954328678	1
2	4814	775819.585954328678	0
2	4829	778066.013745543518	1
2	4831	778066.013745543518	0
2	4834	778256.639628713062	1
2	4839	778341.438973754224	0
2	4871	784678.68860936109	1
2	4873	784678.68860936109	0
2	4880	786055.375212465456	1
2	4882	786055.375212465456	0
2	4888	787394.760033821358	1
2	4890	787394.760033821358	0
2	4896	788529.922706676198	1
2	4898	788529.922706676198	0
2	4921	790180.104573200312	1
2	4923	790180.104573200312	0
2	4955	796021.469278240832	1
2	4957	796021.469278240832	0
2	4973	801142.064722109628	1
2	4975	801142.064722109628	0
2	4978	801318.077469361093	1
2	4983	801493.764679411879	0
2	4989	802299.067923114243	1
2	4991	802299.067923114243	0
2	5006	805390.059574195081	1
2	5011	805453.771276724536	0
2	5022	806226.171681054121	1
2	5024	806226.171681054121	0
2	5058	816013.600680094463	1
2	5060	816013.600680094463	0
2	5066	818659.055909854801	1
2	5068	818659.055909854801	0
2	5083	820338.065044388255	1
2	5085	820338.065044388255	0
2	5100	822541.757754947267	1
2	5102	822541.757754947267	0
2	5117	825393.452238481097	1
2	5119	825393.452238481097	0
2	5125	825953.27308127106	1
2	5127	825953.27308127106	0
2	5161	839143.813620685894	1
2	5163	839143.813620685894	0
2	5170	841314.350454071497	1
2	5172	841314.350454071497	0
2	5196	847601.280182113207	1
2	5198	847601.280182113207	0
2	5205	849964.32499543909	1
2	5207	849964.32499543909	0
2	5210	850200.760587645623	1
2	5215	850299.73883177959	0
2	5235	853694.166259675876	1
2	5243	854017.526147821869	0
2	5255	856097.508038038744	1
2	5257	856097.508038038744	0
2	5263	857621.007956479234	1
2	5265	857621.007956479234	0
2	5280	859655.113921896548	1
2	5282	859655.113921896548	0
2	5305	862411.981102831466	1
2	5307	862411.981102831466	0
2	5318	863973.793905098059	1
2	5324	864226.95940206628	0
2	5327	864522.419861151174	1
2	5332	864532.829787842939	0
2	5346	866230.019375324481	1
2	5348	866230.019375324481	0
2	5380	871935.488542102207	1
2	5382	871935.488542102207	0
2	5398	876345.034195119549	1
2	5400	876345.034195119549	0
2	5406	877426.622408127952	1
2	5408	877426.622408127952	0
2	5423	880960.588160396005	1
2	5425	880960.588160396005	0
2	5439	881930.687448294573	1
2	5441	881930.687448294573	0
2	5465	886718.647880298991	1
2	5467	886718.647880298991	0
2	5473	887932.227337118014	1
2	5475	887932.227337118014	0
2	5500	894458.301866896798	1
2	5502	894458.301866896798	0
2	5517	899298.0695272096	1
2	5519	899298.0695272096	0
2	5526	900135.8906695454	1
2	5528	900135.8906695454	0
2	5534	901277.709082810377	1
2	5536	901277.709082810377	0
2	5568	906725.132500959101	1
2	5570	906725.132500959101	0
2	5576	907690.91466012928	1
2	5578	907690.91466012928	0
2	5585	909923.790472275814	1
2	5587	909923.790472275814	0
2	5610	913520.114565591764	1
2	5612	913520.114565591764	0
2	5623	914018.428769197214	1
2	5628	914026.710325902675	0
2	5652	918813.114669930488	1
2	5654	918813.114669930488	0
2	5661	921013.233116863349	1
2	5663	921013.233116863349	0
2	5687	929354.044080697417	1
2	5689	929354.044080697417	0
2	5696	930567.937649524324	1
2	5698	930567.937649524324	0
2	5704	930956.830371770331	1
2	5706	930956.830371770331	0
2	5712	932498.093407439598	1
2	5714	932498.093407439598	0
2	5729	933691.276312642491	1
2	5731	933691.276312642491	0
2	5734	933791.442599712862	1
2	5739	934000.501618325088	0
2	5787	940978.52504030695	1
2	5789	940978.52504030695	0
2	5805	945226.537514673243	1
2	5807	945226.537514673243	0
2	5823	952441.815550049193	1
2	5825	952441.815550049193	0
2	5832	955274.835808487642	1
2	5834	955274.835808487642	0
2	5845	955910.83330422682	1
2	5850	956043.837969082126	0
2	5857	957984.519727900273	1
2	5859	957984.519727900273	0
2	5879	960622.117905711348	1
2	5884	960782.3064526493	0
2	5898	962579.39474914562	1
2	5900	962579.39474914562	0
2	5907	963431.513876694367	1
2	5909	963431.513876694367	0
2	5932	967671.789666330886	1
2	5934	967671.789666330886	0
2	5949	969874.436798085225	1
2	5951	969874.436798085225	0
2	5954	969988.177509211278	1
2	5959	970119.293939352367	0
2	5974	973236.376552510739	1
2	5976	973236.376552510739	0
2	5995	974088.084058951946	1
2	5998	974289.924819779359	2
2	6003	974314.126237428696	1
2	6008	974559.163790570257	0
2	6042	985248.080406101491	1
2	6044	985248.080406101491	0
2	6047	985274.993148663731	1
2	6052	985564.518423616369	0
2	6059	988101.762984923445	1
2	6061	988101.762984923445	0
2	6092	992387.883208528645	1
2	6094	992387.883208528645	0
2	6101	993673.15627699109	1
2	6103	993673.15627699109	0
2	6109	994914.520397787795	1
2	6111	994914.520397787795	0
2	6143	1001211.836920704241	1
2	6145	1001211.836920704241	0
2	6152	1003668.753227354198	1
2	6154	1003668.753227354198	0
2	6177	1007740.903460530202	1
2	6179	1007740.903460530202	0
2	6186	1010128.156831704272	1
2	6188	1010128.156831704272	0
2	6200	1011339.108929922808	1
2	6205	1011459.760606470928	0
2	6211	1013861.299017535858	1
2	6213	1013861.299017535858	0
2	6228	1014880.462176433145	1
2	6230	1014880.462176433145	0
2	6262	1022304.911559084699	1
2	6264	1022304.911559084699	0
2	6271	1025142.173827159713	1
2	6273	1025142.173827159713	0
2	6276	1025192.945764138121	1
2	6281	1025414.982471341155	0
2	6310	1029674.291830210575	1
2	6315	1029751.012987027716	0
3	620	122684.737118516518	0
3	637	125141.021161814141	0
3	646	126351.515288701278	0
3	664	132052.528512949191	0
3	689	136357.162810084875	0
3	706	139620.395655352217	0
3	739	143012.130342000454	0
3	748	145321.572826044134	0
3	756	145957.959249800974	0
3	772	146699.215367642087	0
3	798	150106.226680281163	0
3	814	151110.09279829697	0
3	830	152450.935858621521	285.46391352552
3	847	154473.990815310526	0
3	864	156044.533186170495	0
3	880	157255.185905325085	73.71794921923
3	896	158715.673507152852	0
3	905	160838.35063718908	0
3	913	161875.201763919792	0
3	955	166169.652438622865	0
3	963	166657.657365893366	0
3	971	166979.47333828658	52.385610497462
3	980	168171.279772157692	0
3	1005	173938.486582033897	0
3	1022	174478.565076205953	90.287783530093
3	1063	177622.343827892652	0
3	1071	178524.472381412368	0
3	1095	179577.575369352618	60.082157507589
3	1103	179885.000149002188	53.740924217227
3	1112	180845.227433976952	0
3	1129	183271.618529232688	0
3	1137	183570.041189242237	0
3	1178	186028.385789126777	71.386388352562
3	1194	187682.925432584202	0
3	1202	187961.437414971397	33.539299840486
3	1210	188270.847289159556	265.26684876089
3	1219	190137.31242691503	0
3	1227	190697.156663384639	0
3	1245	197077.816500459375	0
3	1264	204983.750359304457	0
3	1282	211993.212695944541	0
3	1324	216980.364356179719	0
3	1332	217626.008879780735	0
3	1340	217942.297060017944	31.925591655597
3	1357	220394.585087419913	0
3	1382	222824.926826624513	0
3	1407	225518.660884051695	0
3	1423	226114.047187234081	29.778879005535
3	1431	227031.305708237443	0
3	1439	227361.960866859953	48.461624985447
3	1472	229781.397146264368	133.13231746942
3	1481	231456.380552842724	0
3	1497	232914.711646110437	0
3	1505	233326.730743210988	0
3	1514	235615.546574401428	0
3	1557	245185.804027807546	0
3	1565	245523.530050067742	0
3	1590	246771.79069494116	0
3	1598	247532.739871556997	0
3	1607	249642.570648585349	0
3	1615	249961.694136650555	89.3426751934
3	1643	261291.026335568538	0
3	1651	262013.703054454181	0
3	1669	269879.952738663564	0
3	1696	277435.499108654679	0
3	1705	279606.030453207745	0
3	1740	290651.263728652129	0
3	1757	291309.640397051205	492.71446687814
3	1773	292646.649676251593	0
3	1790	295376.632227339148	0
3	1798	296207.940781282012	0
3	1807	297684.663243625344	0
3	1850	306166.945528525149	0
3	1858	306827.814262555622	0
3	1866	308429.592199378725	0
3	1874	308867.295913270999	0
3	1908	314271.48781614937	0
3	1916	314794.543587699976	0
3	1925	315484.881844972485	0
3	1951	321377.981095757315	0
3	1976	324563.990381234232	0
3	1992	326558.590420181789	0
3	2001	328187.814764994001	0
3	2009	328489.701993176599	56.175795610735
3	2035	333747.613576016145	0
3	2051	335588.35300059769	0
3	2060	338566.248506324919	0
3	2078	344027.248827765319	0
3	2104	350105.491060496198	243.04200007883
3	2138	354330.367639452084	0
3	2146	356188.941768403497	0
3	2155	357121.880606430077	0
3	2163	357657.301561131734	0
3	2190	368575.021352596267	0
3	2207	370929.154716920756	0
3	2216	372602.995367750823	0
3	2242	380749.45268736902	0
3	2259	382221.637438799105	0
3	2268	384083.590346366074	0
3	2309	388239.584573565509	0
3	2325	389172.07474239797	0
3	2333	389709.727005596715	0
3	2342	390320.718931613145	0
3	2350	392180.958299413289	0
3	2376	396147.004537465616	0
3	2384	398398.329156292475	0
3	2420	410634.225147273678	237.64384955613
3	2429	412998.802107404155	0
3	2438	414119.366378057174	0
3	2455	418703.395020681017	0
3	2491	431503.277417552266	0
3	2499	431760.723714440556	71.142276171509
3	2524	433687.72423357262	613.53541652255
3	2533	437139.305992088857	0
3	2541	437452.123888269939	0
3	2576	444072.245246244716	0
3	2584	445884.5395560371	0
3	2593	447891.874552955461	0
3	2627	454063.375033261397	40.045842846452
3	2668	457096.088660542524	0
3	2676	457955.873445431676	0
3	2684	458609.990369054319	0
3	2701	459791.701362974458	0
3	2709	460366.354566986464	0
3	2717	460702.412812583368	304.67604437341
3	2734	463337.490442037095	0
3	2751	466408.698089259659	0
3	2776	469635.911415518575	248.62260905615
3	2793	471811.021097413597	0
3	2801	473233.726598533282	0
3	2818	474159.575269858694	0
3	2843	477636.394026474137	0
3	2867	479791.88600235406	0
3	2884	481351.10866825604	0
3	2892	482267.423718347399	0
3	2900	482773.740738947822	0
3	2909	483810.736128550334	0
3	2942	488062.83101784439	0
3	2951	489862.718173135618	0
3	2959	490567.77552292027	0
3	3000	494643.899597368928	11.884371885523
3	3011	494953.165967921865	94.652044639275
3	3017	495247.923494303451	298.77697629498
3	3033	497540.683232927636	0
3	3042	500243.766089464727	0
3	3069	508945.622390437967	0
3	3078	510943.978769864237	0
3	3095	514554.752684685088	0
3	3137	519635.572380155962	0
3	3145	519974.900336109382	0
3	3153	520269.740632229665	20.77006527975
3	3170	522516.367866788089	0
3	3179	525108.431559897597	0
3	3196	528969.657944896262	0
3	3229	532789.326947844449	0
3	3238	534372.011731127529	0
3	3246	535540.116508684578	0
3	3304	541268.159529852045	0
3	3312	541564.409065721995	200.02769172727
3	3320	542232.644205703337	0
3	3329	543406.185877929941	0
3	3337	544046.618741047261	0
3	3345	544378.882669328496	21.125621465739
3	3363	550844.031675395352	0
3	3397	555558.484129863157	0
3	3405	557681.123649634409	0
3	3414	559056.611447517592	0
3	3439	563742.972723811596	0
3	3448	566856.778212039289	0
3	3466	571943.919197562567	0
3	3484	576343.063604710083	0
3	3503	586043.42358789542	0
3	3520	590442.171422585643	0
3	3554	596688.026242282949	0
3	3563	597074.545938956926	51.114749680987
3	3571	598143.27791389679	0
3	3623	611199.731323831537	0
3	3631	611521.84761544814	0
3	3640	613238.623637563759	0
3	3648	613743.779754283328	0
3	3656	614440.809168413934	0
3	3682	618802.836419470267	0
3	3698	620304.791607773109	0
3	3715	623494.783993915364	0
3	3740	625102.666606600032	0
3	3757	627732.017771361754	256.80314902929
3	3773	628849.204799334882	0
3	3790	632285.436896174376	283.12169550783
3	3798	632590.626050053077	185.55128962978
3	3823	635920.421901120025	97.001278328572
3	3848	638586.883357903819	0
3	3857	639919.226872479028	0
3	3865	640249.104302126504	240.22545169198
3	3873	640827.393643808685	0
3	3915	645721.497616312642	240.92204160066
3	3923	646037.086944718863	127.99444689706
3	3939	647564.77085574386	0
3	3972	649340.183472648887	52.956782026665
3	3981	651083.366195588382	0
3	3989	651932.033327227152	0
3	3997	652228.525379606557	180.15756437973
3	4005	653436.018581801302	0
3	4023	659219.385377842141	0
3	4051	669675.110581522026	0
3	4084	673744.211100000881	538.88370332113
3	4101	675562.146275707905	0
3	4117	677386.17198373873	0
3	4125	677695.064763566089	38.445692700711
3	4133	677951.600997962999	43.711901267766
3	4150	680959.07045200398	0
3	4159	683449.969610697309	0
3	4193	687447.440465300669	0
3	4201	688490.554177559691	0
3	4209	688730.777619420957	156.5602071948
3	4243	695502.88942544743	0
3	4260	697449.409039968686	97.257370339395
3	4268	697719.339177899575	120.50456878087
3	4301	700945.443777838896	325.33292417563
3	4321	703925.038049858253	122.1450012602
3	4326	704272.188664134934	375.93438871317
3	4334	704609.429072161221	0
3	4351	707199.432299028632	0
3	4368	710151.686178316396	0
3	4385	713310.519331081756	0
3	4394	716406.831498736854	0
3	4412	721168.483628318262	0
3	4438	726892.774775341311	0
3	4446	728190.960856604655	0
3	4472	732922.470085485531	0
3	4488	734335.721413772355	0
3	4529	737983.686321413251	0
3	4538	739348.434930653504	0
3	4554	740575.809803848702	146.29509448957
3	4562	740947.989145537376	0
3	4579	741861.250948270884	0
3	4603	743624.097874447389	0
3	4612	745274.79319310921	0
3	4628	746647.688489131262	0
3	4636	746983.812234512831	250.55118213391
3	4669	749736.677939248001	220.45174254222
3	4678	750824.074722341437	0
3	4686	752771.796619601798	0
3	4695	753481.632170598521	0
3	4729	761601.248907533203	0
3	4737	761877.578584234795	6.870603172546
3	4771	765011.274011879939	0
3	4779	766103.670876174545	0
3	4787	766431.230879948275	300.96084628729
3	4795	766735.507681226562	51.890330761546
3	4822	776125.462756389157	119.59523644083
3	4847	779754.410435288916	0
3	4856	781839.361340841024	0
3	4864	782395.903805762208	0
3	4906	788864.369069205194	0
3	4915	789309.776550572195	0
3	4931	791042.734627457882	0
3	4940	792130.074733739579	0
3	4948	794186.359763241403	0
3	4966	800022.141876495007	0
3	5000	805122.636938248361	0
3	5016	805766.94198662481	400.02723743048
3	5032	806520.36790664128	129.58213432806
3	5041	809204.363917842659	0
3	5050	810412.927094845509	0
3	5077	819802.155871955686	0
3	5094	822169.466608131112	0
3	5110	824056.055557791282	0
3	5135	826856.943863138051	0
3	5144	829691.764055045233	0
3	5152	829949.619952385398	206.29106867712
3	5181	843213.325822158141	0
3	5189	845518.311424516267	0
3	5223	851733.888186784793	0
3	5232	853679.376182268197	0
3	5248	854327.972951857547	420.64986996598
3	5274	858403.138621321367	0
3	5290	860146.313915124549	0
3	5299	861840.685501786458	0
3	5315	863897.121918761836	0
3	5340	865846.96875284918	0
3	5357	868354.568067158885	0
3	5365	868663.137884745422	252.13520522435
3	5373	869700.820831936277	0
3	5391	875719.10923944856	0
3	5417	879762.940956438216	0
3	5433	881464.164798965114	0
3	5450	884387.731952776526	0
3	5459	886087.396775106935	0
3	5484	890430.892277531938	0
3	5493	891191.00784687309	0
3	5511	897749.320462614176	0
3	5545	903306.699430096809	0
3	5553	903951.395952714046	0
3	5561	905058.293174732832	0
3	5595	910881.49443484219	0
3	5604	912051.644612589864	0
3	5620	913790.276198279583	63.525782857257
3	5637	916982.630044703117	0
3	5645	917601.598536504555	0
3	5671	923008.613990300352	0
3	5680	924993.0680918517	0
3	5723	933291.505921287097	0
3	5747	934611.406560709802	0
3	5755	935418.971233533323	0
3	5764	936301.699138597393	0
3	5772	937761.877073633838	0
3	5780	938429.053100987589	0
3	5798	944589.003633955937	0
3	5816	948990.227401038572	0
3	5842	955722.999748787387	0
3	5867	959533.039917766716	0
3	5876	960469.942619672769	0
3	5892	961917.899559696699	0
3	5917	964529.98818554043	0
3	5926	966507.278115027313	0
3	5942	968029.999612090729	323.80313307645
3	5967	971186.964339810292	0
3	5984	973507.396385161596	49.201517540881
3	5992	974056.346029429203	0
3	6017	976793.957031324691	0
3	6026	978339.859604902414	0
3	6034	978579.239280904607	86.601643006403
3	6069	989354.7681820668	0
3	6077	989623.605505326243	29.545138249752
3	6086	991288.138747307364	0
3	6119	995902.807107348951	0
3	6128	997159.605791442135	0
3	6136	998519.829296920326	0
3	6162	1004613.331587130232	0
3	6171	1007161.684764486807	0
3	6197	1011191.838306381953	0
3	6222	1014346.087367056345	0
3	6238	1015207.881606533683	39.490176799618
3	6247	1017802.762062493761	0
3	6255	1018909.762108010576	0
3	6290	1026484.997277761596	0
3	6298	1028758.377746230369	0
3	6307	1029434.512677301354	0
3	6324	1033591.158746489913	0
4	618	122684.737118516518	1
4	620	122684.737118516518	0
4	635	125141.021161814141	1
4	637	125141.021161814141	0
4	644	126351.515288701278	1
4	646	126351.515288701278	0
4	662	132052.528512949191	1
4	664	132052.528512949191	0
4	687	136357.162810084875	1
4	689	136357.162810084875	0
4	704	139620.395655352217	1
4	706	139620.395655352217	0
4	737	143012.130342000454	1
4	739	143012.130342000454	0
4	746	145321.572826044134	1
4	748	145321.572826044134	0
4	754	145957.959249800974	1
4	756	145957.959249800974	0
4	770	146699.215367642087	1
4	772	146699.215367642087	0
4	796	150106.226680281163	1
4	798	150106.226680281163	0
4	812	151110.09279829697	1
4	814	151110.09279829697	0
4	825	152165.471945095999	1
4	830	152450.935858621521	0
4	845	154473.990815310526	1
4	847	154473.990815310526	0
4	862	156044.533186170495	1
4	864	156044.533186170495	0
4	875	157181.467956105855	1
4	880	157255.185905325085	0
4	894	158715.673507152852	1
4	896	158715.673507152852	0
4	903	160838.35063718908	1
4	905	160838.35063718908	0
4	911	161875.201763919792	1
4	913	161875.201763919792	0
4	953	166169.652438622865	1
4	955	166169.652438622865	0
4	961	166657.657365893366	1
4	963	166657.657365893366	0
4	966	166927.087727789118	1
4	971	166979.47333828658	0
4	978	168171.279772157692	1
4	980	168171.279772157692	0
4	1003	173938.486582033897	1
4	1005	173938.486582033897	0
4	1017	174388.27729267586	1
4	1022	174478.565076205953	0
4	1061	177622.343827892652	1
4	1063	177622.343827892652	0
4	1069	178524.472381412368	1
4	1071	178524.472381412368	0
4	1090	179517.493211845029	1
4	1095	179577.575369352618	0
4	1098	179831.259224784961	1
4	1103	179885.000149002188	0
4	1110	180845.227433976952	1
4	1112	180845.227433976952	0
4	1127	183271.618529232688	1
4	1129	183271.618529232688	0
4	1135	183570.041189242237	1
4	1137	183570.041189242237	0
4	1172	185956.999400774215	1
4	1178	186028.385789126777	0
4	1192	187682.925432584202	1
4	1194	187682.925432584202	0
4	1197	187927.898115130911	1
4	1202	187961.437414971397	0
4	1205	188005.580440398664	1
4	1210	188270.847289159556	0
4	1217	190137.31242691503	1
4	1219	190137.31242691503	0
4	1225	190697.156663384639	1
4	1227	190697.156663384639	0
4	1243	197077.816500459375	1
4	1245	197077.816500459375	0
4	1262	204983.750359304457	1
4	1264	204983.750359304457	0
4	1280	211993.212695944541	1
4	1282	211993.212695944541	0
4	1322	216980.364356179719	1
4	1324	216980.364356179719	0
4	1330	217626.008879780735	1
4	1332	217626.008879780735	0
4	1335	217910.371468362347	1
4	1340	217942.297060017944	0
4	1355	220394.585087419913	1
4	1357	220394.585087419913	0
4	1380	222824.926826624513	1
4	1382	222824.926826624513	0
4	1405	225518.660884051695	1
4	1407	225518.660884051695	0
4	1418	226084.268308228546	1
4	1423	226114.047187234081	0
4	1429	227031.305708237443	1
4	1431	227031.305708237443	0
4	1434	227313.499241874506	1
4	1439	227361.960866859953	0
4	1467	229648.264828794945	1
4	1472	229781.397146264368	0
4	1479	231456.380552842724	1
4	1481	231456.380552842724	0
4	1495	232914.711646110437	1
4	1497	232914.711646110437	0
4	1503	233326.730743210988	1
4	1505	233326.730743210988	0
4	1512	235615.546574401428	1
4	1514	235615.546574401428	0
4	1555	245185.804027807546	1
4	1557	245185.804027807546	0
4	1563	245523.530050067742	1
4	1565	245523.530050067742	0
4	1588	246771.79069494116	1
4	1590	246771.79069494116	0
4	1596	247532.739871556997	1
4	1598	247532.739871556997	0
4	1605	249642.570648585349	1
4	1607	249642.570648585349	0
4	1610	249872.351461457155	1
4	1615	249961.694136650555	0
4	1641	261291.026335568538	1
4	1643	261291.026335568538	0
4	1649	262013.703054454181	1
4	1651	262013.703054454181	0
4	1667	269879.952738663564	1
4	1669	269879.952738663564	0
4	1694	277435.499108654679	1
4	1696	277435.499108654679	0
4	1703	279606.030453207745	1
4	1705	279606.030453207745	0
4	1738	290651.263728652129	1
4	1740	290651.263728652129	0
4	1746	290816.925930173063	1
4	1757	291309.640397051205	0
4	1771	292646.649676251593	1
4	1773	292646.649676251593	0
4	1788	295376.632227339148	1
4	1790	295376.632227339148	0
4	1796	296207.940781282012	1
4	1798	296207.940781282012	0
4	1805	297684.663243625344	1
4	1807	297684.663243625344	0
4	1848	306166.945528525149	1
4	1850	306166.945528525149	0
4	1856	306827.814262555622	1
4	1858	306827.814262555622	0
4	1864	308429.592199378725	1
4	1866	308429.592199378725	0
4	1872	308867.295913270999	1
4	1874	308867.295913270999	0
4	1906	314271.48781614937	1
4	1908	314271.48781614937	0
4	1914	314794.543587699976	1
4	1916	314794.543587699976	0
4	1923	315484.881844972485	1
4	1925	315484.881844972485	0
4	1949	321377.981095757315	1
4	1951	321377.981095757315	0
4	1974	324563.990381234232	1
4	1976	324563.990381234232	0
4	1990	326558.590420181789	1
4	1992	326558.590420181789	0
4	1999	328187.814764994001	1
4	2001	328187.814764994001	0
4	2004	328433.526197565864	1
4	2009	328489.701993176599	0
4	2033	333747.613576016145	1
4	2035	333747.613576016145	0
4	2049	335588.35300059769	1
4	2051	335588.35300059769	0
4	2058	338566.248506324919	1
4	2060	338566.248506324919	0
4	2076	344027.248827765319	1
4	2078	344027.248827765319	0
4	2099	349862.44906041737	1
4	2104	350105.491060496198	0
4	2136	354330.367639452084	1
4	2138	354330.367639452084	0
4	2144	356188.941768403497	1
4	2146	356188.941768403497	0
4	2153	357121.880606430077	1
4	2155	357121.880606430077	0
4	2161	357657.301561131734	1
4	2163	357657.301561131734	0
4	2188	368575.021352596267	1
4	2190	368575.021352596267	0
4	2205	370929.154716920756	1
4	2207	370929.154716920756	0
4	2214	372602.995367750823	1
4	2216	372602.995367750823	0
4	2240	380749.45268736902	1
4	2242	380749.45268736902	0
4	2257	382221.637438799105	1
4	2259	382221.637438799105	0
4	2266	384083.590346366074	1
4	2268	384083.590346366074	0
4	2307	388239.584573565509	1
4	2309	388239.584573565509	0
4	2323	389172.07474239797	1
4	2325	389172.07474239797	0
4	2331	389709.727005596715	1
4	2333	389709.727005596715	0
4	2340	390320.718931613145	1
4	2342	390320.718931613145	0
4	2348	392180.958299413289	1
4	2350	392180.958299413289	0
4	2374	396147.004537465616	1
4	2376	396147.004537465616	0
4	2382	398398.329156292475	1
4	2384	398398.329156292475	0
4	2415	410396.581297717547	1
4	2420	410634.225147273678	0
4	2427	412998.802107404155	1
4	2429	412998.802107404155	0
4	2436	414119.366378057174	1
4	2438	414119.366378057174	0
4	2453	418703.395020681017	1
4	2455	418703.395020681017	0
4	2489	431503.277417552266	1
4	2491	431503.277417552266	0
4	2494	431689.581438269047	1
4	2499	431760.723714440556	0
4	2511	433074.188817050072	1
4	2524	433687.72423357262	0
4	2531	437139.305992088857	1
4	2533	437139.305992088857	0
4	2539	437452.123888269939	1
4	2541	437452.123888269939	0
4	2574	444072.245246244716	1
4	2576	444072.245246244716	0
4	2582	445884.5395560371	1
4	2584	445884.5395560371	0
4	2591	447891.874552955461	1
4	2593	447891.874552955461	0
4	2622	454023.329190414945	1
4	2627	454063.375033261397	0
4	2666	457096.088660542524	1
4	2668	457096.088660542524	0
4	2674	457955.873445431676	1
4	2676	457955.873445431676	0
4	2682	458609.990369054319	1
4	2684	458609.990369054319	0
4	2699	459791.701362974458	1
4	2701	459791.701362974458	0
4	2707	460366.354566986464	1
4	2709	460366.354566986464	0
4	2712	460397.736768209954	1
4	2717	460702.412812583368	0
4	2732	463337.490442037095	1
4	2734	463337.490442037095	0
4	2749	466408.698089259659	1
4	2751	466408.698089259659	0
4	2771	469387.288806462425	1
4	2776	469635.911415518575	0
4	2791	471811.021097413597	1
4	2793	471811.021097413597	0
4	2799	473233.726598533282	1
4	2801	473233.726598533282	0
4	2816	474159.575269858694	1
4	2818	474159.575269858694	0
4	2841	477636.394026474137	1
4	2843	477636.394026474137	0
4	2865	479791.88600235406	1
4	2867	479791.88600235406	0
4	2882	481351.10866825604	1
4	2884	481351.10866825604	0
4	2890	482267.423718347399	1
4	2892	482267.423718347399	0
4	2898	482773.740738947822	1
4	2900	482773.740738947822	0
4	2907	483810.736128550334	1
4	2909	483810.736128550334	0
4	2940	488062.83101784439	1
4	2942	488062.83101784439	0
4	2949	489862.718173135618	1
4	2951	489862.718173135618	0
4	2957	490567.77552292027	1
4	2959	490567.77552292027	0
4	2995	494632.015225483405	1
4	3000	494643.899597368928	0
4	3003	494858.51392328259	1
4	3006	494949.146518008467	2
4	3011	494953.165967921865	1
4	3017	495247.923494303451	0
4	3031	497540.683232927636	1
4	3033	497540.683232927636	0
4	3040	500243.766089464727	1
4	3042	500243.766089464727	0
4	3067	508945.622390437967	1
4	3069	508945.622390437967	0
4	3076	510943.978769864237	1
4	3078	510943.978769864237	0
4	3093	514554.752684685088	1
4	3095	514554.752684685088	0
4	3135	519635.572380155962	1
4	3137	519635.572380155962	0
4	3143	519974.900336109382	1
4	3145	519974.900336109382	0
4	3148	520248.970566949915	1
4	3153	520269.740632229665	0
4	3168	522516.367866788089	1
4	3170	522516.367866788089	0
4	3177	525108.431559897597	1
4	3179	525108.431559897597	0
4	3194	528969.657944896262	1
4	3196	528969.657944896262	0
4	3227	532789.326947844449	1
4	3229	532789.326947844449	0
4	3236	534372.011731127529	1
4	3238	534372.011731127529	0
4	3244	535540.116508684578	1
4	3246	535540.116508684578	0
4	3302	541268.159529852045	1
4	3304	541268.159529852045	0
4	3307	541364.38137399472	1
4	3312	541564.409065721995	0
4	3318	542232.644205703337	1
4	3320	542232.644205703337	0
4	3327	543406.185877929941	1
4	3329	543406.185877929941	0
4	3335	544046.618741047261	1
4	3337	544046.618741047261	0
4	3340	544357.757047862757	1
4	3345	544378.882669328496	0
4	3361	550844.031675395352	1
4	3363	550844.031675395352	0
4	3395	555558.484129863157	1
4	3397	555558.484129863157	0
4	3403	557681.123649634409	1
4	3405	557681.123649634409	0
4	3412	559056.611447517592	1
4	3414	559056.611447517592	0
4	3437	563742.972723811596	1
4	3439	563742.972723811596	0
4	3446	566856.778212039289	1
4	3448	566856.778212039289	0
4	3464	571943.919197562567	1
4	3466	571943.919197562567	0
4	3482	576343.063604710083	1
4	3484	576343.063604710083	0
4	3501	586043.42358789542	1
4	3503	586043.42358789542	0
4	3518	590442.171422585643	1
4	3520	590442.171422585643	0
4	3552	596688.026242282949	1
4	3554	596688.026242282949	0
4	3558	597023.431189275939	1
4	3563	597074.545938956926	0
4	3569	598143.27791389679	1
4	3571	598143.27791389679	0
4	3621	611199.731323831537	1
4	3623	611199.731323831537	0
4	3629	611521.84761544814	1
4	3631	611521.84761544814	0
4	3638	613238.623637563759	1
4	3640	613238.623637563759	0
4	3646	613743.779754283328	1
4	3648	613743.779754283328	0
4	3654	614440.809168413934	1
4	3656	614440.809168413934	0
4	3680	618802.836419470267	1
4	3682	618802.836419470267	0
4	3696	620304.791607773109	1
4	3698	620304.791607773109	0
4	3713	623494.783993915364	1
4	3715	623494.783993915364	0
4	3738	625102.666606600032	1
4	3740	625102.666606600032	0
4	3752	627475.214622332464	1
4	3757	627732.017771361754	0
4	3771	628849.204799334882	1
4	3773	628849.204799334882	0
4	3785	632002.315200666548	1
4	3790	632285.436896174376	0
4	3793	632405.074760423294	1
4	3798	632590.626050053077	0
4	3818	635823.420622791453	1
4	3823	635920.421901120025	0
4	3846	638586.883357903819	1
4	3848	638586.883357903819	0
4	3855	639919.226872479028	1
4	3857	639919.226872479028	0
4	3860	640008.878850434523	1
4	3865	640249.104302126504	0
4	3871	640827.393643808685	1
4	3873	640827.393643808685	0
4	3910	645480.575574711982	1
4	3915	645721.497616312642	0
4	3918	645909.092497821801	1
4	3923	646037.086944718863	0
4	3937	647564.77085574386	1
4	3939	647564.77085574386	0
4	3967	649287.226690622222	1
4	3972	649340.183472648887	0
4	3979	651083.366195588382	1
4	3981	651083.366195588382	0
4	3987	651932.033327227152	1
4	3989	651932.033327227152	0
4	3992	652048.367815226823	1
4	3997	652228.525379606557	0
4	4003	653436.018581801302	1
4	4005	653436.018581801302	0
4	4021	659219.385377842141	1
4	4023	659219.385377842141	0
4	4049	669675.110581522026	1
4	4051	669675.110581522026	0
4	4071	673205.327396679753	1
4	4084	673744.211100000881	0
4	4099	675562.146275707905	1
4	4101	675562.146275707905	0
4	4115	677386.17198373873	1
4	4117	677386.17198373873	0
4	4120	677656.619070865378	1
4	4125	677695.064763566089	0
4	4128	677907.889096695233	1
4	4133	677951.600997962999	0
4	4148	680959.07045200398	1
4	4150	680959.07045200398	0
4	4157	683449.969610697309	1
4	4159	683449.969610697309	0
4	4191	687447.440465300669	1
4	4193	687447.440465300669	0
4	4199	688490.554177559691	1
4	4201	688490.554177559691	0
4	4204	688574.217412226158	1
4	4209	688730.777619420957	0
4	4241	695502.88942544743	1
4	4243	695502.88942544743	0
4	4255	697352.151669629291	1
4	4260	697449.409039968686	0
4	4263	697598.834609118707	1
4	4268	697719.339177899575	0
4	4296	700620.110853663265	1
4	4301	700945.443777838896	0
4	4313	703802.893048598054	1
4	4316	703896.254275421765	2
4	4321	703925.038049858253	1
4	4326	704272.188664134934	0
4	4332	704609.429072161221	1
4	4334	704609.429072161221	0
4	4349	707199.432299028632	1
4	4351	707199.432299028632	0
4	4366	710151.686178316396	1
4	4368	710151.686178316396	0
4	4383	713310.519331081756	1
4	4385	713310.519331081756	0
4	4392	716406.831498736854	1
4	4394	716406.831498736854	0
4	4410	721168.483628318262	1
4	4412	721168.483628318262	0
4	4436	726892.774775341311	1
4	4438	726892.774775341311	0
4	4444	728190.960856604655	1
4	4446	728190.960856604655	0
4	4470	732922.470085485531	1
4	4472	732922.470085485531	0
4	4486	734335.721413772355	1
4	4488	734335.721413772355	0
4	4527	737983.686321413251	1
4	4529	737983.686321413251	0
4	4536	739348.434930653504	1
4	4538	739348.434930653504	0
4	4549	740429.514709359128	1
4	4554	740575.809803848702	0
4	4560	740947.989145537376	1
4	4562	740947.989145537376	0
4	4577	741861.250948270884	1
4	4579	741861.250948270884	0
4	4601	743624.097874447389	1
4	4603	743624.097874447389	0
4	4610	745274.79319310921	1
4	4612	745274.79319310921	0
4	4626	746647.688489131262	1
4	4628	746647.688489131262	0
4	4631	746733.261052378926	1
4	4636	746983.812234512831	0
4	4664	749516.226196705777	1
4	4669	749736.677939248001	0
4	4676	750824.074722341437	1
4	4678	750824.074722341437	0
4	4684	752771.796619601798	1
4	4686	752771.796619601798	0
4	4693	753481.632170598521	1
4	4695	753481.632170598521	0
4	4727	761601.248907533203	1
4	4729	761601.248907533203	0
4	4732	761870.707981062249	1
4	4737	761877.578584234795	0
4	4769	765011.274011879939	1
4	4771	765011.274011879939	0
4	4777	766103.670876174545	1
4	4779	766103.670876174545	0
4	4782	766130.270033660982	1
4	4787	766431.230879948275	0
4	4790	766683.617350465016	1
4	4795	766735.507681226562	0
4	4817	776005.867519948331	1
4	4822	776125.462756389157	0
4	4845	779754.410435288916	1
4	4847	779754.410435288916	0
4	4854	781839.361340841024	1
4	4856	781839.361340841024	0
4	4862	782395.903805762208	1
4	4864	782395.903805762208	0
4	4904	788864.369069205194	1
4	4906	788864.369069205194	0
4	4913	789309.776550572195	1
4	4915	789309.776550572195	0
4	4929	791042.734627457882	1
4	4931	791042.734627457882	0
4	4938	792130.074733739579	1
4	4940	792130.074733739579	0
4	4946	794186.359763241403	1
4	4948	794186.359763241403	0
4	4964	800022.141876495007	1
4	4966	800022.141876495007	0
4	4998	805122.636938248361	1
4	5000	805122.636938248361	0
4	5003	805366.91474919433	1
4	5016	805766.94198662481	0
4	5027	806390.785772313216	1
4	5032	806520.36790664128	0
4	5039	809204.363917842659	1
4	5041	809204.363917842659	0
4	5048	810412.927094845509	1
4	5050	810412.927094845509	0
4	5075	819802.155871955686	1
4	5077	819802.155871955686	0
4	5092	822169.466608131112	1
4	5094	822169.466608131112	0
4	5108	824056.055557791282	1
4	5110	824056.055557791282	0
4	5133	826856.943863138051	1
4	5135	826856.943863138051	0
4	5142	829691.764055045233	1
4	5144	829691.764055045233	0
4	5147	829743.328883708278	1
4	5152	829949.619952385398	0
4	5179	843213.325822158141	1
4	5181	843213.325822158141	0
4	5187	845518.311424516267	1
4	5189	845518.311424516267	0
4	5221	851733.888186784793	1
4	5223	851733.888186784793	0
4	5230	853679.376182268197	1
4	5232	853679.376182268197	0
4	5238	853907.323081891565	1
4	5248	854327.972951857547	0
4	5272	858403.138621321367	1
4	5274	858403.138621321367	0
4	5288	860146.313915124549	1
4	5290	860146.313915124549	0
4	5297	861840.685501786458	1
4	5299	861840.685501786458	0
4	5313	863897.121918761836	1
4	5315	863897.121918761836	0
4	5338	865846.96875284918	1
4	5340	865846.96875284918	0
4	5355	868354.568067158885	1
4	5357	868354.568067158885	0
4	5360	868411.002679521069	1
4	5365	868663.137884745422	0
4	5371	869700.820831936277	1
4	5373	869700.820831936277	0
4	5389	875719.10923944856	1
4	5391	875719.10923944856	0
4	5415	879762.940956438216	1
4	5417	879762.940956438216	0
4	5431	881464.164798965114	1
4	5433	881464.164798965114	0
4	5448	884387.731952776526	1
4	5450	884387.731952776526	0
4	5457	886087.396775106935	1
4	5459	886087.396775106935	0
4	5482	890430.892277531938	1
4	5484	890430.892277531938	0
4	5491	891191.00784687309	1
4	5493	891191.00784687309	0
4	5509	897749.320462614176	1
4	5511	897749.320462614176	0
4	5543	903306.699430096809	1
4	5545	903306.699430096809	0
4	5551	903951.395952714046	1
4	5553	903951.395952714046	0
4	5559	905058.293174732832	1
4	5561	905058.293174732832	0
4	5593	910881.49443484219	1
4	5595	910881.49443484219	0
4	5602	912051.644612589864	1
4	5604	912051.644612589864	0
4	5615	913726.750415422326	1
4	5620	913790.276198279583	0
4	5635	916982.630044703117	1
4	5637	916982.630044703117	0
4	5643	917601.598536504555	1
4	5645	917601.598536504555	0
4	5669	923008.613990300352	1
4	5671	923008.613990300352	0
4	5678	924993.0680918517	1
4	5680	924993.0680918517	0
4	5721	933291.505921287097	1
4	5723	933291.505921287097	0
4	5745	934611.406560709802	1
4	5747	934611.406560709802	0
4	5753	935418.971233533323	1
4	5755	935418.971233533323	0
4	5762	936301.699138597393	1
4	5764	936301.699138597393	0
4	5770	937761.877073633838	1
4	5772	937761.877073633838	0
4	5778	938429.053100987589	1
4	5780	938429.053100987589	0
4	5796	944589.003633955937	1
4	5798	944589.003633955937	0
4	5814	948990.227401038572	1
4	5816	948990.227401038572	0
4	5840	955722.999748787387	1
4	5842	955722.999748787387	0
4	5865	959533.039917766716	1
4	5867	959533.039917766716	0
4	5874	960469.942619672769	1
4	5876	960469.942619672769	0
4	5890	961917.899559696699	1
4	5892	961917.899559696699	0
4	5915	964529.98818554043	1
4	5917	964529.98818554043	0
4	5924	966507.278115027313	1
4	5926	966507.278115027313	0
4	5937	967706.196479014281	1
4	5942	968029.999612090729	0
4	5965	971186.964339810292	1
4	5967	971186.964339810292	0
4	5979	973458.194867620715	1
4	5984	973507.396385161596	0
4	5990	974056.346029429203	1
4	5992	974056.346029429203	0
4	6015	976793.957031324691	1
4	6017	976793.957031324691	0
4	6024	978339.859604902414	1
4	6026	978339.859604902414	0
4	6029	978492.637637898204	1
4	6034	978579.239280904607	0
4	6067	989354.7681820668	1
4	6069	989354.7681820668	0
4	6072	989594.060367076491	1
4	6077	989623.605505326243	0
4	6084	991288.138747307364	1
4	6086	991288.138747307364	0
4	6117	995902.807107348951	1
4	6119	995902.807107348951	0
4	6126	997159.605791442135	1
4	6128	997159.605791442135	0
4	6134	998519.829296920326	1
4	6136	998519.829296920326	0
4	6160	1004613.331587130232	1
4	6162	1004613.331587130232	0
4	6169	1007161.684764486807	1
4	6171	1007161.684764486807	0
4	6195	1011191.838306381953	1
4	6197	1011191.838306381953	0
4	6220	1014346.087367056345	1
4	6222	1014346.087367056345	0
4	6233	1015168.391429734065	1
4	6238	1015207.881606533683	0
4	6245	1017802.762062493761	1
4	6247	1017802.762062493761	0
4	6253	1018909.762108010576	1
4	6255	1018909.762108010576	0
4	6288	1026484.997277761596	1
4	6290	1026484.997277761596	0
4	6296	1028758.377746230369	1
4	6298	1028758.377746230369	0
4	6305	1029434.512677301354	1
4	6307	1029434.512677301354	0
4	6322	1033591.158746489913	1
4	6324	1033591.158746489913	0
5	625	123000	1
5	642	126000	1
5	659	129000	1
5	660	132000	0
5	677	135000	1
5	694	138000	1
5	711	141000	1
5	744	144000	3
5	777	147000	1
5	794	150000	2
5	835	153000	2
5	860	156000	2
5	898	159000	2
5	915	162000	0
5	951	165000	4
5	976	168000	0
5	993	171000	1
5	1007	174000	1
5	1059	177000	5
5	1105	180000	2
5	1125	183000	1
5	1174	186000	3
5	1215	189000	2
5	1232	192000	0
5	1241	195000	1
5	1250	198000	0
5	1251	201000	0
5	1260	204000	1
5	1269	207000	0
5	1278	210000	1
5	1292	213000	0
5	1312	216000	3
5	1353	219000	2
5	1367	222000	0
5	1403	225000	4
5	1444	228000	1
5	1477	231000	3
5	1510	234000	1
5	1519	237000	0
5	1520	240000	0
5	1542	243000	2
5	1575	246000	2
5	1603	249000	2
5	1620	252000	0
5	1621	255000	0
5	1630	258000	1
5	1639	261000	1
5	1656	264000	0
5	1665	267000	1
5	1671	270000	0
5	1675	273000	0
5	1692	276000	2
5	1701	279000	0
5	1710	282000	0
5	1711	285000	0
5	1728	288000	2
5	1753	291000	1
5	1786	294000	3
5	1803	297000	0
5	1812	300000	0
5	1821	303000	1
5	1846	306000	3
5	1876	309000	0
5	1896	312000	2
5	1918	315000	1
5	1938	318000	1
5	1947	321000	1
5	1972	324000	2
5	1997	327000	1
5	2014	330000	0
5	2031	333000	2
5	2056	336000	1
5	2065	339000	0
5	2074	342000	1
5	2083	345000	0
5	2092	348000	1
5	2109	351000	1
5	2131	354000	2
5	2151	357000	1
5	2168	360000	0
5	2169	363000	0
5	2178	366000	1
5	2200	369000	1
5	2212	372000	1
5	2221	375000	0
5	2230	378000	1
5	2244	381000	1
5	2264	384000	1
5	2305	387000	4
5	2335	390000	1
5	2363	393000	1
5	2372	396000	1
5	2389	399000	0
5	2390	402000	0
5	2391	405000	0
5	2400	408000	1
5	2425	411000	2
5	2434	414000	0
5	2451	417000	1
5	2460	420000	0
5	2461	423000	0
5	2462	426000	0
5	2479	429000	2
5	2501	432000	1
5	2529	435000	2
5	2546	438000	0
5	2555	441000	1
5	2572	444000	2
5	2589	447000	0
5	2598	450000	0
5	2607	453000	1
5	2653	456000	4
5	2689	459000	2
5	2722	462000	1
5	2739	465000	1
5	2756	468000	1
5	2789	471000	3
5	2814	474000	1
5	2836	477000	1
5	2869	480000	3
5	2902	483000	1
5	2930	486000	2
5	2947	489000	1
5	2988	492000	3
5	3013	495000	1
5	3038	498000	1
5	3047	501000	0
5	3048	504000	0
5	3057	507000	1
5	3074	510000	1
5	3091	513000	1
5	3113	516000	1
5	3130	519000	2
5	3166	522000	2
5	3175	525000	0
5	3192	528000	1
5	3217	531000	2
5	3234	534000	1
5	3251	537000	0
5	3284	540000	4
5	3325	543000	2
5	3350	546000	0
5	3359	549000	1
5	3373	552000	0
5	3385	555000	2
5	3410	558000	1
5	3427	561000	1
5	3441	564000	1
5	3450	567000	0
5	3462	570000	1
5	3479	573000	1
5	3480	576000	0
5	3489	579000	0
5	3490	582000	0
5	3499	585000	1
5	3516	588000	1
5	3525	591000	0
5	3550	594000	3
5	3556	597000	0
5	3576	600000	0
5	3577	603000	0
5	3578	606000	0
5	3595	609000	2
5	3636	612000	3
5	3666	615000	0
5	3678	618000	2
5	3703	621000	1
5	3725	624000	1
5	3745	627000	2
5	3778	630000	2
5	3803	633000	1
5	3825	636000	2
5	3853	639000	2
5	3886	642000	1
5	3903	645000	2
5	3949	648000	2
5	3977	651000	3
5	4010	654000	0
5	4019	657000	1
5	4028	660000	0
5	4029	663000	0
5	4035	666000	0
5	4039	669000	1
5	4064	672000	2
5	4097	675000	3
5	4135	678000	1
5	4152	681000	1
5	4172	684000	0
5	4189	687000	3
5	4214	690000	0
5	4228	693000	1
5	4248	696000	2
5	4273	699000	1
5	4306	702000	3
5	4339	705000	1
5	4356	708000	1
5	4373	711000	1
5	4390	714000	1
5	4399	717000	0
5	4408	720000	1
5	4425	723000	1
5	4434	726000	1
5	4459	729000	1
5	4468	732000	1
5	4493	735000	1
5	4531	738000	4
5	4564	741000	1
5	4608	744000	3
5	4638	747000	1
5	4671	750000	3
5	4688	753000	0
5	4700	756000	0
5	4717	759000	2
5	4739	762000	1
5	4767	765000	3
5	4800	768000	0
5	4801	771000	0
5	4810	774000	1
5	4827	777000	1
5	4849	780000	2
5	4869	783000	0
5	4878	786000	1
5	4908	789000	3
5	4936	792000	1
5	4953	795000	0
5	4962	798000	1
[...]
6	5830	954000	0
6	5855	957000	1
6	5872	960000	1
6	5905	963000	2
6	5922	966000	1
6	5947	969000	2
6	5972	972000	1
6	6013	975000	2
6	6022	978000	1
6	6039	981000	2
6	6040	984000	0
6	6057	987000	0
6	6079	990000	1
6	6099	993000	2
6	6121	996000	0
6	6141	999000	3
6	6150	1002000	0
6	6167	1005000	1
6	6181	1008000	1
6	6193	1011000	0
6	6215	1014000	1
6	6243	1017000	2
6	6260	1020000	2
6	6269	1023000	0
6	6286	1026000	0
6	6300	1029000	1
6	6320	1032000	2
6	6329	1035000	1
7	615	121785.684126800949	2
7	617	122684.737118516518	1
7	632	123285.759420939434	2
7	634	125141.021161814141	1
7	643	126351.515288701278	0
7	657	128379.36995107615	1
7	661	132052.528512949191	0
7	675	132722.205545079629	1
7	684	135459.455432998469	2
7	686	136357.162810084875	1
7	701	138881.342856908899	2
7	703	139620.395655352217	1
7	718	141322.687108049888	2
7	726	141956.861376288046	3
7	734	142708.362981393692	4
7	736	143012.130342000454	3
7	745	145321.572826044134	2
7	753	145957.959249800974	1
7	767	146560.29933404897	2
7	769	146699.215367642087	1
7	784	148068.49224676486	2
7	792	148435.939466318911	3
7	795	150106.226680281163	2
7	809	150916.079694399319	3
7	811	151110.09279829697	2
7	824	152165.471945095999	1
7	828	152450.935858621521	2
7	842	154351.366288881169	3
7	844	154473.990815310526	2
7	858	155546.094211706397	3
7	861	156044.533186170495	2
7	874	157181.467956105855	1
7	878	157255.185905325085	2
7	891	158191.898815433683	3
7	893	158715.673507152852	2
7	902	160838.35063718908	1
7	910	161875.201763919792	0
7	928	162825.201698515184	1
7	933	163132.388930416321	2
7	941	163772.854318328473	3
7	949	164467.600902604138	4
7	952	166169.652438622865	3
7	960	166657.657365893366	2
7	965	166927.087727789118	1
7	977	168171.279772157692	0
7	991	170569.320040490056	1
7	1000	171709.795490949485	2
7	1002	173938.486582033897	1
7	1016	174388.27729267586	0
7	1020	174478.565076205953	1
7	1033	175061.632771721135	2
7	1041	175725.164532052092	3
7	1049	176331.262286469697	4
7	1057	176988.04276283794	5
7	1060	177622.343827892652	4
7	1068	178524.472381412368	3
7	1085	179302.21464187516	4
7	1089	179517.493211845029	3
7	1093	179577.575369352618	4
7	1097	179831.259224784961	3
7	1109	180845.227433976952	2
7	1123	182321.484316502362	3
7	1126	183271.618529232688	2
7	1134	183570.041189242237	1
7	1154	184165.771825567379	2
7	1159	184509.087268131695	3
7	1164	184831.228111792668	4
7	1171	185956.999400774215	3
7	1176	186028.385789126777	4
7	1189	187094.828453457519	5
7	1191	187682.925432584202	4
7	1196	187927.898115130911	3
7	1204	188005.580440398664	2
7	1216	190137.31242691503	1
7	1224	190697.156663384639	0
7	1239	193522.395625634283	1
7	1242	197077.816500459375	0
7	1258	201581.438832740051	1
7	1261	204983.750359304457	0
7	1276	208564.782985123991	1
7	1279	211993.212695944541	0
7	1294	213144.39658742942	1
7	1305	214069.007584259791	2
7	1310	214350.247769663918	3
7	1319	216876.076247527024	4
7	1321	216980.364356179719	3
7	1329	217626.008879780735	2
7	1334	217910.371468362347	1
7	1351	218545.430016176458	2
7	1354	220394.585087419913	1
7	1369	222061.815061806778	2
7	1377	222793.656264268398	3
7	1379	222824.926826624513	2
7	1393	223387.443074458396	3
7	1401	223855.414310910182	4
7	1404	225518.660884051695	3
7	1417	226084.268308228546	2
7	1421	226114.047187234081	3
7	1428	227031.305708237443	2
7	1433	227313.499241874506	1
7	1451	228463.57153529442	2
7	1459	229164.875127524027	3
7	1466	229648.264828794945	2
7	1470	229781.397146264368	3
7	1478	231456.380552842724	2
7	1492	232106.882185958517	3
7	1494	232914.711646110437	2
7	1502	233326.730743210988	1
7	1511	235615.546574401428	0
7	1530	241599.509762452955	1
7	1535	241893.215789162095	2
7	1544	243078.861448414873	3
7	1552	243981.744391159904	4
7	1554	245185.804027807546	3
7	1562	245523.530050067742	2
7	1580	246155.118198089078	3
7	1585	246429.502050126934	4
7	1587	246771.79069494116	3
7	1595	247532.739871556997	2
7	1604	249642.570648585349	1
7	1609	249872.351461457155	0
7	1628	257307.001532398708	1
7	1637	258335.777011074191	2
7	1640	261291.026335568538	1
7	1648	262013.703054454181	0
7	1663	266672.610962101745	1
7	1666	269879.952738663564	0
7	1682	274098.407294152843	1
7	1690	275757.337975690469	2
7	1693	277435.499108654679	1
7	1702	279606.030453207745	0
7	1721	287215.733058763711	1
7	1726	287509.936878715443	2
7	1735	289515.102301009632	3
7	1737	290651.263728652129	2
7	1745	290816.925930173063	1
7	1755	291309.640397051205	2
7	1768	292169.906183451636	3
7	1770	292646.649676251593	2
7	1784	293998.77560049985	3
7	1787	295376.632227339148	2
7	1795	296207.940781282012	1
7	1804	297684.663243625344	0
7	1819	302956.812700989126	1
7	1828	303349.279186710144	2
7	1836	304516.770123116062	3
7	1844	305145.780854457577	4
7	1847	306166.945528525149	3
7	1855	306827.814262555622	2
7	1863	308429.592199378725	1
7	1871	308867.295913270999	0
7	1886	310364.294746340502	1
7	1894	311298.398810361542	2
7	1903	312406.650641551749	3
7	1905	314271.48781614937	2
7	1913	314794.543587699976	1
7	1922	315484.881844972485	0
7	1936	317849.750782408794	1
7	1945	320676.804536596906	2
7	1948	321377.981095757315	1
7	1962	323059.224382952568	2
7	1970	323883.160288457842	3
7	1973	324563.990381234232	2
7	1987	325298.576106908357	3
7	1989	326558.590420181789	2
7	1998	328187.814764994001	1
7	2003	328433.526197565864	0
7	2021	330465.336381588428	1
7	2029	331857.965383820342	2
7	2032	333747.613576016145	1
7	2046	335097.410072698002	2
7	2048	335588.35300059769	1
7	2057	338566.248506324919	0
7	2072	340420.243398982995	1
7	2075	344027.248827765319	0
7	2090	346856.205246240891	1
7	2098	349862.44906041737	0
7	2102	350105.491060496198	1
7	2116	352933.563704507524	2
7	2124	353212.160196242159	3
7	2133	354122.760363360939	4
7	2135	354330.367639452084	3
7	2143	356188.941768403497	2
7	2152	357121.880606430077	1
7	2160	357657.301561131734	0
7	2176	364687.095486458653	1
7	2185	367203.773592149019	2
7	2187	368575.021352596267	1
7	2202	369192.807955292286	2
7	2204	370929.154716920756	1
7	2213	372602.995367750823	0
7	2228	377390.700489323647	1
7	2237	378502.022693605549	2
7	2239	380749.45268736902	1
7	2254	381575.233072613448	2
7	2256	382221.637438799105	1
7	2265	384083.590346366074	0
7	2279	384638.725679428496	1
7	2287	385154.59337749651	2
7	2295	385639.26443563527	3
7	2303	386907.038050842041	4
7	2306	388239.584573565509	3
7	2320	389017.893339242452	4
7	2322	389172.07474239797	3
7	2330	389709.727005596715	2
7	2339	390320.718931613145	1
7	2347	392180.958299413289	0
7	2361	392761.309207791701	1
7	2370	394879.953165670379	2
7	2373	396147.004537465616	1
7	2381	398398.329156292475	0
7	2398	406394.701235802521	1
7	2407	409131.441429797177	2
7	2414	410396.581297717547	1
7	2418	410634.225147273678	2
7	2426	412998.802107404155	1
7	2435	414119.366378057174	0
7	2449	415318.576861102821	1
7	2452	418703.395020681017	0
7	2469	427770.082619459812	1
7	2477	428630.441603432278	2
7	2486	429929.046335506551	3
7	2488	431503.277417552266	2
7	2493	431689.581438269047	1
7	2510	433074.188817050072	0
7	2517	433379.781564434708	1
7	2522	433687.72423357262	2
7	2530	437139.305992088857	1
7	2538	437452.123888269939	0
7	2553	440619.422582928283	1
7	2562	442516.869386413283	2
7	2570	443896.627434637601	3
7	2573	444072.245246244716	2
7	2581	445884.5395560371	1
7	2590	447891.874552955461	0
7	2605	450797.588168736015	1
7	2614	453347.482156999235	2
7	2621	454023.329190414945	1
7	2625	454063.375033261397	2
7	2641	455385.979396990683	3
7	2646	455700.804344309385	4
7	2655	456210.334569048669	5
7	2663	456949.674512968222	6
7	2665	457096.088660542524	5
7	2673	457955.873445431676	4
7	2681	458609.990369054319	3
7	2696	459391.124933168201	4
7	2698	459791.701362974458	3
7	2706	460366.354566986464	2
7	2711	460397.736768209954	1
7	2729	463014.451780061651	2
7	2731	463337.490442037095	1
7	2746	465450.037411388514	2
7	2748	466408.698089259659	1
7	2763	468443.532366390911	2
7	2770	469387.288806462425	1
7	2774	469635.911415518575	2
7	2787	470603.198399925107	3
7	2790	471811.021097413597	2
7	2798	473233.726598533282	1
7	2812	473740.477065118529	2
7	2815	474159.575269858694	1
7	2829	476245.55319909952	2
7	2838	477192.064749851852	3
7	2840	477636.394026474137	2
7	2857	478920.822708951828	3
7	2862	479207.058142049592	4
7	2864	479791.88600235406	3
7	2879	480560.210316503507	4
7	2881	481351.10866825604	3
7	2889	482267.423718347399	2
7	2897	482773.740738947822	1
7	2906	483810.736128550334	0
7	2920	484417.452067100209	1
7	2928	485953.665884949179	2
7	2937	486883.772231361829	3
7	2939	488062.83101784439	2
7	2948	489862.718173135618	1
7	2956	490567.77552292027	0
7	2970	491267.320760827177	1
7	2981	491667.809063735264	2
7	2986	491960.059314099571	3
7	2994	494632.015225483405	2
7	2998	494643.899597368928	3
7	3002	494858.51392328259	2
7	3005	494949.146518008467	1
7	3028	496157.101128150895	2
7	3030	497540.683232927636	1
7	3039	500243.766089464727	0
7	3055	505262.877857834506	1
7	3064	507472.415070423552	2
7	3066	508945.622390437967	1
7	3075	510943.978769864237	0
7	3089	511615.445738167263	1
7	3092	514554.752684685088	0
7	3106	515795.602498458867	1
7	3115	516304.365107452386	2
7	3123	516660.623035583971	3
7	3132	519129.572759655115	4
7	3134	519635.572380155962	3
7	3142	519974.900336109382	2
7	3147	520248.970566949915	1
7	3164	521788.871991849482	2
7	3167	522516.367866788089	1
7	3176	525108.431559897597	0
7	3190	526068.342999535773	1
7	3193	528969.657944896262	0
7	3207	529566.101726797461	1
7	3215	530669.701999350731	2
7	3224	531935.250683747343	3
7	3226	532789.326947844449	2
7	3235	534372.011731127529	1
7	3243	535540.116508684578	0
7	3261	537372.979697317599	1
7	3266	537665.243957685258	2
7	3274	538469.294306940018	3
7	3282	539798.269949450536	4
7	3291	540712.896142005892	5
7	3299	541173.773776908485	6
7	3301	541268.159529852045	5
7	3306	541364.38137399472	4
7	3317	542232.644205703337	3
7	3326	543406.185877929941	2
7	3334	544046.618741047261	1
7	3339	544357.757047862757	0
7	3357	547484.325553669781	1
7	3360	550844.031675395352	0
7	3375	552188.822782493207	1
7	3383	553892.298416478884	2
7	3392	555531.659837442266	3
7	3394	555558.484129863157	2
7	3402	557681.123649634409	1
7	3411	559056.611447517592	0
7	3425	559582.037236665037	1
7	3434	563497.401702742525	2
7	3436	563742.972723811596	1
7	3445	566856.778212039289	0
7	3460	568413.480647134151	1
7	3463	571943.919197562567	0
7	3477	572592.905095466081	1
7	3481	576343.063604710083	0
7	3497	582358.506677379022	1
7	3500	586043.42358789542	0
7	3514	586676.265606543506	1
7	3517	590442.171422585643	0
7	3535	592789.040713442339	1
7	3540	593159.867588506722	2
7	3548	593912.393759709804	3
7	3551	596688.026242282949	2
7	3557	597023.431189275939	1
7	3568	598143.27791389679	0
7	3588	607485.620417794951	1
7	3593	607806.985755709897	2
7	3605	610074.387861857118	3
7	3610	610332.585559546308	4
7	3618	610735.386844216747	5
7	3620	611199.731323831537	4
7	3628	611521.84761544814	3
7	3637	613238.623637563759	2
7	3645	613743.779754283328	1
7	3653	614440.809168413934	0
7	3668	615032.881160472899	1
7	3676	616652.453062883236	2
7	3679	618802.836419470267	1
7	3693	619811.173138233867	2
7	3695	620304.791607773109	1
7	3710	621825.194547037204	2
7	3712	623494.783993915364	1
7	3727	624075.329823809312	2
7	3735	624717.928143945066	3
7	3737	625102.666606600032	2
7	3751	627475.214622332464	1
7	3755	627732.017771361754	2
7	3768	628686.770617756361	3
7	3770	628849.204799334882	2
7	3784	632002.315200666548	1
7	3788	632285.436896174376	2
7	3792	632405.074760423294	1
7	3810	634597.821931326786	2
7	3817	635823.420622791453	1
7	3821	635920.421901120025	2
7	3835	636548.334749657258	3
7	3843	636867.583830003013	4
7	3845	638586.883357903819	3
7	3854	639919.226872479028	2
7	3859	640008.878850434523	1
7	3870	640827.393643808685	0
7	3884	641649.36647860402	1
7	3893	642398.848955521085	2
7	3901	644284.599388676993	3
7	3909	645480.575574711982	2
7	3913	645721.497616312642	3
7	3917	645909.092497821801	2
7	3934	647480.173460373883	3
7	3936	647564.77085574386	2
7	3951	648112.596384058716	3
7	3959	648460.624262036034	4
7	3966	649287.226690622222	3
7	3970	649340.183472648887	4
7	3978	651083.366195588382	3
7	3986	651932.033327227152	2
7	3991	652048.367815226823	1
7	4002	653436.018581801302	0
7	4017	655761.70436114544	1
7	4020	659219.385377842141	0
7	4037	666060.250249189113	1
7	4046	669484.849864986701	2
7	4048	669675.110581522026	1
7	4062	671441.375913967416	2
7	4070	673205.327396679753	1
7	4077	673437.780571333069	2
7	4082	673744.211100000881	3
7	4095	674398.301685216682	4
7	4098	675562.146275707905	3
7	4112	676838.570452223273	4
7	4114	677386.17198373873	3
7	4119	677656.619070865378	2
7	4127	677907.889096695233	1
7	4145	679820.883284023448	2
7	4147	680959.07045200398	1
7	4156	683449.969610697309	0
7	4174	684119.944794272519	1
7	4179	684397.768400113564	2
7	4187	684965.9912531547	3
7	4190	687447.440465300669	2
7	4198	688490.554177559691	1
7	4203	688574.217412226158	0
7	4221	692124.387829954937	1
7	4230	693020.670530654942	2
7	4238	693715.65883418993	3
7	4240	695502.88942544743	2
7	4254	697352.151669629291	1
7	4258	697449.409039968686	2
7	4262	697598.834609118707	1
7	4283	700301.204987039238	2
7	4288	700570.066139837156	3
7	4295	700620.110853663265	2
7	4299	700945.443777838896	3
7	4312	703802.893048598054	2
7	4315	703896.254275421765	1
7	4319	703925.038049858253	2
7	4331	704609.429072161221	1
7	4346	706875.785662482624	2
7	4348	707199.432299028632	1
7	4363	709505.988192303228	2
7	4365	710151.686178316396	1
7	4380	712906.784236986738	2
7	4382	713310.519331081756	1
7	4391	716406.831498736854	0
7	4406	717606.020823615163	1
7	4409	721168.483628318262	0
7	4423	722733.993392101794	1
7	4432	724629.891452950809	2
7	4435	726892.774775341311	1
7	4443	728190.960856604655	0
7	4457	728937.2403710457	1
7	4466	730666.365813809655	2
7	4469	732922.470085485531	1
7	4483	734272.579179537065	2
7	4485	734335.721413772355	1
7	4500	735624.884184152753	2
7	4508	736908.833454310276	3
7	4519	737316.365012307288	4
7	4524	737657.470014848663	5
7	4526	737983.686321413251	4
7	4535	739348.434930653504	3
7	4548	740429.514709359128	2
7	4552	740575.809803848702	3
7	4559	740947.989145537376	2
7	4574	741642.914424316543	3
7	4576	741861.250948270884	2
7	4593	742473.855608105617	3
7	4598	742782.026829308851	4
7	4600	743624.097874447389	3
7	4609	745274.79319310921	2
7	4623	746429.169298251269	3
7	4625	746647.688489131262	2
7	4630	746733.261052378926	1
7	4648	747858.692104921215	2
7	4659	749490.651557155181	3
7	4663	749516.226196705777	2
7	4667	749736.677939248001	3
7	4675	750824.074722341437	2
7	4683	752771.796619601798	1
7	4692	753481.632170598521	0
7	4707	757949.732011448551	1
7	4715	758605.153952512752	2
7	4724	761210.037099046716	3
7	4726	761601.248907533203	2
7	4731	761870.707981062249	1
7	4752	762432.350254429655	2
7	4757	762761.783790946717	3
7	4765	763299.83598579953	4
7	4768	765011.274011879939	3
7	4776	766103.670876174545	2
7	4781	766130.270033660982	1
7	4789	766683.617350465016	0
7	4808	772090.655456875393	1
7	4816	776005.867519948331	0
7	4820	776125.462756389157	1
7	4837	778341.438973754224	2
7	4842	778630.6140484263	3
7	4844	779754.410435288916	2
7	4853	781839.361340841024	1
7	4861	782395.903805762208	0
7	4876	784972.660312213491	1
7	4885	786349.574267316564	2
7	4893	787709.602616712097	3
7	4901	788823.930750714742	4
7	4903	788864.369069205194	3
7	4912	789309.776550572195	2
7	4926	790524.61976363225	3
7	4928	791042.734627457882	2
7	4937	792130.074733739579	1
7	4945	794186.359763241403	0
7	4960	796355.614319756524	1
7	4963	800022.141876495007	0
7	4981	801493.764679411879	1
7	4986	801799.37885455533	2
7	4994	802600.968494899404	3
7	4997	805122.636938248361	2
7	5002	805366.91474919433	1
7	5014	805766.94198662481	2
7	5026	806390.785772313216	1
7	5030	806520.36790664128	2
7	5038	809204.363917842659	1
7	5047	810412.927094845509	0
7	5063	816341.535425138635	1
7	5071	818907.850500036518	2
7	5074	819802.155871955686	1
7	5088	820627.672452677832	2
7	5091	822169.466608131112	1
7	5105	822877.993493677989	2
7	5107	824056.055557791282	1
7	5122	825749.485995976441	2
7	5130	826307.215867358151	3
7	5132	826856.943863138051	2
7	5141	829691.764055045233	1
7	5146	829743.328883708278	0
7	5166	839450.065806086239	1
7	5175	841643.969417378462	2
7	5178	843213.325822158141	1
7	5186	845518.311424516267	0
7	5201	847940.8779862653	1
7	5213	850299.73883177959	2
7	5218	850612.369653687662	3
7	5220	851733.888186784793	2
7	5229	853679.376182268197	1
7	5237	853907.323081891565	0
7	5246	854327.972951857547	1
7	5260	856392.035156424347	2
7	5268	857967.504726509174	3
7	5271	858403.138621321367	2
7	5285	859951.160343155974	3
7	5287	860146.313915124549	2
7	5296	861840.685501786458	1
7	5310	862680.37339474755	2
7	5312	863897.121918761836	1
7	5330	864532.829787842939	2
7	5335	864782.740382318032	3
7	5337	865846.96875284918	2
7	5351	866503.415066107492	3
7	5354	868354.568067158885	2
7	5359	868411.002679521069	1
7	5370	869700.820831936277	0
7	5385	872175.042251828126	1
7	5388	875719.10923944856	0
7	5403	876634.151226800539	1
7	5411	877752.754779716627	2
7	5414	879762.940956438216	1
7	5428	881201.463990733404	2
7	5430	881464.164798965114	1
7	5445	882314.228249084003	2
7	5447	884387.731952776526	1
7	5456	886087.396775106935	0
7	5470	887042.88179221413	1
7	5479	888187.978610568441	2
7	5481	890430.892277531938	1
7	5490	891191.00784687309	0
7	5505	894716.455985769436	1
7	5508	897749.320462614176	0
7	5522	899578.625639374432	1
7	5531	900456.139391326143	2
7	5539	901600.424768622463	3
7	5542	903306.699430096809	2
7	5550	903951.395952714046	1
7	5558	905058.293174732832	0
7	5573	907025.763310928686	1
7	5581	907961.592732792759	2
7	5590	910289.352943300735	3
7	5592	910881.49443484219	2
7	5601	912051.644612589864	1
7	5614	913726.750415422326	0
7	5618	913790.276198279583	1
7	5631	914302.600244822658	2
7	5634	916982.630044703117	1
7	5642	917601.598536504555	0
7	5657	919090.143147219956	1
7	5666	921299.482359662538	2
7	5668	923008.613990300352	1
7	5677	924993.0680918517	0
7	5692	929668.130034134716	1
7	5701	930847.875564878453	2
7	5709	931243.529594008474	3
7	5717	932825.107647132629	4
7	5720	933291.505921287097	3
7	5737	934000.501618325088	4
7	5742	934230.4649018941	5
7	5744	934611.406560709802	4
7	5752	935418.971233533323	3
7	5761	936301.699138597393	2
7	5769	937761.877073633838	1
7	5777	938429.053100987589	0
7	5792	941256.683412547982	1
7	5795	944589.003633955937	0
7	5810	945519.77986492181	1
7	5813	948990.227401038572	0
7	5828	952719.835621408822	1
7	5837	955571.260016462378	2
7	5839	955722.999748787387	1
7	5853	956347.775981859179	2
7	5862	958295.619142775015	3
7	5864	959533.039917766716	2
7	5873	960469.942619672769	1
7	5887	961093.363087376113	2
7	5889	961917.899559696699	1
7	5903	962844.60006955054	2
7	5912	963739.069930395339	3
7	5914	964529.98818554043	2
7	5923	966507.278115027313	1
7	5936	967706.196479014281	0
7	5940	968029.999612090729	1
7	5957	970119.293939352367	2
7	5962	970441.334978244209	3
7	5964	971186.964339810292	2
7	5978	973458.194867620715	1
7	5982	973507.396385161596	2
7	5989	974056.346029429203	1
7	6006	974559.163790570257	2
7	6011	974840.25321753435	3
7	6014	976793.957031324691	2
7	6023	978339.859604902414	1
7	6028	978492.637637898204	0
7	6050	985564.518423616369	1
7	6055	985856.249477362862	2
7	6064	988409.852000397139	3
7	6066	989354.7681820668	2
7	6071	989594.060367076491	1
7	6083	991288.138747307364	0
7	6097	992719.191537335597	1
7	6106	994040.498717828331	2
7	6114	995227.623901275327	3
7	6116	995902.807107348951	2
7	6125	997159.605791442135	1
7	6133	998519.829296920326	0
7	6148	1001548.48503186823	1
7	6157	1003976.30326649759	2
7	6159	1004613.331587130232	1
7	6168	1007161.684764486807	0
7	6183	1008005.332418960925	1
7	6191	1010456.962186285929	2
7	6194	1011191.838306381953	1
7	6208	1011813.04716598696	2
7	6217	1014240.069497571625	3
7	6219	1014346.087367056345	2
7	6232	1015168.391429734065	1
7	6236	1015207.881606533683	2
7	6244	1017802.762062493761	1
7	6252	1018909.762108010576	0
7	6267	1022610.210400840333	1
7	6279	1025414.982471341155	2
7	6284	1025627.177238462846	3
7	6287	1026484.997277761596	2
7	6295	1028758.377746230369	1
7	6304	1029434.512677301354	0
7	6318	1030024.946465140509	1
7	6321	1033591.158746489913	0
