file 91126 1483715027                                           
version 2
run ParkingMeasurement-55-20170106-02:04:51-12489
attr configname ParkingMeasurement
attr datetime 20170106-02:04:51
attr experiment ParkingMeasurement
attr inifile parkingStudy.ini
attr iterationvars ""
attr iterationvars2 $repetition=55
attr measurement ""
attr network SimNetwork
attr processid 12489
attr repetition 55
attr replication #55
attr resultdir results
attr runnumber 55
attr seedset 55
param SimNetwork.a.parkingLot.parkingDelay "truncnormal(60min, 6min)"
param SimNetwork.a.runway.landingTime "truncnormal(5min, 0.5min)"
param SimNetwork.a.runway.takeoffTime "truncnormal(5min, 0.5min)"
param SimNetwork.a.runway.throughputCheckInterval 50min
param SimNetwork.wg.interArrivalTime exponential(50min)
vector 5  SimNetwork.a.runway  landedThroughput:vector  ETV
attr source landedThroughputSignal
5	64842 4872 657 5537 123000 1035000 305 0 6 287 575
vector 6  SimNetwork.a.runway  tookoffThroughput:vector  ETV
attr source tookoffThroughputSignal
6	69714 4872 657 5537 123000 1035000 305 0 4 287 539
vector 7  SimNetwork.a.parkingLot  parkingOccupancy:vector  ETV
attr source parkingOccupancy
7	74586 16540 658 5538 123450.09697387964 1035261.074697625086 573 0 7 942 2370
vector 4  SimNetwork.a.takeoffQueue  queueLength:vector  ETV
attr source queueLengthSignal
4	48244 16598 659 5541 123450.09697387964 1035261.074697625086 574 0 2 293 299
vector 3  SimNetwork.a.takeoffQueue  queueTime:vector  ETV
attr source queueTimeSignal
3	39252 8992 661 5541 123450.09697387964 1035261.074697625086 287 0 785.88145631819 9337.1178878124 2924795.3532948
vector 0  SimNetwork.wg  responseTime:vector  ETV
attr source responseTimeSignal
0	1456 12266 664 5544 123791.059994827454 1035547.266165047398 287 3737.3289722278 32665.752574678 2140074.2359343 19422981171.961
vector 2  SimNetwork.a.landingQueue  queueLength:vector  ETV
attr source queueLengthSignal
2	22747 16505 667 5515 124786.066005140646 1031885.795427564859 572 0 2 296 306
vector 1  SimNetwork.a.landingQueue  queueTime:vector  ETV
attr source queueTimeSignal
1	13722 9025 669 5515 124786.066005140646 1031885.795427564859 286 0 448.98231380724 9941.0182806189 2348101.814102
