version 2
run ParkingMeasurement-23-20170108-17:32:44-6333
attr configname ParkingMeasurement
attr datetime 20170108-17:32:44
attr experiment ParkingMeasurement
attr inifile parkingStudy.ini
attr iterationvars ""
attr iterationvars2 $repetition=23
attr measurement ""
attr network controltower.SimNetwork
attr processid 6333
attr repetition 23
attr replication #23
attr resultdir results
attr runnumber 23
attr seedset 23
param SimNetwork.a.parkingLot.parkingDelay "truncnormal(60min, 6min)"
param SimNetwork.a.runway.landingTime "truncnormal(5min, 0.5min)"
param SimNetwork.a.runway.takeoffTime "truncnormal(5min, 0.5min)"
param SimNetwork.a.runway.throughputCheckInterval 50min
param SimNetwork.wg.interArrivalTime exponential(50min)

statistic SimNetwork.wg 	responseTime:stats
field count 292
field mean 7384.8388533961
field stddev 3235.3423945837
field sum 2156372.9451917
field sqrsum 18970491867.429
field min 3861.1624398196
field max 21390.956484371
attr source  responseTimeSignal
scalar SimNetwork.a.landingQueue 	queueLength:timeavg 	0.010247089972722
attr source  queueLengthSignal
statistic SimNetwork.a.landingQueue 	queueLength:stats
field count 586
field mean 0.50682593856655
field stddev 0.50716691944639
field sum 297
field sqrsum 301
field min 0
field max 2
attr source  queueLengthSignal
statistic SimNetwork.a.landingQueue 	queueTime:stats
field count 293
field mean 31.97472709054
field stddev 83.85889720301
field sum 9368.5950375282
field sqrsum 2352994.1444574
field min 0
field max 571.21204454615
attr source  queueTimeSignal
scalar SimNetwork.a.takeoffQueue 	queueLength:timeavg 	0.015346037234264
attr source  queueLengthSignal
statistic SimNetwork.a.takeoffQueue 	queueLength:stats
field count 584
field mean 0.51712328767123
field stddev 0.51699880582072
field sum 302
field sqrsum 312
field min 0
field max 2
attr source  queueLengthSignal
statistic SimNetwork.a.takeoffQueue 	queueTime:stats
field count 292
field mean 48.070568509275
field stddev 122.5410909695
field sum 14036.606004708
field sqrsum 5044496.4526017
field min 0
field max 752.25548306598
attr source  queueTimeSignal
scalar SimNetwork.a.parkingLot 	parkingOccupancy:timeavg 	1.1439657678726
attr source  parkingOccupancy
statistic SimNetwork.a.parkingLot 	parkingOccupancy:stats
field count 585
field mean 1.6615384615385
field stddev 1.182770586048
field sum 972
field sqrsum 2432
field min 0
field max 6
attr source  parkingOccupancy
