file 88919 1483715136                                           
version 2
run ParkingMeasurement-57-20170106-02:04:52-12498
attr configname ParkingMeasurement
attr datetime 20170106-02:04:52
attr experiment ParkingMeasurement
attr inifile parkingStudy.ini
attr iterationvars ""
attr iterationvars2 $repetition=57
attr measurement ""
attr network SimNetwork
attr processid 12498
attr repetition 57
attr replication #57
attr resultdir results
attr runnumber 57
attr seedset 57
param SimNetwork.a.parkingLot.parkingDelay "truncnormal(60min, 6min)"
param SimNetwork.a.runway.landingTime "truncnormal(5min, 0.5min)"
param SimNetwork.a.runway.takeoffTime "truncnormal(5min, 0.5min)"
param SimNetwork.a.runway.throughputCheckInterval 50min
param SimNetwork.wg.interArrivalTime exponential(50min)
vector 7  SimNetwork.a.parkingLot  parkingOccupancy:vector  ETV
attr source parkingOccupancy
7	72792 16127 641 5410 121996.160538546489 1035196.593022337488 559 0 5 911 2231
vector 4  SimNetwork.a.takeoffQueue  queueLength:vector  ETV
attr source queueLengthSignal
4	46881 16163 642 5413 121996.160538546489 1035196.593022337488 560 0 3 288 300
vector 3  SimNetwork.a.takeoffQueue  queueTime:vector  ETV
attr source queueTimeSignal
3	38101 8780 644 5413 121996.160538546489 1035196.593022337488 280 0 692.93764213558 10340.174149253 3236535.1090603
vector 0  SimNetwork.wg  responseTime:vector  ETV
attr source responseTimeSignal
0	1456 11973 647 5416 122278.524146553891 1035460.518307315576 280 4027.4507935343 21679.770867028 2113642.4891999 18626242134.196
vector 5  SimNetwork.a.runway  landedThroughput:vector  ETV
attr source landedThroughputSignal
5	63044 4874 649 5409 123000 1035000 305 0 4 279 547
vector 6  SimNetwork.a.runway  tookoffThroughput:vector  ETV
attr source tookoffThroughputSignal
6	67918 4874 649 5409 123000 1035000 305 0 5 280 552
vector 2  SimNetwork.a.landingQueue  queueLength:vector  ETV
attr source queueLengthSignal
2	22012 16089 651 5395 123314.11376235942 1030562.953673760893 558 0 2 285 291
vector 1  SimNetwork.a.landingQueue  queueTime:vector  ETV
attr source queueTimeSignal
1	13429 8583 653 5395 123314.11376235942 1030562.953673760893 279 0 559.1566829567 7187.2277722708 1960236.8055728
