file 98367 1483715053                                           
version 2
run ParkingMeasurement-25-20170106-02:04:44-12332
attr configname ParkingMeasurement
attr datetime 20170106-02:04:44
attr experiment ParkingMeasurement
attr inifile parkingStudy.ini
attr iterationvars ""
attr iterationvars2 $repetition=25
attr measurement ""
attr network SimNetwork
attr processid 12332
attr repetition 25
attr replication #25
attr resultdir results
attr runnumber 25
attr seedset 25
param SimNetwork.a.parkingLot.parkingDelay "truncnormal(60min, 6min)"
param SimNetwork.a.runway.landingTime "truncnormal(5min, 0.5min)"
param SimNetwork.a.runway.takeoffTime "truncnormal(5min, 0.5min)"
param SimNetwork.a.runway.throughputCheckInterval 50min
param SimNetwork.wg.interArrivalTime exponential(50min)
vector 5  SimNetwork.a.runway  landedThroughput:vector  ETV
attr source landedThroughputSignal
5	70590 4864 633 5945 123000 1035000 305 0 5 313 611
vector 6  SimNetwork.a.runway  tookoffThroughput:vector  ETV
attr source tookoffThroughputSignal
6	75454 4864 633 5945 123000 1035000 305 0 5 313 629
vector 2  SimNetwork.a.landingQueue  queueLength:vector  ETV
attr source queueLengthSignal
2	24735 18089 635 5922 124982.753144081982 1026415.940139054583 626 0 3 329 349
vector 1  SimNetwork.a.landingQueue  queueTime:vector  ETV
attr source queueTimeSignal
1	14843 9892 637 5922 124982.753144081982 1026415.940139054583 313 0 772.33874174422 10993.770729545 3034094.9306506
vector 7  SimNetwork.a.parkingLot  parkingOccupancy:vector  ETV
attr source parkingOccupancy
7	80318 18049 640 5936 125321.869863441627 1029939.778490711291 626 0 6 1067 2793
vector 4  SimNetwork.a.takeoffQueue  queueLength:vector  ETV
attr source queueLengthSignal
4	52559 18031 645 5939 129058.586316500113 1029939.778490711291 626 0 3 323 337
vector 3  SimNetwork.a.takeoffQueue  queueTime:vector  ETV
attr source queueTimeSignal
3	42824 9735 647 5939 129058.586316500113 1029939.778490711291 313 0 1150.6869598633 13138.159549846 6547373.86828
vector 0  SimNetwork.wg  responseTime:vector  ETV
attr source responseTimeSignal
0	1456 13387 650 5942 129393.864201226169 1030246.139467132074 313 3330.8916584123 23337.29736135 2246735.3633817 18377190884.663
