version 2
run ParkingMeasurement-10-20170108-17:32:40-6307
attr configname ParkingMeasurement
attr datetime 20170108-17:32:40
attr experiment ParkingMeasurement
attr inifile parkingStudy.ini
attr iterationvars ""
attr iterationvars2 $repetition=10
attr measurement ""
attr network controltower.SimNetwork
attr processid 6307
attr repetition 10
attr replication #10
attr resultdir results
attr runnumber 10
attr seedset 10
param SimNetwork.a.parkingLot.parkingDelay "truncnormal(60min, 6min)"
param SimNetwork.a.runway.landingTime "truncnormal(5min, 0.5min)"
param SimNetwork.a.runway.takeoffTime "truncnormal(5min, 0.5min)"
param SimNetwork.a.runway.throughputCheckInterval 50min
param SimNetwork.wg.interArrivalTime exponential(50min)

vector 5  SimNetwork.a.runway  landedThroughput:vector  ETV
attr source  landedThroughputSignal
vector 6  SimNetwork.a.runway  tookoffThroughput:vector  ETV
attr source  tookoffThroughputSignal
vector 2  SimNetwork.a.landingQueue  queueLength:vector  ETV
attr source  queueLengthSignal
vector 1  SimNetwork.a.landingQueue  queueTime:vector  ETV
attr source  queueTimeSignal
vector 7  SimNetwork.a.parkingLot  parkingOccupancy:vector  ETV
attr source  parkingOccupancy
vector 4  SimNetwork.a.takeoffQueue  queueLength:vector  ETV
attr source  queueLengthSignal
vector 3  SimNetwork.a.takeoffQueue  queueTime:vector  ETV
attr source  queueTimeSignal
vector 0  SimNetwork.wg  responseTime:vector  ETV
attr source  responseTimeSignal
0	825	128732.945859336749	12500.916751572
0	845	131069.736914796518	4245.5571621675
0	850	131379.580427652496	6999.9583659885
0	875	134100.898492939706	7205.585780095
0	892	135710.227683025023	6073.1458756908
0	903	137753.760443798386	6137.6621732066
0	909	138027.350712977942	4570.9370608134
0	926	143586.34731525501	9464.8684498496
0	952	148028.929376848703	8240.7078486322
0	976	149749.6977702558	5792.5078441937
0	988	152927.142187059638	8278.1247393202
0	994	153217.250045461046	4359.0543173783
0	1012	159816.471198596732	10663.980033101
0	1056	164246.480944362924	8299.4732168876
0	1073	165658.921064477337	5712.1427028444
0	1089	167006.8616418383	5292.3938043563
0	1102	167645.93570502185	4787.6797520421
0	1111	168207.830209362039	4750.8514944192
0	1127	169965.73299414243	5896.4260770639
0	1135	170816.488747930281	5437.6060585938
0	1163	173459.657369133591	6530.8982282273
0	1185	175789.245704363237	7275.4637521219
0	1193	176573.102474648098	5741.7912758306
0	1202	177509.157313526033	5136.5144988316
0	1218	179460.684434426814	6017.114008734
0	1227	182216.150691250761	7183.9527008831
0	1270	190701.790742155604	13142.761521831
0	1278	191259.4653847441	4992.8077634036
0	1290	192885.496649072672	4811.1029962363
0	1295	193184.450729059204	5953.889831794
0	1313	199767.634444357903	11301.766726636
0	1332	209689.995378923005	14462.105568992
0	1366	214068.548364842283	8876.2276359449
0	1374	215141.873044221956	5213.6310092585
0	1383	216214.580583545255	5124.3085206168
0	1417	223254.479398008275	11025.744211241
0	1434	225723.134081560141	3879.8464052248
0	1442	226062.568324969119	6984.77068646
0	1467	228162.99817935862	6046.7528352722
0	1487	231148.279839829116	7352.1162354637
0	1492	231433.195017051529	4880.9941122254
0	1500	233564.151798599051	6638.6438660164
0	1518	238313.275679511894	9218.4095821919
0	1551	242526.38877852847	8828.8203824409
0	1576	244635.286584837672	6208.7029049407
0	1584	245281.67611633897	5288.6676645071
0	1612	246571.111839819124	5307.6585279669
0	1625	247104.181582808453	4436.2556553042
0	1645	249760.891010534883	6913.8749098485
0	1650	250077.770018780596	4405.3094434854
0	1664	251163.961367749247	5184.497180772
0	1674	251837.073365503458	5274.5419799945
0	1692	255142.381594958312	7967.7247102834
0	1700	256290.265326971134	5255.4954318896
0	1737	261852.109995829835	9558.7554622503
0	1742	262151.575782688771	4618.8111084129
0	1750	262751.637776119205	5189.4190546149
0	1803	269692.915199323443	4494.2746815355
0	1808	269992.71259231635	12025.606654501
0	1820	270593.240049326425	5038.7392611328
0	1825	270873.541015028654	4896.1752538269
0	1849	272761.000580595821	5595.4326410957
0	1874	275461.574613301249	6353.2917346625
0	1882	275903.385853209691	4766.3157406858
0	1894	278890.293225686336	7436.5702063859
0	1900	279265.672203160085	4648.0612470106
0	1935	288618.939042416896	13887.193544235
0	1943	290565.962086774042	5786.8088559272
0	1952	291484.827120095513	5364.5368039032
0	1969	296174.018801100128	8677.981822031
0	1988	303041.531086540242	11095.550115961
0	2014	309340.4603231774	10599.974097304
0	2022	309827.635767134895	4402.783181193
0	2055	314427.46024955718	8669.2302562634
0	2067	316432.200709851356	6066.264478841
0	2081	318135.761993835194	6195.1197373201
0	2105	320885.765639028346	7209.659816787
0	2114	321717.770296649391	5316.567238681
0	2131	324521.542638714524	6019.3725413125
0	2148	328301.543372494654	8162.5228458195
0	2165	331760.855019444536	7856.163046552
0	2182	334636.752659883978	6886.5944834244
0	2191	337039.027860176927	6148.7730465636
0	2220	343141.661029836665	4513.6768289767
0	2225	343417.140678778328	10284.791908994
0	2244	352576.704434324845	13822.533399256
0	2278	358054.130211439203	9062.0537290024
0	2289	359952.821049175297	6081.9874131421
0	2311	360863.409330277062	5485.6977914999
0	2334	364340.011145236676	8918.5136956438
0	2344	364862.257917373971	5044.5899251487
0	2364	368361.737109858245	8354.9689255899
0	2369	368666.175458557962	4924.6979807737
0	2387	372230.181455533407	8025.6742238812
0	2395	374866.483745348848	7137.9193776483
0	2432	379776.835167079374	8679.5542454885
0	2440	380106.854090173385	4929.7834723923
0	2445	380399.566623046582	4756.0673061732
0	2471	386631.107038068013	10897.297109498
0	2480	387265.247454554079	4478.8444426803
0	2521	391771.74000856896	8732.4439375804
0	2530	393103.333844880948	5808.6507768024
0	2538	393728.401921161976	4896.8553673535
0	2546	394392.164705690307	5237.4178051331
0	2599	401746.134400884357	12136.829520649
0	2605	402017.360507284879	4351.3075864778
0	2613	402681.774762636912	5000.2127811411
0	2621	403818.178865283384	5051.4314666722
0	2629	404182.194787087513	4407.9144904368
0	2673	414129.618894055773	3546.6822565193
0	2684	415048.509225063736	14698.351145899
0	2689	415333.666758147049	4489.3478959326
0	2697	416759.706287617383	5631.9239983766
0	2748	424897.935763047387	12481.791900002
0	2756	425566.180176778808	5025.2114670169
0	2765	426779.105042544022	4753.3746693593
0	2773	427335.843955473701	5081.0773369714
0	2781	428533.435478974061	5190.9785261086
0	2801	438644.056273548823	14415.816974678
0	2869	443626.865864760755	8740.9684809631
0	2874	443913.782459089519	4814.6020344113
0	2883	444244.863259494149	4506.5978057042
0	2891	444850.325044859668	4860.402594361
0	2902	445441.723998068533	5334.9484347479
0	2907	445694.089969961454	4522.3116777114
0	2915	446335.943322286969	4889.775428648
0	2935	457480.737120406668	14982.645235525
0	2961	462512.87006503496	9755.8820451973
0	2978	465672.093598881932	7605.1486552635
0	2987	469299.393061500325	7696.0483603423
0	3004	473656.889362379075	9087.0574606703
0	3039	480140.739083021792	10548.130179069
0	3047	480687.946095338959	4920.9975211902
0	3056	483485.461999778807	7489.49916793
0	3075	492105.490255312517	12682.309489332
0	3096	500124.170872362702	12909.816960579
0	3118	503986.995316448307	3924.0925680394
0	3127	504571.756910162239	8548.8922197143
0	3145	510190.976278439665	9635.2755425805
0	3178	515390.631505508302	9744.5089419077
0	3195	516604.203167024653	5668.7204735283
0	3211	517376.594352319588	4733.5330791642
0	3231	519742.082188793773	6582.2513089306
0	3244	520339.816109975566	4764.4449877997
0	3261	522122.176041373707	5331.7483107552
0	3269	523923.595447981554	5803.9409130746
0	3278	525122.583096151939	5601.1844329505
0	3306	529735.366504827643	9297.1814008485
0	3327	530566.164064553741	5120.4448195661
0	3344	533656.700881531042	8021.9284461033
0	3369	534761.854969588986	5370.2193616956
0	3377	536438.731423646735	6599.3217469874
0	3389	538028.378802121112	6012.4293032268
0	3394	538222.860134563364	4491.1443158893
0	3424	548460.219707067846	14679.477295452
0	3429	548716.871090810904	4366.0081731651
0	3451	555788.376963601589	10926.304126077
0	3473	560278.185192195755	8714.8621823563
0	3485	563667.29541035403	7879.4923472073
0	3500	568153.48145660331	8665.8744667151
0	3544	579297.947628538788	15871.361725565
0	3558	580631.407955544226	4157.074986329
0	3568	581212.433007067827	5905.4765510173
0	3577	582539.249626605915	5681.1906670861
0	3601	584607.043870278316	5915.5488037803
0	3613	587375.660084527048	6931.6581598985
0	3627	588031.977369707402	5011.2700245852
0	3639	591699.752105752923	8006.1923388214
0	3677	595653.474682277921	8462.4014309059
0	3694	598022.562609675187	6464.8513247615
0	3702	598856.889283134988	5069.4783350815
0	3710	599608.873708734375	5073.9508763722
0	3722	601495.680049080853	6518.4037631603
0	3755	605454.016748971492	4207.5080334978
0	3760	605744.798601579814	8257.517978568
0	3777	608501.004065652077	6808.7573454565
0	3789	611018.546849780964	6678.3053075769
0	3819	614594.532022564044	6820.5772256134
0	3836	617026.873518117253	6042.4852842118
0	3844	617926.821787069829	4754.4272846413
0	3862	621091.623405058372	7833.2420542358
0	3870	622185.972814873222	5835.7294649318
0	3889	630420.635750868554	12067.898365517
0	3914	635298.467730809161	8688.1418137041
0	3955	638769.106758479327	7397.7565813331
0	3964	639804.909728165169	5097.6671769837
0	3972	641230.634283189156	5741.0173748144
0	3980	641724.809116842578	5360.0204567566
0	4005	642743.565485982438	6009.7047527255
0	4022	646196.660988930375	8145.9284296795
0	4033	646774.98770381596	4924.2558394641
0	4055	648023.036901931228	6009.2668941784
0	4063	650645.122105825389	6949.2240200051
0	4075	651715.055907682144	5170.4126746503
0	4089	655996.221076272393	8585.4219398621
0	4131	661216.81709750447	9786.1636972275
0	4142	661967.35328083791	4810.8781477637
0	4147	662252.84343008147	5258.9030876702
0	4156	664800.403289525403	6289.1189591385
0	4190	670658.203765206389	10462.157476279
0	4207	673707.345754304445	6376.6166248633
0	4218	674476.470512142859	5165.5770589756
0	4240	676817.496098590583	6756.6177996394
0	4249	678584.924501688116	6450.1105963843
0	4265	679943.935252132847	5783.5386689532
0	4274	682300.093095135267	6730.116395173
0	4300	688896.298762590739	10277.660327844
0	4328	691846.559501594072	7436.9891345327
0	4342	693391.175759359698	5544.5657790053
0	4350	694236.470646991072	4925.8516292545
0	4358	695958.681309742755	6025.8085133042
0	4376	700474.603834188961	8663.7278686944
0	4403	710807.663427282274	14388.928089002
0	4412	712251.745238937032	5572.0116074139
0	4430	717909.868476459964	10642.941165064
0	4464	723128.772169415985	9094.7113397094
0	4475	724858.345387285211	5817.7214576127
0	4497	726815.651006235709	6082.5731389134
0	4506	729193.772499919976	7587.2570555167
0	4517	729936.616585390653	5271.3709983259
0	4550	734597.511350133864	8422.6833571003
0	4555	734834.111034946712	5207.5858202674
0	4564	737541.15412798621	6744.0515541776
0	4582	742404.790747487113	8373.3621094507
0	4611	747324.139931325505	8759.3068779024
0	4633	750447.095242476736	7626.3083519493
0	4641	752383.848547079412	6353.5307268905
0	4650	753297.628737054044	6180.5599118274
0	4681	758785.698568871194	9826.1063178844
0	4695	759404.339388532024	4982.6376591519
0	4725	762707.208940837219	8197.0815184305
0	4733	763677.849648523787	5202.5409802081
0	4744	764250.043763448756	3963.1521085016
0	4749	764530.840823257552	5328.0676353397
0	4768	771751.662071710741	11178.232569281
0	4810	777548.38228488675	10036.946530148
0	4837	779839.901736770741	6530.399630594
0	4851	780492.860127611459	5343.4015610799
0	4859	781240.602518477916	4603.5517993206
0	4870	782779.509829180735	5855.670998844
0	4876	783138.16288345125	4672.0380701055
0	4884	784939.6167099482	6418.5277444794
0	4911	793532.818183931192	13727.078650162
0	4920	795213.413881944078	6341.8355366639
0	4946	801626.90954188732	10573.441434779
0	4954	803792.229857388319	5999.6836785968
0	4988	808125.340753543996	8624.0491720053
0	5005	810172.613438451918	5941.0440086337
0	5013	811623.08886287316	5408.4148545358
0	5022	813613.398317335447	6133.9513096686
0	5047	818912.632259257091	10056.020131376
0	5056	821597.120658780761	7245.324746682
0	5091	828301.043642912461	10734.370799714
0	5102	829380.415698039641	4649.3390257623
0	5110	829690.190057138531	5854.2065774677
0	5132	833543.045331094389	8643.4034453959
0	5141	834098.893680556849	4430.8832494396
0	5169	838528.175268910547	8694.2622520797
0	5194	841968.164911381513	6816.1159932768
0	5199	842269.173125934856	4336.0550006552
0	5208	844254.705182989223	5921.2291603728
0	5229	850642.682492455671	10446.082819126
0	5243	854767.47592084616	8872.1296537781
0	5262	862901.772126368271	12520.624895673
0	5289	871552.39258441005	12912.329131554
0	5300	872616.664263229766	5638.3791692234
0	5339	876665.644522506704	8415.3990558347
0	5347	877177.7641688585	4663.6123929495
0	5372	879452.869025597312	6423.5942021239
0	5380	880175.720508990141	4895.521258176
0	5407	881738.194898117975	4319.3647346682
0	5416	882066.031175879284	6221.3061618354
0	5430	885139.958563191196	7297.2129713225
0	5441	885607.49990363853	5314.8028749027
0	5446	885899.388849653653	4760.1444026548
0	5475	891171.879753019538	9421.379693631
0	5499	892349.514979712235	4941.8346854715
0	5513	895106.697022347971	6685.8868929591
0	5521	895506.03219417551	4475.3752223149
0	5529	895961.418484520602	4299.0655382664
0	5590	901208.137697329942	9096.7831455206
0	5598	901502.237176015029	4558.7051287889
0	5603	901756.487519008838	4493.6821707141
0	5611	902105.262917113986	4854.8685753787
0	5622	902634.93006601241	5650.3505918843
0	5627	902931.541993232413	5380.7629897305
0	5645	908201.556630791536	9522.8616841583
0	5664	916262.009112228196	11815.418840009
0	5711	929588.483289676405	17620.626879576
0	5719	929836.326600206849	4565.6263105431
0	5725	930173.005187322408	4562.7468928746
0	5745	933440.206835043666	7457.4641869961
0	5769	935294.361630399208	6271.6112186889
0	5783	937460.097321690449	6545.3050655306
0	5794	938611.874063967718	5491.8701683636
0	5799	938956.375325254836	4634.8862983867
0	5834	945711.701728601556	4145.2301822532
0	5845	946418.379725663483	11309.787846184
0	5867	948175.114777421678	6208.4959366049
0	5887	951060.195311885628	7696.7458735016
0	5892	951388.324558548	5176.8625526765
0	5900	952987.408913191618	5462.7797274995
0	5937	959654.43394831334	11447.450584247
0	5951	961591.846526462411	6022.8985754281
0	5959	962308.528356949267	4780.8604390639
0	5968	963111.052408360346	5245.7406378893
0	6009	968581.650403967138	8982.0220657441
0	6017	968898.578322325359	4579.3584914514
0	6026	969594.372159124722	4462.2115860417
0	6034	970973.325684065023	5746.4811118454
0	6054	983658.331855840258	16342.261260894
0	6089	992669.294154331637	12684.078531998
0	6098	993343.35156296099	5296.6475134082
0	6123	996353.13930532067	7564.3903383982
0	6147	998902.880306315129	7386.9881431738
0	6156	1000039.320722133857	5313.1499512956
0	6164	1001211.108985245962	5662.7932486216
0	6172	1001985.358090059388	5051.4456691582
0	6190	1006112.294270912583	8215.175391178
0	6216	1012874.206119009937	10046.787585167
0	6244	1016954.866886787511	8490.1204365264
0	6258	1018546.643714154951	6310.8096369154
0	6267	1020769.152212069051	6335.0866221586
0	6275	1021346.858503970008	5278.5857690126
0	6311	1034310.899787407829	17426.150019498
0	6323	1035918.167768617529	5721.190962502
0	6336	1036491.828546060983	4841.8364710058
1	797	124379.622061664041	0
1	806	126824.179752629066	0
1	814	127176.752683199652	281.43997035491
1	831	129637.08180733427	0
1	855	131616.09827059179	0
1	864	133456.41365216456	0
1	880	134121.478865405383	0
1	914	139788.221528216475	0
1	931	143957.18992606214	0
1	940	144649.017447739403	0
1	957	148858.195728082788	0
1	968	149163.441912683868	10.950747188342
1	999	155947.00772747535	0
1	1017	159946.77836163293	0
1	1025	161714.46783748205	0
1	1034	162858.255952979775	0
1	1042	163456.978714942839	0
1	1058	164246.480944362924	177.17402728444
1	1075	165658.921064477337	280.03837514084
1	1091	167006.8616418383	78.102500932055
1	1116	168513.781952241296	0
1	1140	170831.311198817536	0
1	1149	172372.642814694452	0
1	1165	173459.657369133591	16.086943440795
1	1174	175032.197990367652	0
1	1207	177559.029220324987	0
1	1234	186266.657621340465	0
1	1242	187230.560897265162	0
1	1250	188074.393652836416	0
1	1258	188465.86771772225	0
1	1301	195227.889809931352	0
1	1320	205192.320728897408	0
1	1337	209928.242034963458	0
1	1346	211090.272062928444	0
1	1354	212228.735186767357	0
1	1389	219077.797638509165	0
1	1397	221843.287676335376	0
1	1406	222150.461699763245	34.216355676779
1	1422	223796.163604365406	0
1	1447	226552.200904826119	0
1	1455	226925.507932582683	0
1	1472	229094.866097319947	0
1	1505	233697.568396087597	0
1	1523	238426.583679896969	0
1	1531	239993.008451831845	0
1	1540	241263.453311852226	0
1	1556	242667.925927504236	0
1	1564	242966.872786504903	119.85668581856
1	1589	245672.460575295218	0
1	1597	245979.464186977262	0
1	1614	246571.111839819124	8.580454310148
1	1630	247174.656884674896	0
1	1666	251163.961367749247	129.19147266774
1	1680	252293.354533579575	0
1	1705	257532.764674275867	0
1	1713	257835.177503680231	272.95878217591
1	1722	258098.785966308644	131.68002849359
1	1756	265198.64051778797	0
1	1764	265554.500788193638	0
1	1772	265977.365761201793	0
1	1781	267165.567939500153	0
1	1789	269108.282878638738	0
1	1830	271137.070112523881	0
1	1838	271453.723019300475	0
1	1855	274617.610956149529	0
1	1863	274879.538160802254	147.79266262065
1	1906	284779.153230846892	0
1	1915	286120.29031619235	0
1	1923	287496.036979069093	0
1	1957	291945.980970579118	0
1	1975	298740.486225873626	0
1	1993	305424.85258594188	0
1	2001	305760.919393452563	2.689400158791
1	2027	310365.93623101031	0
1	2035	311940.642256515096	0
1	2044	313676.105822241321	0
1	2069	316432.200709851356	30.997651882975
1	2086	318502.170097402012	0
1	2094	320139.020526675127	0
1	2119	323904.691972892538	0
1	2137	327750.158176459568	0
1	2154	330890.254813613278	0
1	2171	333132.348769784556	0
1	2196	338627.984200859926	0
1	2204	338929.391998001026	175.2209629321
1	2232	348992.076482436827	0
1	2249	353870.833636033247	0
1	2258	355377.711538777113	0
1	2266	355715.917506680564	294.42005708767
1	2291	359952.821049175297	135.15305694998
1	2303	360235.232529706259	228.46434543787
1	2317	363741.477477784244	0
1	2336	364340.011145236676	135.50391358449
1	2350	367728.564367700513	0
1	2375	371097.280921590893	0
1	2401	375177.070617781122	0
1	2409	375643.499316873389	0
1	2417	375995.402592265515	261.5926636951
1	2451	382786.403011873734	0
1	2459	383130.705253869056	91.409182880449
1	2485	387294.683068078535	0
1	2493	388831.546553808465	0
1	2501	389172.616885380575	17.869984823333
1	2509	389609.304880235503	0
1	2552	397666.052920807095	0
1	2560	397991.978018513671	310.41603701781
1	2568	398766.747398611171	0
1	2577	399774.280296650749	0
1	2585	400350.158079164989	0
1	2636	410582.936637536433	0
1	2644	410885.180134170834	40.861271956396
1	2653	411202.88891008467	75.106620843915
1	2661	412416.143863045587	0
1	2704	420540.968709761863	0
1	2712	422025.730373184716	0
1	2720	422365.41074204883	110.6441235465
1	2729	423342.456952865477	0
1	2737	424228.239298870741	0
1	2788	434885.897383797605	0
1	2806	439099.18042467824	0
1	2814	439738.265453789919	0
1	2822	439989.922450498711	0
1	2830	440306.893572695815	200.11800937514
1	2839	441171.778292250088	0
1	2847	441470.054351747505	23.886458108487
1	2855	442498.091884881615	0
1	2922	452756.988019837611	0
1	2940	458066.944943618395	0
1	2949	461603.344701158011	0
1	2966	464569.831901708773	0
1	2992	469592.608903952819	0
1	3010	475766.948574148773	0
1	3018	476158.923795605324	162.96096375653
1	3027	479423.180765980245	0
1	3062	487214.353911783551	0
1	3081	496022.864690447899	0
1	3098	500124.170872362702	61.26812395379
1	3106	500555.700735859157	0
1	3132	505646.122563600651	0
1	3150	510935.482693496319	0
1	3158	512643.06127315534	0
1	3167	513159.830879863213	0
1	3183	515575.371122175832	0
1	3200	516790.427730618539	0
1	3216	518119.654534906996	0
1	3233	519742.082188793773	220.68352559233
1	3249	520438.185103979105	0
1	3283	525445.719244987595	0
1	3291	525775.360008863751	140.58757343605
1	3308	529735.366504827643	343.73089693429
1	3316	529933.340100881152	93.930424221847
1	3333	532015.949498894292	0
1	3349	533731.71581867404	0
1	3358	534082.442983217704	301.70057160171
1	3401	544350.862917645852	0
1	3409	544862.072837524777	0
1	3435	551563.323009839461	0
1	3453	555788.376963601589	0.573900454879
1	3462	559487.606989888193	0
1	3487	563667.29541035403	240.70950737984
1	3507	575306.956456050577	0
1	3516	576474.332969215268	0
1	3524	576858.058959519782	0
1	3532	578691.495066498005	0
1	3560	580631.407955544226	187.40603091564
1	3582	583020.707345122211	0
1	3590	583693.559766931499	0
1	3615	587375.660084527048	184.58683315507
1	3641	591699.752105752923	142.04082083926
1	3649	593787.410948053523	0
1	3658	594534.922832362222	0
1	3666	594977.276285920506	0
1	3683	597487.28062301177	0
1	3724	601495.680049080853	249.17133360716
1	3732	601817.25795476164	125.01123456609
1	3741	604340.241542204026	0
1	3766	607773.954796950595	0
1	3791	611018.546849780964	34.158615875543
1	3800	613172.394502428578	0
1	3808	613450.602640531793	192.22128970925
1	3825	616350.243349941405	0
1	3850	618352.737385351383	0
1	3876	626610.325917105093	0
1	3894	631371.350177146221	0
1	3903	634707.242551181507	0
1	3919	635489.616908374733	0
1	3928	636364.788660085987	0
1	3936	636733.860733256975	0
1	3944	638050.73255925092	0
1	3985	641850.731864351823	0
1	3997	642178.449032831954	164.67902507914
1	4010	643695.898085820289	0
1	4035	646774.98770381596	230.34447078409
1	4043	647410.799136410262	0
1	4077	651715.055907682144	284.40250740514
1	4094	656993.94034241129	0
1	4103	657290.519130875374	134.0439978012
1	4111	658511.284330386898	0
1	4120	660196.046288926995	0
1	4162	667330.729129441103	0
1	4171	669310.89345316724	0
1	4179	670060.878298951191	0
1	4196	672134.813905303859	0
1	4220	674476.470512142859	316.07392896326
1	4229	675569.976699962218	0
1	4254	678618.638434746668	0
1	4280	684409.570367061328	0
1	4289	687846.609980354358	0
1	4305	689310.619017736569	0
1	4313	689932.87279643851	0
1	4330	691846.559501594072	35.683536099554
1	4364	696418.73533828008	0
1	4383	706679.73363152318	0
1	4391	707266.927311396083	0
1	4418	714034.060829706573	0
1	4435	719040.623929672515	0
1	4444	720733.077867322314	0
1	4452	721606.515444403309	0
1	4477	724858.345387285211	193.09980022042
1	4486	726174.827993033564	0
1	4519	729936.616585390653	310.09137071131
1	4527	730797.102573808637	0
1	4536	734031.428638036407	0
1	4570	738564.833053423089	0
1	4587	742820.78689052747	0
1	4596	746030.317820188913	0
1	4613	747324.139931325505	207.07110609889
1	4621	748959.59225098679	0
1	4655	754421.70172938014	0
1	4663	754708.22925058636	198.10182817962
1	4683	758785.698568871194	310.38990055554
1	4697	759404.339388532024	201.56620061413
1	4705	760286.891654947182	0
1	4713	760605.005186244195	31.575683814786
1	4755	767511.435754738765	0
1	4773	773309.502106176733	0
1	4782	775149.45856653154	0
1	4790	776637.050719157319	0
1	4798	776942.94592647677	19.107096140076
1	4815	778466.124813345752	0
1	4823	778758.312296884772	237.22333141601
1	4839	779839.901736770741	34.162203001739
1	4890	788871.578345280208	0
1	4899	791053.468107108442	0
1	4925	797792.54617879152	0
1	4934	799501.291581538662	0
1	4960	804231.569429818242	0
1	4968	806214.674008337343	0
1	4977	807479.447007666842	0
1	4993	808856.612127881041	0
1	5027	814351.795912098777	0
1	5036	817566.672843198385	0
1	5062	823835.983479670835	0
1	5070	824731.076672277351	0
1	5079	825010.478137397279	110.83625169881
1	5112	829690.190057138531	22.179626021246
1	5120	830017.877055756738	183.96403892591
1	5146	835152.048918104756	0
1	5155	837933.118125279646	0
1	5171	838528.175268910547	194.69924629413
1	5180	840196.599673330004	0
1	5213	845895.34626706803	0
1	5231	850642.682492455671	261.53526176024
1	5250	858640.063452855842	0
1	5268	866978.28509400638	0
1	5277	868250.245466672022	0
1	5302	872616.664263229766	102.51248732075
1	5311	873029.274823473423	0
1	5319	875280.199250814185	0
1	5327	875844.725014043931	0
1	5352	877418.830163449797	0
1	5360	877842.745591868718	0
1	5385	880292.697028735861	0
1	5393	881139.244446998862	0
1	5418	882066.031175879284	315.53111649072
1	5451	887407.680294240753	0
1	5460	888420.810129388873	0
1	5477	891171.879753019538	141.22278115892
1	5485	891662.352946254179	0
1	5501	892349.514979712235	238.16042790287
1	5534	896943.53204722608	0
1	5549	897269.186605906938	284.60713177886
1	5557	897574.794651114569	324.40030937927
1	5562	897851.00181833874	588.19647004402
1	5567	898175.636366939066	624.85736343719
1	5575	898678.694946633256	0
1	5633	904446.590272219494	0
1	5651	911967.856410100594	0
1	5672	925270.700289663784	0
1	5680	925610.258294447845	0
1	5688	925982.742648047565	0
1	5697	929022.750411710339	0
1	5730	930914.792256159855	0
1	5747	933440.206835043666	320.20293943955
1	5755	934321.489026868154	0
1	5771	935294.361630399208	185.76975091987
1	5805	941566.471546348349	0
1	5813	941966.618840816805	0
1	5822	943363.449438384011	0
1	5847	946418.379725663483	206.91771979199
1	5855	947524.629185692117	0
1	5872	948206.983364065862	0
1	5906	955568.9479510343	0
1	5915	957527.667917885369	0
1	5923	957865.31177047104	0
1	5939	959654.43394831334	54.805610090339
1	5973	964319.219830873981	0
1	5981	965132.16057308306	0
1	5989	965424.181783682725	197.33721146313
1	5998	967316.070594946281	0
1	6042	979985.215622333647	0
1	6061	988046.704049552799	0
1	6069	988788.748966922518	0
1	6078	991515.892163141362	0
1	6103	994726.170770838295	0
1	6111	995548.315736624355	0
1	6128	996933.912420901164	0
1	6136	997897.11887973462	0
1	6178	1002827.418533843176	0
1	6196	1008464.746450261102	0
1	6205	1012235.834077239556	0
1	6222	1014434.065589910415	0
1	6230	1016068.272734957455	0
1	6246	1016954.866886787511	70.117118877742
1	6283	1030196.976806115535	0
1	6291	1031649.992075055138	0
1	6300	1032416.769142278764	0
1	6325	1035918.167768617529	179.28281370729
2	795	124379.622061664041	1
2	797	124379.622061664041	0
2	804	126824.179752629066	1
2	806	126824.179752629066	0
2	809	126895.312712844738	1
2	814	127176.752683199652	0
2	829	129637.08180733427	1
2	831	129637.08180733427	0
2	853	131616.09827059179	1
2	855	131616.09827059179	0
2	862	133456.41365216456	1
2	864	133456.41365216456	0
2	878	134121.478865405383	1
2	880	134121.478865405383	0
2	912	139788.221528216475	1
2	914	139788.221528216475	0
2	929	143957.18992606214	1
2	931	143957.18992606214	0
2	938	144649.017447739403	1
2	940	144649.017447739403	0
2	955	148858.195728082788	1
2	957	148858.195728082788	0
2	963	149152.491165495526	1
2	968	149163.441912683868	0
2	997	155947.00772747535	1
2	999	155947.00772747535	0
2	1015	159946.77836163293	1
2	1017	159946.77836163293	0
2	1023	161714.46783748205	1
2	1025	161714.46783748205	0
2	1032	162858.255952979775	1
2	1034	162858.255952979775	0
2	1040	163456.978714942839	1
2	1042	163456.978714942839	0
2	1053	164069.306917078481	1
2	1058	164246.480944362924	0
2	1070	165378.8826893365	1
2	1075	165658.921064477337	0
2	1086	166928.759140906245	1
2	1091	167006.8616418383	0
2	1114	168513.781952241296	1
2	1116	168513.781952241296	0
2	1138	170831.311198817536	1
2	1140	170831.311198817536	0
2	1147	172372.642814694452	1
2	1149	172372.642814694452	0
2	1160	173443.570425692796	1
2	1165	173459.657369133591	0
2	1172	175032.197990367652	1
2	1174	175032.197990367652	0
2	1205	177559.029220324987	1
2	1207	177559.029220324987	0
2	1232	186266.657621340465	1
2	1234	186266.657621340465	0
2	1240	187230.560897265162	1
2	1242	187230.560897265162	0
2	1248	188074.393652836416	1
2	1250	188074.393652836416	0
2	1256	188465.86771772225	1
2	1258	188465.86771772225	0
2	1299	195227.889809931352	1
2	1301	195227.889809931352	0
2	1318	205192.320728897408	1
2	1320	205192.320728897408	0
2	1335	209928.242034963458	1
2	1337	209928.242034963458	0
2	1344	211090.272062928444	1
2	1346	211090.272062928444	0
2	1352	212228.735186767357	1
2	1354	212228.735186767357	0
2	1387	219077.797638509165	1
2	1389	219077.797638509165	0
2	1395	221843.287676335376	1
2	1397	221843.287676335376	0
2	1401	222116.245344086466	1
2	1406	222150.461699763245	0
2	1420	223796.163604365406	1
2	1422	223796.163604365406	0
2	1445	226552.200904826119	1
2	1447	226552.200904826119	0
2	1453	226925.507932582683	1
2	1455	226925.507932582683	0
2	1470	229094.866097319947	1
2	1472	229094.866097319947	0
2	1503	233697.568396087597	1
2	1505	233697.568396087597	0
2	1521	238426.583679896969	1
2	1523	238426.583679896969	0
2	1529	239993.008451831845	1
2	1531	239993.008451831845	0
2	1538	241263.453311852226	1
2	1540	241263.453311852226	0
2	1554	242667.925927504236	1
2	1556	242667.925927504236	0
2	1559	242847.016100686342	1
2	1564	242966.872786504903	0
2	1587	245672.460575295218	1
2	1589	245672.460575295218	0
2	1595	245979.464186977262	1
2	1597	245979.464186977262	0
2	1609	246562.531385508976	1
2	1614	246571.111839819124	0
2	1628	247174.656884674896	1
2	1630	247174.656884674896	0
2	1661	251034.769895081502	1
2	1666	251163.961367749247	0
2	1678	252293.354533579575	1
2	1680	252293.354533579575	0
2	1703	257532.764674275867	1
2	1705	257532.764674275867	0
2	1708	257562.218721504317	1
2	1713	257835.177503680231	0
2	1716	257967.10593781505	1
2	1722	258098.785966308644	0
2	1754	265198.64051778797	1
2	1756	265198.64051778797	0
2	1762	265554.500788193638	1
2	1764	265554.500788193638	0
2	1770	265977.365761201793	1
2	1772	265977.365761201793	0
2	1779	267165.567939500153	1
2	1781	267165.567939500153	0
2	1787	269108.282878638738	1
2	1789	269108.282878638738	0
2	1828	271137.070112523881	1
2	1830	271137.070112523881	0
2	1836	271453.723019300475	1
2	1838	271453.723019300475	0
2	1853	274617.610956149529	1
2	1855	274617.610956149529	0
2	1858	274731.7454981816	1
2	1863	274879.538160802254	0
2	1904	284779.153230846892	1
2	1906	284779.153230846892	0
2	1913	286120.29031619235	1
2	1915	286120.29031619235	0
2	1921	287496.036979069093	1
2	1923	287496.036979069093	0
2	1955	291945.980970579118	1
2	1957	291945.980970579118	0
2	1973	298740.486225873626	1
2	1975	298740.486225873626	0
2	1991	305424.85258594188	1
2	1993	305424.85258594188	0
2	1996	305758.229993293772	1
2	2001	305760.919393452563	0
2	2025	310365.93623101031	1
2	2027	310365.93623101031	0
2	2033	311940.642256515096	1
2	2035	311940.642256515096	0
2	2042	313676.105822241321	1
2	2044	313676.105822241321	0
2	2064	316401.203057968381	1
2	2069	316432.200709851356	0
2	2084	318502.170097402012	1
2	2086	318502.170097402012	0
2	2092	320139.020526675127	1
2	2094	320139.020526675127	0
2	2117	323904.691972892538	1
2	2119	323904.691972892538	0
2	2135	327750.158176459568	1
2	2137	327750.158176459568	0
2	2152	330890.254813613278	1
2	2154	330890.254813613278	0
2	2169	333132.348769784556	1
2	2171	333132.348769784556	0
2	2194	338627.984200859926	1
2	2196	338627.984200859926	0
2	2199	338754.171035068923	1
2	2204	338929.391998001026	0
2	2230	348992.076482436827	1
2	2232	348992.076482436827	0
2	2247	353870.833636033247	1
2	2249	353870.833636033247	0
2	2256	355377.711538777113	1
2	2258	355377.711538777113	0
2	2261	355421.497449592893	1
2	2266	355715.917506680564	0
2	2286	359817.667992225316	1
2	2291	359952.821049175297	0
2	2295	360006.768184268388	1
2	2303	360235.232529706259	0
2	2315	363741.477477784244	1
2	2317	363741.477477784244	0
2	2331	364204.507231652187	1
2	2336	364340.011145236676	0
2	2348	367728.564367700513	1
2	2350	367728.564367700513	0
2	2373	371097.280921590893	1
2	2375	371097.280921590893	0
2	2399	375177.070617781122	1
2	2401	375177.070617781122	0
2	2407	375643.499316873389	1
2	2409	375643.499316873389	0
2	2412	375733.809928570418	1
2	2417	375995.402592265515	0
2	2449	382786.403011873734	1
2	2451	382786.403011873734	0
2	2454	383039.296070988607	1
2	2459	383130.705253869056	0
2	2483	387294.683068078535	1
2	2485	387294.683068078535	0
2	2491	388831.546553808465	1
2	2493	388831.546553808465	0
2	2496	389154.746900557242	1
2	2501	389172.616885380575	0
2	2507	389609.304880235503	1
2	2509	389609.304880235503	0
2	2550	397666.052920807095	1
2	2552	397666.052920807095	0
2	2555	397681.561981495856	1
2	2560	397991.978018513671	0
2	2566	398766.747398611171	1
2	2568	398766.747398611171	0
2	2575	399774.280296650749	1
2	2577	399774.280296650749	0
2	2583	400350.158079164989	1
2	2585	400350.158079164989	0
2	2634	410582.936637536433	1
2	2636	410582.936637536433	0
2	2639	410844.318862214438	1
2	2644	410885.180134170834	0
2	2648	411127.782289240755	1
2	2653	411202.88891008467	0
2	2659	412416.143863045587	1
2	2661	412416.143863045587	0
2	2702	420540.968709761863	1
2	2704	420540.968709761863	0
2	2710	422025.730373184716	1
2	2712	422025.730373184716	0
2	2715	422254.766618502334	1
2	2720	422365.41074204883	0
2	2727	423342.456952865477	1
2	2729	423342.456952865477	0
2	2735	424228.239298870741	1
2	2737	424228.239298870741	0
2	2786	434885.897383797605	1
2	2788	434885.897383797605	0
2	2804	439099.18042467824	1
2	2806	439099.18042467824	0
2	2812	439738.265453789919	1
2	2814	439738.265453789919	0
2	2820	439989.922450498711	1
2	2822	439989.922450498711	0
2	2825	440106.775563320677	1
2	2830	440306.893572695815	0
2	2837	441171.778292250088	1
2	2839	441171.778292250088	0
2	2842	441446.167893639018	1
2	2847	441470.054351747505	0
2	2853	442498.091884881615	1
2	2855	442498.091884881615	0
2	2920	452756.988019837611	1
2	2922	452756.988019837611	0
2	2938	458066.944943618395	1
2	2940	458066.944943618395	0
2	2947	461603.344701158011	1
2	2949	461603.344701158011	0
2	2964	464569.831901708773	1
2	2966	464569.831901708773	0
2	2990	469592.608903952819	1
2	2992	469592.608903952819	0
2	3008	475766.948574148773	1
2	3010	475766.948574148773	0
2	3013	475995.962831848794	1
2	3018	476158.923795605324	0
2	3025	479423.180765980245	1
2	3027	479423.180765980245	0
2	3060	487214.353911783551	1
2	3062	487214.353911783551	0
2	3079	496022.864690447899	1
2	3081	496022.864690447899	0
2	3093	500062.902748408912	1
2	3098	500124.170872362702	0
2	3104	500555.700735859157	1
2	3106	500555.700735859157	0
2	3130	505646.122563600651	1
2	3132	505646.122563600651	0
2	3148	510935.482693496319	1
2	3150	510935.482693496319	0
2	3156	512643.06127315534	1
2	3158	512643.06127315534	0
2	3165	513159.830879863213	1
2	3167	513159.830879863213	0
2	3181	515575.371122175832	1
2	3183	515575.371122175832	0
2	3198	516790.427730618539	1
2	3200	516790.427730618539	0
2	3214	518119.654534906996	1
2	3216	518119.654534906996	0
2	3228	519521.398663201441	1
2	3233	519742.082188793773	0
2	3247	520438.185103979105	1
2	3249	520438.185103979105	0
2	3281	525445.719244987595	1
2	3283	525445.719244987595	0
2	3286	525634.7724354277	1
2	3291	525775.360008863751	0
2	3303	529391.635607893357	1
2	3308	529735.366504827643	0
2	3311	529839.409676659305	1
2	3316	529933.340100881152	0
2	3331	532015.949498894292	1
2	3333	532015.949498894292	0
2	3347	533731.71581867404	1
2	3349	533731.71581867404	0
2	3352	533780.742411615994	1
2	3358	534082.442983217704	0
2	3399	544350.862917645852	1
2	3401	544350.862917645852	0
2	3407	544862.072837524777	1
2	3409	544862.072837524777	0
2	3433	551563.323009839461	1
2	3435	551563.323009839461	0
2	3448	555787.80306314671	1
2	3453	555788.376963601589	0
2	3460	559487.606989888193	1
2	3462	559487.606989888193	0
2	3482	563426.585902974187	1
2	3487	563667.29541035403	0
2	3505	575306.956456050577	1
2	3507	575306.956456050577	0
2	3514	576474.332969215268	1
2	3516	576474.332969215268	0
2	3522	576858.058959519782	1
2	3524	576858.058959519782	0
2	3530	578691.495066498005	1
2	3532	578691.495066498005	0
2	3552	580444.001924628588	1
2	3560	580631.407955544226	0
2	3580	583020.707345122211	1
2	3582	583020.707345122211	0
2	3588	583693.559766931499	1
2	3590	583693.559766931499	0
2	3610	587191.073251371979	1
2	3615	587375.660084527048	0
2	3636	591557.711284913659	1
2	3641	591699.752105752923	0
2	3647	593787.410948053523	1
2	3649	593787.410948053523	0
2	3656	594534.922832362222	1
2	3658	594534.922832362222	0
2	3664	594977.276285920506	1
2	3666	594977.276285920506	0
2	3681	597487.28062301177	1
2	3683	597487.28062301177	0
2	3719	601246.508715473693	1
2	3724	601495.680049080853	0
2	3727	601692.246720195549	1
2	3732	601817.25795476164	0
2	3739	604340.241542204026	1
2	3741	604340.241542204026	0
2	3764	607773.954796950595	1
2	3766	607773.954796950595	0
2	3786	610984.388233905421	1
2	3791	611018.546849780964	0
2	3798	613172.394502428578	1
2	3800	613172.394502428578	0
2	3803	613258.381350822547	1
2	3808	613450.602640531793	0
2	3823	616350.243349941405	1
2	3825	616350.243349941405	0
2	3848	618352.737385351383	1
2	3850	618352.737385351383	0
2	3874	626610.325917105093	1
2	3876	626610.325917105093	0
2	3892	631371.350177146221	1
2	3894	631371.350177146221	0
2	3901	634707.242551181507	1
2	3903	634707.242551181507	0
2	3917	635489.616908374733	1
2	3919	635489.616908374733	0
2	3926	636364.788660085987	1
2	3928	636364.788660085987	0
2	3934	636733.860733256975	1
2	3936	636733.860733256975	0
2	3942	638050.73255925092	1
2	3944	638050.73255925092	0
2	3983	641850.731864351823	1
2	3985	641850.731864351823	0
2	3992	642013.770007752816	1
2	3997	642178.449032831954	0
2	4008	643695.898085820289	1
2	4010	643695.898085820289	0
2	4030	646544.643233031867	1
2	4035	646774.98770381596	0
2	4041	647410.799136410262	1
2	4043	647410.799136410262	0
2	4072	651430.653400277	1
2	4077	651715.055907682144	0
2	4092	656993.94034241129	1
2	4094	656993.94034241129	0
2	4098	657156.47513307417	1
2	4103	657290.519130875374	0
2	4109	658511.284330386898	1
2	4111	658511.284330386898	0
2	4118	660196.046288926995	1
2	4120	660196.046288926995	0
2	4160	667330.729129441103	1
2	4162	667330.729129441103	0
2	4169	669310.89345316724	1
2	4171	669310.89345316724	0
2	4177	670060.878298951191	1
2	4179	670060.878298951191	0
2	4194	672134.813905303859	1
2	4196	672134.813905303859	0
2	4215	674160.396583179601	1
2	4220	674476.470512142859	0
2	4227	675569.976699962218	1
2	4229	675569.976699962218	0
2	4252	678618.638434746668	1
2	4254	678618.638434746668	0
2	4278	684409.570367061328	1
2	4280	684409.570367061328	0
2	4287	687846.609980354358	1
2	4289	687846.609980354358	0
2	4303	689310.619017736569	1
2	4305	689310.619017736569	0
2	4311	689932.87279643851	1
2	4313	689932.87279643851	0
2	4325	691810.875965494518	1
2	4330	691846.559501594072	0
2	4362	696418.73533828008	1
2	4364	696418.73533828008	0
2	4381	706679.73363152318	1
2	4383	706679.73363152318	0
2	4389	707266.927311396083	1
2	4391	707266.927311396083	0
2	4416	714034.060829706573	1
2	4418	714034.060829706573	0
2	4433	719040.623929672515	1
2	4435	719040.623929672515	0
2	4442	720733.077867322314	1
2	4444	720733.077867322314	0
2	4450	721606.515444403309	1
2	4452	721606.515444403309	0
2	4472	724665.245587064794	1
2	4477	724858.345387285211	0
2	4484	726174.827993033564	1
2	4486	726174.827993033564	0
2	4514	729626.525214679343	1
2	4519	729936.616585390653	0
2	4525	730797.102573808637	1
2	4527	730797.102573808637	0
2	4534	734031.428638036407	1
2	4536	734031.428638036407	0
2	4568	738564.833053423089	1
2	4570	738564.833053423089	0
2	4585	742820.78689052747	1
2	4587	742820.78689052747	0
2	4594	746030.317820188913	1
2	4596	746030.317820188913	0
2	4608	747117.068825226617	1
2	4613	747324.139931325505	0
2	4619	748959.59225098679	1
2	4621	748959.59225098679	0
2	4653	754421.70172938014	1
2	4655	754421.70172938014	0
2	4658	754510.127422406744	1
2	4663	754708.22925058636	0
2	4675	758475.308668315659	1
2	4683	758785.698568871194	0
2	4692	759202.773187917892	1
2	4697	759404.339388532024	0
2	4703	760286.891654947182	1
2	4705	760286.891654947182	0
2	4708	760573.429502429409	1
2	4713	760605.005186244195	0
2	4753	767511.435754738765	1
2	4755	767511.435754738765	0
2	4771	773309.502106176733	1
2	4773	773309.502106176733	0
2	4780	775149.45856653154	1
2	4782	775149.45856653154	0
2	4788	776637.050719157319	1
2	4790	776637.050719157319	0
2	4793	776923.838830336694	1
2	4798	776942.94592647677	0
2	4813	778466.124813345752	1
2	4815	778466.124813345752	0
2	4818	778521.088965468762	1
2	4823	778758.312296884772	0
2	4834	779805.739533769002	1
2	4839	779839.901736770741	0
2	4888	788871.578345280208	1
2	4890	788871.578345280208	0
2	4897	791053.468107108442	1
2	4899	791053.468107108442	0
2	4923	797792.54617879152	1
2	4925	797792.54617879152	0
2	4932	799501.291581538662	1
2	4934	799501.291581538662	0
2	4958	804231.569429818242	1
2	4960	804231.569429818242	0
2	4966	806214.674008337343	1
2	4968	806214.674008337343	0
2	4975	807479.447007666842	1
2	4977	807479.447007666842	0
2	4991	808856.612127881041	1
2	4993	808856.612127881041	0
2	5025	814351.795912098777	1
2	5027	814351.795912098777	0
2	5034	817566.672843198385	1
2	5036	817566.672843198385	0
2	5060	823835.983479670835	1
2	5062	823835.983479670835	0
2	5068	824731.076672277351	1
2	5070	824731.076672277351	0
2	5073	824899.641885698469	1
2	5079	825010.478137397279	0
2	5107	829668.010431117285	1
2	5112	829690.190057138531	0
2	5115	829833.913016830832	1
2	5120	830017.877055756738	0
2	5144	835152.048918104756	1
2	5146	835152.048918104756	0
2	5153	837933.118125279646	1
2	5155	837933.118125279646	0
2	5166	838333.476022616419	1
2	5171	838528.175268910547	0
2	5178	840196.599673330004	1
2	5180	840196.599673330004	0
2	5211	845895.34626706803	1
2	5213	845895.34626706803	0
2	5226	850381.147230695434	1
2	5231	850642.682492455671	0
2	5248	858640.063452855842	1
2	5250	858640.063452855842	0
2	5266	866978.28509400638	1
2	5268	866978.28509400638	0
2	5275	868250.245466672022	1
2	5277	868250.245466672022	0
2	5297	872514.151775909013	1
2	5302	872616.664263229766	0
2	5309	873029.274823473423	1
2	5311	873029.274823473423	0
2	5317	875280.199250814185	1
2	5319	875280.199250814185	0
2	5325	875844.725014043931	1
2	5327	875844.725014043931	0
2	5350	877418.830163449797	1
2	5352	877418.830163449797	0
2	5358	877842.745591868718	1
2	5360	877842.745591868718	0
2	5383	880292.697028735861	1
2	5385	880292.697028735861	0
2	5391	881139.244446998862	1
2	5393	881139.244446998862	0
2	5412	881750.500059388565	1
2	5418	882066.031175879284	0
2	5449	887407.680294240753	1
2	5451	887407.680294240753	0
2	5458	888420.810129388873	1
2	5460	888420.810129388873	0
2	5472	891030.65697186062	1
2	5477	891171.879753019538	0
2	5483	891662.352946254179	1
2	5485	891662.352946254179	0
2	5496	892111.354551809366	1
2	5501	892349.514979712235	0
2	5532	896943.53204722608	1
2	5534	896943.53204722608	0
2	5537	896984.579474128078	1
2	5541	897250.394341735303	2
2	5544	897262.80534829472	3
2	5549	897269.186605906938	2
2	5552	897550.779003501879	3
2	5557	897574.794651114569	2
2	5562	897851.00181833874	1
2	5567	898175.636366939066	0
2	5573	898678.694946633256	1
2	5575	898678.694946633256	0
2	5631	904446.590272219494	1
2	5633	904446.590272219494	0
2	5649	911967.856410100594	1
2	5651	911967.856410100594	0
2	5670	925270.700289663784	1
2	5672	925270.700289663784	0
2	5678	925610.258294447845	1
2	5680	925610.258294447845	0
2	5686	925982.742648047565	1
2	5688	925982.742648047565	0
2	5695	929022.750411710339	1
2	5697	929022.750411710339	0
2	5728	930914.792256159855	1
2	5730	930914.792256159855	0
2	5742	933120.003895604112	1
2	5747	933440.206835043666	0
2	5753	934321.489026868154	1
2	5755	934321.489026868154	0
2	5766	935108.591879479337	1
2	5771	935294.361630399208	0
2	5803	941566.471546348349	1
2	5805	941566.471546348349	0
2	5811	941966.618840816805	1
2	5813	941966.618840816805	0
2	5820	943363.449438384011	1
2	5822	943363.449438384011	0
2	5842	946211.462005871492	1
2	5847	946418.379725663483	0
2	5853	947524.629185692117	1
2	5855	947524.629185692117	0
2	5870	948206.983364065862	1
2	5872	948206.983364065862	0
2	5904	955568.9479510343	1
2	5906	955568.9479510343	0
2	5913	957527.667917885369	1
2	5915	957527.667917885369	0
2	5921	957865.31177047104	1
2	5923	957865.31177047104	0
2	5934	959599.628338223001	1
2	5939	959654.43394831334	0
2	5971	964319.219830873981	1
2	5973	964319.219830873981	0
2	5979	965132.16057308306	1
2	5981	965132.16057308306	0
2	5984	965226.844572219596	1
2	5989	965424.181783682725	0
2	5996	967316.070594946281	1
2	5998	967316.070594946281	0
2	6040	979985.215622333647	1
2	6042	979985.215622333647	0
2	6059	988046.704049552799	1
2	6061	988046.704049552799	0
2	6067	988788.748966922518	1
2	6069	988788.748966922518	0
2	6076	991515.892163141362	1
2	6078	991515.892163141362	0
2	6101	994726.170770838295	1
2	6103	994726.170770838295	0
2	6109	995548.315736624355	1
2	6111	995548.315736624355	0
2	6126	996933.912420901164	1
2	6128	996933.912420901164	0
2	6134	997897.11887973462	1
2	6136	997897.11887973462	0
2	6176	1002827.418533843176	1
2	6178	1002827.418533843176	0
2	6194	1008464.746450261102	1
2	6196	1008464.746450261102	0
2	6203	1012235.834077239556	1
2	6205	1012235.834077239556	0
2	6220	1014434.065589910415	1
2	6222	1014434.065589910415	0
2	6228	1016068.272734957455	1
2	6230	1016068.272734957455	0
2	6241	1016884.749767909769	1
2	6246	1016954.866886787511	0
2	6281	1030196.976806115535	1
2	6283	1030196.976806115535	0
2	6289	1031649.992075055138	1
2	6291	1031649.992075055138	0
2	6298	1032416.769142278764	1
2	6300	1032416.769142278764	0
2	6320	1035738.884954910241	1
2	6325	1035918.167768617529	0
3	822	128428.698782027608	0
3	839	130721.020918207036	0
3	847	131069.736914796518	242.58659615566
3	872	133802.916958709663	253.93857658242
3	889	135444.191039100032	0
3	897	137452.770186835286	0
3	905	137753.760443798386	88.855609396174
3	923	143279.738574723129	0
3	949	147752.958524487914	0
3	973	149436.886677701735	341.93925941093
3	982	152606.298905976241	0
3	990	152927.142187059638	92.665978943699
3	1009	159509.964661461832	0
3	1050	163922.844490944468	0
3	1067	165361.03227278636	0
3	1083	166715.328307195636	0
3	1099	167387.433010153644	0
3	1107	167960.414969593029	0
3	1124	169686.312920967631	0
3	1132	170539.720908055776	0
3	1157	173164.818054211348	0
3	1182	175484.837270694235	0
3	1190	176332.48937438865	0
3	1199	177226.746883528766	0
3	1215	179198.408029119241	0
3	1224	181933.923499761217	0
3	1267	190395.101483873856	0
3	1275	190942.698843998891	0
3	1284	192526.18944644394	0
3	1292	192885.496649072672	280.88584762541
3	1310	199447.917117766417	0
3	1329	209437.119290384838	0
3	1363	213816.560707202188	0
3	1371	214830.396544067591	0
3	1379	215878.05473891595	0
3	1414	222941.356996088551	0
3	1431	225437.316899290659	0
3	1439	225777.340919717462	0
3	1463	227806.688616703834	0
3	1480	230842.420112336711	0
3	1489	231148.279839829116	45.783917847067
3	1497	233258.837224715511	0
3	1515	237969.155465357929	0
3	1548	242270.121456385527	0
3	1573	244316.306724140421	0
3	1581	244964.646728079804	0
3	1606	246310.370189507351	0
3	1622	246858.750935015712	92.534417795975
3	1639	249471.619876746249	0
3	1647	249760.891010534883	75.263948856441
3	1655	250900.929369772914	0
3	1671	251502.608637733455	485.6346725772
3	1688	254838.333709691077	0
3	1697	255937.732938450029	0
3	1731	261544.659803047886	0
3	1739	261852.109995829835	194.31225949813
3	1747	262442.096480534264	0
3	1797	269437.688042420154	16.977693192578
3	1805	269692.915199323443	191.44891553022
3	1814	270318.193848064267	0
3	1822	270593.240049326425	102.09667294525
3	1846	272465.34893336243	0
3	1871	275164.780787500173	85.243879762872
3	1879	275603.46563299357	0
3	1888	278592.067196067432	0
3	1896	278890.293225686336	134.25868098339
3	1932	288293.473679268396	0
3	1940	290285.212436633823	0
3	1949	291232.555377225672	0
3	1966	295922.898903217756	0
3	1984	302741.316965261852	0
3	2011	309040.544259732785	0
3	2019	309501.941651521441	0
3	2052	314085.130680355266	0
3	2061	316097.539191085391	0
3	2077	317813.008716046074	0
3	2102	320574.449282081404	0
3	2111	321433.919426982261	0
3	2128	324200.777751239599	216.89003647392
3	2145	328035.362501211071	182.47092697223
3	2162	331462.143778933812	0
3	2179	334342.729377731913	0
3	2188	336709.892966247276	0
3	2214	342784.079490099628	0
3	2222	343141.661029836665	353.36869486775
3	2241	352283.321220331427	0
3	2275	357747.156327313178	0
3	2283	359642.618012793611	0
3	2308	360523.411620859483	464.67045033994
3	2325	364035.746206503018	259.43150932859
3	2341	364602.669907104822	462.14012858473
3	2358	368066.379686809537	0
3	2366	368361.737109858245	216.63211352199
3	2383	371901.388357982312	0
3	2392	374548.423698959932	0
3	2426	379523.204204176741	0
3	2434	379776.835167079374	157.27178653249
3	2442	380106.854090173385	61.278047561165
3	2468	386389.799794970143	0
3	2477	387007.82444397718	0
3	2518	391496.816591051711	0
3	2526	392843.845681872941	0
3	2535	393464.684708893037	0
3	2543	394053.810922833082	0
3	2593	401412.282354030331	0
3	2601	401746.134400884357	322.84880545437
3	2610	402356.84854355225	0
3	2618	403599.093820711636	0
3	2626	403884.355699313861	0
3	2669	413857.543575407856	0
3	2678	414733.160399033476	0
3	2686	415048.509225063736	185.39983803056
3	2694	416426.003003836473	0
3	2745	424576.81926121816	92.362983628247
3	2753	425271.461400964787	0
3	2762	426485.281686989029	0
3	2770	426986.338910130456	0
3	2778	428258.719601686347	0
3	2798	438349.785614147774	0
3	2863	443288.104821596921	0
3	2871	443626.865864760755	115.85047734214
3	2879	443924.099512621587	0
3	2888	444597.456114517846	0
3	2896	445136.218225194502	0
3	2904	445441.723998068533	80.580391263254
3	2912	446039.447474774129	0
3	2932	457227.330243635325	0
3	2958	462201.903914636711	0
3	2975	465388.869277158312	0
3	2984	469076.915985005308	0
3	3001	473290.941169874435	0
3	3035	479822.319584385872	0
3	3044	480372.375830956205	0
3	3053	483190.002113191665	0
3	3071	491794.926919906682	0
3	3090	499841.814951459757	0
3	3115	503688.028997554421	0
3	3124	504255.439560388329	0
3	3141	509868.606624008709	0
3	3175	515065.263201336541	0
3	3192	516307.910684569388	0
3	3208	517086.554952709808	127.37127892537
3	3225	519419.552731509776	0
3	3241	520042.843991181265	114.49016325748
3	3257	521838.039484660942	0
3	3266	523617.326848952449	0
3	3274	524795.434527607761	0
3	3300	529391.048411266012	0
3	3324	530256.298234195257	135.44103308715
3	3341	533327.343064161669	0
3	3366	534445.874783977811	0
3	3374	536163.653215972438	0
3	3383	537752.960145805213	0
3	3391	538028.378802121112	89.964607252585
3	3418	548117.059302025923	0
3	3426	548460.219707067846	100.27332869996
3	3445	555486.208957946636	0
3	3470	559971.218438786465	0
3	3479	563382.951583693445	0
3	3497	567903.525945690789	0
3	3540	578996.658056099934	299.60334585612
3	3549	580341.725692612484	0
3	3565	580939.325057533081	490.07275918896
3	3574	582236.739521817691	0
3	3598	584294.38430950185	0
3	3607	587042.555921611093	0
3	3623	587731.100003446402	0
3	3633	591373.004682360825	0
3	3674	595371.297691866497	0
3	3691	597758.967652262006	0
3	3699	598487.535789562959	0
3	3707	599293.538595486712	0
3	3716	601196.367037631239	0
3	3749	605129.16277919159	0
3	3757	605454.016748971492	23.769458019177
3	3774	608228.107667955544	0
3	3783	610749.627909973135	0
3	3816	614340.314275830048	0
3	3833	616732.744720218325	0
3	3841	617630.715332657218	0
3	3858	620833.442862828763	0
3	3867	621918.497457319657	0
3	3886	630064.356522848757	0
3	3911	635043.838878028009	0
3	3952	638446.283108009343	0
3	3961	639543.445556924409	0
3	3969	640893.612691430528	0
3	3977	641412.269088194829	0
3	4002	642478.558989686588	571.07087966741
3	4019	645933.764920069396	0
3	4027	646511.534115334428	0
3	4051	647735.385865265489	43.45769563114
3	4060	650377.260313318384	0
3	4069	651413.861123417664	0
3	4086	655694.733402281826	0
3	4128	660925.421559957011	0
3	4136	661670.080170818173	0
3	4144	661967.35328083791	223.1814613762
3	4153	664448.810300802189	0
3	4187	670418.980754357057	0
3	4204	673431.212786187782	0
3	4212	674141.745317760303	0
3	4237	676524.71973281399	0
3	4246	678295.032328067524	0
3	4262	679594.472537357823	0
3	4271	681994.554839741261	0
3	4297	688568.203964214749	0
3	4322	691595.360191654767	0
3	4339	693115.091894288284	0
3	4347	693958.217938412161	0
3	4355	695615.417150869913	0
3	4373	700179.854740380462	0
3	4400	710509.458347321157	0
3	4409	711940.263074926634	0
3	4427	717586.754357409605	0
3	4460	722832.79585873468	0
3	4469	724589.479988458579	0
3	4494	726525.602695266111	339.69754820247
3	4502	728854.8919595399	0
3	4511	729602.571519004242	0
3	4547	734309.93132953153	167.27657542625
3	4552	734597.511350133864	339.85553767757
3	4561	737259.316157062099	0
3	4579	742069.796563958866	0
3	4605	747012.840781536808	0
3	4630	750125.174312269861	0
3	4638	752076.645352040724	0
3	4647	753039.542118692421	0
3	4672	758436.647332802426	0
3	4689	759073.922724412486	584.53269661236
3	4722	762383.352099490075	0
3	4730	763353.007074040825	0
3	4738	763949.799989464373	0
3	4746	764250.043763448756	176.86405630624
3	4765	771478.524848358429	0
3	4807	777253.027983195579	79.488522582298
3	4831	779527.61460509336	0
3	4848	780164.805020152537	0
3	4856	780915.512758685646	0
3	4864	782498.009303732125	0
3	4872	782779.509829180735	219.77161874756
3	4881	784644.324920835253	0
3	4908	793262.732340991728	0
3	4916	794941.785414187618	0
3	4943	801296.634831173685	0
3	4951	803473.90799466653	0
3	4985	807806.504438861943	56.739489034189
3	5001	809920.146042332749	0
3	5010	811311.733711016126	0
3	5019	813340.103078972198	0
3	5044	818598.026705900852	0
3	5053	821309.388406588304	0
3	5087	827975.180322612456	0
3	5096	829055.471956297578	0
3	5104	829380.415698039641	293.17966171974
3	5129	833244.321084814155	0
3	5137	833794.618808034012	0
3	5163	838222.259434751989	16.736180646375
3	5188	841641.590522908807	0
3	5196	841968.164911381513	315.6258046777
3	5205	844033.680032602719	0
3	5223	850324.734400443009	0
3	5240	854451.242339608864	0
3	5259	862605.678572154469	0
3	5286	871333.167890413281	0
3	5294	872379.591136093809	0
3	5336	876321.447547459494	0
3	5344	876836.08448832231	0
3	5369	879148.465509805936	0
3	5377	879868.424247990989	0
3	5401	881447.595195789199	286.41272940335
3	5409	881738.194898117975	229.45541154077
3	5426	884842.784819126733	0
3	5435	885291.604075898851	0
3	5443	885607.49990363853	103.53291002747
3	5468	890855.761947862316	0
3	5493	891992.613729515213	47.960072114806
3	5510	894843.119664093802	0
3	5518	895211.097954342091	0
3	5526	895635.548000246608	0
3	5584	900928.259187259302	0
3	5592	901208.137697329942	179.81932942912
3	5600	901502.237176015029	154.61006647786
3	5608	901814.059844323024	0
3	5616	902379.550974437598	0
3	5624	902634.93006601241	72.198813186961
3	5642	907891.920040144556	0
3	5661	915953.568425727559	0
3	5705	929350.827018074777	89.283268378613
3	5713	929588.483289676405	22.604059228688
3	5721	929836.326600206849	155.30548901702
3	5739	933106.713974309063	0
3	5763	934998.510740509392	0
3	5780	937198.141745277566	0
3	5788	938316.983399852033	0
3	5796	938611.874063967718	197.29160772177
3	5831	945422.785307899019	0
3	5839	946124.694694960262	0
3	5863	947853.308232258339	292.21011585904
3	5880	950774.390685867479	0
3	5889	951060.195311885628	186.58313587177
3	5897	952712.304204064264	0
3	5931	959361.51041037126	0
3	5948	961264.066696066328	0
3	5956	962017.615661732435	0
3	5964	962796.097306819788	0
3	6006	968280.504412872374	0
3	6014	968631.445249570267	0
3	6023	969306.328274397473	0
3	6031	970705.456423076112	0
3	6051	983355.611662553277	0
3	6086	992366.325371595685	0
3	6095	993086.568660486469	0
3	6120	996020.151951803425	0
3	6144	998598.938547663281	0
3	6153	999790.848078558092	0
3	6161	1000921.060133973762	0
3	6169	1001690.990261313765	0
3	6187	1005836.3365766994	0
3	6213	1012563.012462396964	0
3	6238	1016648.849664795851	0
3	6255	1018268.299645584182	0
3	6264	1020503.93220291981	0
3	6272	1021095.531017528283	0
3	6308	1034023.999873915701	0
3	6317	1035617.328429019595	0
3	6333	1036212.738561953601	39.696259590011
4	820	128428.698782027608	1
4	822	128428.698782027608	0
4	837	130721.020918207036	1
4	839	130721.020918207036	0
4	842	130827.150318640861	1
4	847	131069.736914796518	0
4	867	133548.978382127245	1
4	872	133802.916958709663	0
4	887	135444.191039100032	1
4	889	135444.191039100032	0
4	895	137452.770186835286	1
4	897	137452.770186835286	0
4	900	137664.904834402212	1
4	905	137753.760443798386	0
4	921	143279.738574723129	1
4	923	143279.738574723129	0
4	947	147752.958524487914	1
4	949	147752.958524487914	0
4	960	149094.947418290806	1
4	973	149436.886677701735	0
4	980	152606.298905976241	1
4	982	152606.298905976241	0
4	985	152834.476208115939	1
4	990	152927.142187059638	0
4	1007	159509.964661461832	1
4	1009	159509.964661461832	0
4	1048	163922.844490944468	1
4	1050	163922.844490944468	0
4	1065	165361.03227278636	1
4	1067	165361.03227278636	0
4	1081	166715.328307195636	1
4	1083	166715.328307195636	0
4	1097	167387.433010153644	1
4	1099	167387.433010153644	0
4	1105	167960.414969593029	1
4	1107	167960.414969593029	0
4	1122	169686.312920967631	1
4	1124	169686.312920967631	0
4	1130	170539.720908055776	1
4	1132	170539.720908055776	0
4	1155	173164.818054211348	1
4	1157	173164.818054211348	0
4	1180	175484.837270694235	1
4	1182	175484.837270694235	0
4	1188	176332.48937438865	1
4	1190	176332.48937438865	0
4	1197	177226.746883528766	1
4	1199	177226.746883528766	0
4	1213	179198.408029119241	1
4	1215	179198.408029119241	0
4	1222	181933.923499761217	1
4	1224	181933.923499761217	0
4	1265	190395.101483873856	1
4	1267	190395.101483873856	0
4	1273	190942.698843998891	1
4	1275	190942.698843998891	0
4	1282	192526.18944644394	1
4	1284	192526.18944644394	0
4	1287	192604.610801447267	1
4	1292	192885.496649072672	0
4	1308	199447.917117766417	1
4	1310	199447.917117766417	0
4	1327	209437.119290384838	1
4	1329	209437.119290384838	0
4	1361	213816.560707202188	1
4	1363	213816.560707202188	0
4	1369	214830.396544067591	1
4	1371	214830.396544067591	0
4	1377	215878.05473891595	1
4	1379	215878.05473891595	0
4	1412	222941.356996088551	1
4	1414	222941.356996088551	0
4	1429	225437.316899290659	1
4	1431	225437.316899290659	0
4	1437	225777.340919717462	1
4	1439	225777.340919717462	0
4	1461	227806.688616703834	1
4	1463	227806.688616703834	0
4	1478	230842.420112336711	1
4	1480	230842.420112336711	0
4	1484	231102.495921982049	1
4	1489	231148.279839829116	0
4	1495	233258.837224715511	1
4	1497	233258.837224715511	0
4	1513	237969.155465357929	1
4	1515	237969.155465357929	0
4	1546	242270.121456385527	1
4	1548	242270.121456385527	0
4	1571	244316.306724140421	1
4	1573	244316.306724140421	0
4	1579	244964.646728079804	1
4	1581	244964.646728079804	0
4	1604	246310.370189507351	1
4	1606	246310.370189507351	0
4	1617	246766.216517219737	1
4	1622	246858.750935015712	0
4	1637	249471.619876746249	1
4	1639	249471.619876746249	0
4	1642	249685.627061678442	1
4	1647	249760.891010534883	0
4	1653	250900.929369772914	1
4	1655	250900.929369772914	0
4	1658	251016.973965156253	1
4	1671	251502.608637733455	0
4	1686	254838.333709691077	1
4	1688	254838.333709691077	0
4	1695	255937.732938450029	1
4	1697	255937.732938450029	0
4	1729	261544.659803047886	1
4	1731	261544.659803047886	0
4	1734	261657.797736331704	1
4	1739	261852.109995829835	0
4	1745	262442.096480534264	1
4	1747	262442.096480534264	0
4	1792	269420.710349227576	1
4	1797	269437.688042420154	0
4	1800	269501.466283793223	1
4	1805	269692.915199323443	0
4	1812	270318.193848064267	1
4	1814	270318.193848064267	0
4	1817	270491.143376381179	1
4	1822	270593.240049326425	0
4	1844	272465.34893336243	1
4	1846	272465.34893336243	0
4	1866	275079.536907737301	1
4	1871	275164.780787500173	0
4	1877	275603.46563299357	1
4	1879	275603.46563299357	0
4	1886	278592.067196067432	1
4	1888	278592.067196067432	0
4	1891	278756.034544702944	1
4	1896	278890.293225686336	0
4	1930	288293.473679268396	1
4	1932	288293.473679268396	0
4	1938	290285.212436633823	1
4	1940	290285.212436633823	0
4	1947	291232.555377225672	1
4	1949	291232.555377225672	0
4	1964	295922.898903217756	1
4	1966	295922.898903217756	0
4	1982	302741.316965261852	1
4	1984	302741.316965261852	0
4	2009	309040.544259732785	1
4	2011	309040.544259732785	0
4	2017	309501.941651521441	1
4	2019	309501.941651521441	0
4	2050	314085.130680355266	1
4	2052	314085.130680355266	0
4	2059	316097.539191085391	1
4	2061	316097.539191085391	0
4	2075	317813.008716046074	1
4	2077	317813.008716046074	0
4	2100	320574.449282081404	1
4	2102	320574.449282081404	0
4	2109	321433.919426982261	1
4	2111	321433.919426982261	0
4	2122	323983.887714765677	1
4	2128	324200.777751239599	0
4	2140	327852.891574238842	1
4	2145	328035.362501211071	0
4	2160	331462.143778933812	1
4	2162	331462.143778933812	0
4	2177	334342.729377731913	1
4	2179	334342.729377731913	0
4	2186	336709.892966247276	1
4	2188	336709.892966247276	0
4	2212	342784.079490099628	1
4	2214	342784.079490099628	0
4	2217	342788.292334968919	1
4	2222	343141.661029836665	0
4	2239	352283.321220331427	1
4	2241	352283.321220331427	0
4	2273	357747.156327313178	1
4	2275	357747.156327313178	0
4	2281	359642.618012793611	1
4	2283	359642.618012793611	0
4	2298	360058.741170519547	1
4	2308	360523.411620859483	0
4	2320	363776.314697174426	1
4	2325	364035.746206503018	0
4	2328	364140.529778520091	1
4	2341	364602.669907104822	0
4	2356	368066.379686809537	1
4	2358	368066.379686809537	0
4	2361	368145.104996336253	1
4	2366	368361.737109858245	0
4	2381	371901.388357982312	1
4	2383	371901.388357982312	0
4	2390	374548.423698959932	1
4	2392	374548.423698959932	0
4	2424	379523.204204176741	1
4	2426	379523.204204176741	0
4	2429	379619.563380546883	1
4	2434	379776.835167079374	0
4	2437	380045.57604261222	1
4	2442	380106.854090173385	0
4	2466	386389.799794970143	1
4	2468	386389.799794970143	0
4	2475	387007.82444397718	1
4	2477	387007.82444397718	0
4	2516	391496.816591051711	1
4	2518	391496.816591051711	0
4	2524	392843.845681872941	1
4	2526	392843.845681872941	0
4	2533	393464.684708893037	1
4	2535	393464.684708893037	0
4	2541	394053.810922833082	1
4	2543	394053.810922833082	0
4	2591	401412.282354030331	1
4	2593	401412.282354030331	0
4	2596	401423.285595429991	1
4	2601	401746.134400884357	0
4	2608	402356.84854355225	1
4	2610	402356.84854355225	0
4	2616	403599.093820711636	1
4	2618	403599.093820711636	0
4	2624	403884.355699313861	1
4	2626	403884.355699313861	0
4	2667	413857.543575407856	1
4	2669	413857.543575407856	0
4	2676	414733.160399033476	1
4	2678	414733.160399033476	0
4	2681	414863.10938703318	1
4	2686	415048.509225063736	0
4	2692	416426.003003836473	1
4	2694	416426.003003836473	0
4	2740	424484.456277589913	1
4	2745	424576.81926121816	0
4	2751	425271.461400964787	1
4	2753	425271.461400964787	0
4	2760	426485.281686989029	1
4	2762	426485.281686989029	0
4	2768	426986.338910130456	1
4	2770	426986.338910130456	0
4	2776	428258.719601686347	1
4	2778	428258.719601686347	0
4	2796	438349.785614147774	1
4	2798	438349.785614147774	0
4	2861	443288.104821596921	1
4	2863	443288.104821596921	0
4	2866	443511.015387418613	1
4	2871	443626.865864760755	0
4	2877	443924.099512621587	1
4	2879	443924.099512621587	0
4	2886	444597.456114517846	1
4	2888	444597.456114517846	0
4	2894	445136.218225194502	1
4	2896	445136.218225194502	0
4	2899	445361.143606805279	1
4	2904	445441.723998068533	0
4	2910	446039.447474774129	1
4	2912	446039.447474774129	0
4	2930	457227.330243635325	1
4	2932	457227.330243635325	0
4	2956	462201.903914636711	1
4	2958	462201.903914636711	0
4	2973	465388.869277158312	1
4	2975	465388.869277158312	0
4	2982	469076.915985005308	1
4	2984	469076.915985005308	0
4	2999	473290.941169874435	1
4	3001	473290.941169874435	0
4	3033	479822.319584385872	1
4	3035	479822.319584385872	0
4	3042	480372.375830956205	1
4	3044	480372.375830956205	0
4	3051	483190.002113191665	1
4	3053	483190.002113191665	0
4	3069	491794.926919906682	1
4	3071	491794.926919906682	0
4	3088	499841.814951459757	1
4	3090	499841.814951459757	0
4	3113	503688.028997554421	1
4	3115	503688.028997554421	0
4	3122	504255.439560388329	1
4	3124	504255.439560388329	0
4	3139	509868.606624008709	1
4	3141	509868.606624008709	0
4	3173	515065.263201336541	1
4	3175	515065.263201336541	0
4	3190	516307.910684569388	1
4	3192	516307.910684569388	0
4	3203	516959.183673784443	1
4	3208	517086.554952709808	0
4	3223	519419.552731509776	1
4	3225	519419.552731509776	0
4	3236	519928.353827923785	1
4	3241	520042.843991181265	0
4	3255	521838.039484660942	1
4	3257	521838.039484660942	0
4	3264	523617.326848952449	1
4	3266	523617.326848952449	0
4	3272	524795.434527607761	1
4	3274	524795.434527607761	0
4	3298	529391.048411266012	1
4	3300	529391.048411266012	0
4	3319	530120.85720110811	1
4	3324	530256.298234195257	0
4	3339	533327.343064161669	1
4	3341	533327.343064161669	0
4	3364	534445.874783977811	1
4	3366	534445.874783977811	0
4	3372	536163.653215972438	1
4	3374	536163.653215972438	0
4	3381	537752.960145805213	1
4	3383	537752.960145805213	0
4	3386	537938.414194868527	1
4	3391	538028.378802121112	0
4	3416	548117.059302025923	1
4	3418	548117.059302025923	0
4	3421	548359.946378367884	1
4	3426	548460.219707067846	0
4	3443	555486.208957946636	1
4	3445	555486.208957946636	0
4	3468	559971.218438786465	1
4	3470	559971.218438786465	0
4	3477	563382.951583693445	1
4	3479	563382.951583693445	0
4	3495	567903.525945690789	1
4	3497	567903.525945690789	0
4	3535	578697.054710243812	1
4	3540	578996.658056099934	0
4	3547	580341.725692612484	1
4	3549	580341.725692612484	0
4	3555	580449.252298344125	1
4	3565	580939.325057533081	0
4	3572	582236.739521817691	1
4	3574	582236.739521817691	0
4	3596	584294.38430950185	1
4	3598	584294.38430950185	0
4	3605	587042.555921611093	1
4	3607	587042.555921611093	0
4	3621	587731.100003446402	1
4	3623	587731.100003446402	0
4	3631	591373.004682360825	1
4	3633	591373.004682360825	0
4	3672	595371.297691866497	1
4	3674	595371.297691866497	0
4	3689	597758.967652262006	1
4	3691	597758.967652262006	0
4	3697	598487.535789562959	1
4	3699	598487.535789562959	0
4	3705	599293.538595486712	1
4	3707	599293.538595486712	0
4	3714	601196.367037631239	1
4	3716	601196.367037631239	0
4	3747	605129.16277919159	1
4	3749	605129.16277919159	0
4	3752	605430.247290952315	1
4	3757	605454.016748971492	0
4	3772	608228.107667955544	1
4	3774	608228.107667955544	0
4	3781	610749.627909973135	1
4	3783	610749.627909973135	0
4	3814	614340.314275830048	1
4	3816	614340.314275830048	0
4	3831	616732.744720218325	1
4	3833	616732.744720218325	0
4	3839	617630.715332657218	1
4	3841	617630.715332657218	0
4	3856	620833.442862828763	1
4	3858	620833.442862828763	0
4	3865	621918.497457319657	1
4	3867	621918.497457319657	0
4	3884	630064.356522848757	1
4	3886	630064.356522848757	0
4	3909	635043.838878028009	1
4	3911	635043.838878028009	0
4	3950	638446.283108009343	1
4	3952	638446.283108009343	0
4	3959	639543.445556924409	1
4	3961	639543.445556924409	0
4	3967	640893.612691430528	1
4	3969	640893.612691430528	0
4	3975	641412.269088194829	1
4	3977	641412.269088194829	0
4	3988	641907.488110019175	1
4	4002	642478.558989686588	0
4	4017	645933.764920069396	1
4	4019	645933.764920069396	0
4	4025	646511.534115334428	1
4	4027	646511.534115334428	0
4	4046	647691.928169634349	1
4	4051	647735.385865265489	0
4	4058	650377.260313318384	1
4	4060	650377.260313318384	0
4	4067	651413.861123417664	1
4	4069	651413.861123417664	0
4	4084	655694.733402281826	1
4	4086	655694.733402281826	0
4	4126	660925.421559957011	1
4	4128	660925.421559957011	0
4	4134	661670.080170818173	1
4	4136	661670.080170818173	0
4	4139	661744.171819461706	1
4	4144	661967.35328083791	0
4	4151	664448.810300802189	1
4	4153	664448.810300802189	0
4	4185	670418.980754357057	1
4	4187	670418.980754357057	0
4	4202	673431.212786187782	1
4	4204	673431.212786187782	0
4	4210	674141.745317760303	1
4	4212	674141.745317760303	0
4	4235	676524.71973281399	1
4	4237	676524.71973281399	0
4	4244	678295.032328067524	1
4	4246	678295.032328067524	0
4	4260	679594.472537357823	1
4	4262	679594.472537357823	0
4	4269	681994.554839741261	1
4	4271	681994.554839741261	0
4	4295	688568.203964214749	1
4	4297	688568.203964214749	0
4	4320	691595.360191654767	1
4	4322	691595.360191654767	0
4	4337	693115.091894288284	1
4	4339	693115.091894288284	0
4	4345	693958.217938412161	1
4	4347	693958.217938412161	0
4	4353	695615.417150869913	1
4	4355	695615.417150869913	0
4	4371	700179.854740380462	1
4	4373	700179.854740380462	0
4	4398	710509.458347321157	1
4	4400	710509.458347321157	0
4	4407	711940.263074926634	1
4	4409	711940.263074926634	0
4	4425	717586.754357409605	1
4	4427	717586.754357409605	0
4	4458	722832.79585873468	1
4	4460	722832.79585873468	0
4	4467	724589.479988458579	1
4	4469	724589.479988458579	0
4	4489	726185.905147063636	1
4	4494	726525.602695266111	0
4	4500	728854.8919595399	1
4	4502	728854.8919595399	0
4	4509	729602.571519004242	1
4	4511	729602.571519004242	0
4	4539	734142.654754105283	1
4	4542	734257.655812456292	2
4	4547	734309.93132953153	1
4	4552	734597.511350133864	0
4	4559	737259.316157062099	1
4	4561	737259.316157062099	0
4	4577	742069.796563958866	1
4	4579	742069.796563958866	0
4	4603	747012.840781536808	1
4	4605	747012.840781536808	0
4	4628	750125.174312269861	1
4	4630	750125.174312269861	0
4	4636	752076.645352040724	1
4	4638	752076.645352040724	0
4	4645	753039.542118692421	1
4	4647	753039.542118692421	0
4	4670	758436.647332802426	1
4	4672	758436.647332802426	0
4	4678	758489.390027800122	1
4	4689	759073.922724412486	0
4	4720	762383.352099490075	1
4	4722	762383.352099490075	0
4	4728	763353.007074040825	1
4	4730	763353.007074040825	0
4	4736	763949.799989464373	1
4	4738	763949.799989464373	0
4	4741	764073.179707142515	1
4	4746	764250.043763448756	0
4	4763	771478.524848358429	1
4	4765	771478.524848358429	0
4	4802	777173.539460613281	1
4	4807	777253.027983195579	0
4	4829	779527.61460509336	1
4	4831	779527.61460509336	0
4	4846	780164.805020152537	1
4	4848	780164.805020152537	0
4	4854	780915.512758685646	1
4	4856	780915.512758685646	0
4	4862	782498.009303732125	1
4	4864	782498.009303732125	0
4	4867	782559.738210433173	1
4	4872	782779.509829180735	0
4	4879	784644.324920835253	1
4	4881	784644.324920835253	0
4	4906	793262.732340991728	1
4	4908	793262.732340991728	0
4	4914	794941.785414187618	1
4	4916	794941.785414187618	0
4	4941	801296.634831173685	1
4	4943	801296.634831173685	0
4	4949	803473.90799466653	1
4	4951	803473.90799466653	0
4	4980	807749.764949827754	1
4	4985	807806.504438861943	0
4	4999	809920.146042332749	1
4	5001	809920.146042332749	0
4	5008	811311.733711016126	1
4	5010	811311.733711016126	0
4	5017	813340.103078972198	1
4	5019	813340.103078972198	0
4	5042	818598.026705900852	1
4	5044	818598.026705900852	0
4	5051	821309.388406588304	1
4	5053	821309.388406588304	0
4	5085	827975.180322612456	1
4	5087	827975.180322612456	0
4	5094	829055.471956297578	1
4	5096	829055.471956297578	0
4	5099	829087.236036319903	1
4	5104	829380.415698039641	0
4	5127	833244.321084814155	1
4	5129	833244.321084814155	0
4	5135	833794.618808034012	1
4	5137	833794.618808034012	0
4	5158	838205.523254105614	1
4	5163	838222.259434751989	0
4	5186	841641.590522908807	1
4	5188	841641.590522908807	0
4	5191	841652.539106703811	1
4	5196	841968.164911381513	0
4	5203	844033.680032602719	1
4	5205	844033.680032602719	0
4	5221	850324.734400443009	1
4	5223	850324.734400443009	0
4	5238	854451.242339608864	1
4	5240	854451.242339608864	0
4	5257	862605.678572154469	1
4	5259	862605.678572154469	0
4	5284	871333.167890413281	1
4	5286	871333.167890413281	0
4	5292	872379.591136093809	1
4	5294	872379.591136093809	0
4	5334	876321.447547459494	1
4	5336	876321.447547459494	0
4	5342	876836.08448832231	1
4	5344	876836.08448832231	0
4	5367	879148.465509805936	1
4	5369	879148.465509805936	0
4	5375	879868.424247990989	1
4	5377	879868.424247990989	0
4	5396	881161.182466385845	1
4	5401	881447.595195789199	0
4	5404	881508.739486577209	1
4	5409	881738.194898117975	0
4	5424	884842.784819126733	1
4	5426	884842.784819126733	0
4	5433	885291.604075898851	1
4	5435	885291.604075898851	0
4	5438	885503.966993611059	1
4	5443	885607.49990363853	0
4	5466	890855.761947862316	1
4	5468	890855.761947862316	0
4	5488	891944.653657400407	1
4	5493	891992.613729515213	0
4	5508	894843.119664093802	1
4	5510	894843.119664093802	0
4	5516	895211.097954342091	1
4	5518	895211.097954342091	0
4	5524	895635.548000246608	1
4	5526	895635.548000246608	0
4	5582	900928.259187259302	1
4	5584	900928.259187259302	0
4	5587	901028.318367900826	1
4	5592	901208.137697329942	0
4	5595	901347.627109537164	1
4	5600	901502.237176015029	0
4	5606	901814.059844323024	1
4	5608	901814.059844323024	0
4	5614	902379.550974437598	1
4	5616	902379.550974437598	0
4	5619	902562.731252825449	1
4	5624	902634.93006601241	0
4	5640	907891.920040144556	1
4	5642	907891.920040144556	0
4	5659	915953.568425727559	1
4	5661	915953.568425727559	0
4	5700	929261.543749696164	1
4	5705	929350.827018074777	0
4	5708	929565.879230447717	1
4	5713	929588.483289676405	0
4	5716	929681.021111189828	1
4	5721	929836.326600206849	0
4	5737	933106.713974309063	1
4	5739	933106.713974309063	0
4	5761	934998.510740509392	1
4	5763	934998.510740509392	0
4	5778	937198.141745277566	1
4	5780	937198.141745277566	0
4	5786	938316.983399852033	1
4	5788	938316.983399852033	0
4	5791	938414.582456245947	1
4	5796	938611.874063967718	0
4	5829	945422.785307899019	1
4	5831	945422.785307899019	0
4	5837	946124.694694960262	1
4	5839	946124.694694960262	0
4	5858	947561.098116399295	1
4	5863	947853.308232258339	0
4	5878	950774.390685867479	1
4	5880	950774.390685867479	0
4	5883	950873.61217601386	1
4	5889	951060.195311885628	0
4	5895	952712.304204064264	1
4	5897	952712.304204064264	0
4	5929	959361.51041037126	1
4	5931	959361.51041037126	0
4	5946	961264.066696066328	1
4	5948	961264.066696066328	0
4	5954	962017.615661732435	1
4	5956	962017.615661732435	0
4	5962	962796.097306819788	1
4	5964	962796.097306819788	0
4	6004	968280.504412872374	1
4	6006	968280.504412872374	0
4	6012	968631.445249570267	1
4	6014	968631.445249570267	0
4	6021	969306.328274397473	1
4	6023	969306.328274397473	0
4	6029	970705.456423076112	1
4	6031	970705.456423076112	0
4	6049	983355.611662553277	1
4	6051	983355.611662553277	0
4	6084	992366.325371595685	1
4	6086	992366.325371595685	0
4	6093	993086.568660486469	1
4	6095	993086.568660486469	0
4	6118	996020.151951803425	1
4	6120	996020.151951803425	0
4	6142	998598.938547663281	1
4	6144	998598.938547663281	0
4	6151	999790.848078558092	1
4	6153	999790.848078558092	0
4	6159	1000921.060133973762	1
4	6161	1000921.060133973762	0
4	6167	1001690.990261313765	1
4	6169	1001690.990261313765	0
4	6185	1005836.3365766994	1
4	6187	1005836.3365766994	0
4	6211	1012563.012462396964	1
4	6213	1012563.012462396964	0
4	6236	1016648.849664795851	1
4	6238	1016648.849664795851	0
4	6253	1018268.299645584182	1
4	6255	1018268.299645584182	0
4	6262	1020503.93220291981	1
4	6264	1020503.93220291981	0
4	6270	1021095.531017528283	1
4	6272	1021095.531017528283	0
4	6306	1034023.999873915701	1
4	6308	1034023.999873915701	0
4	6315	1035617.328429019595	1
4	6317	1035617.328429019595	0
4	6328	1036173.04230236359	1
4	6333	1036212.738561953601	0
5	793	123000	0
5	802	126000	1
5	827	129000	2
5	860	132000	2
5	885	135000	2
5	907	138000	0
5	919	141000	1
5	933	144000	0
5	945	147000	2
5	978	150000	2
5	992	153000	0
5	1001	156000	0
5	1005	159000	1
5	1027	162000	1
5	1063	165000	4
5	1109	168000	2
5	1142	171000	1
5	1170	174000	3
5	1195	177000	1
5	1220	180000	1
5	1229	183000	0
5	1230	186000	0
5	1263	189000	4
5	1280	192000	0
5	1297	195000	0
5	1306	198000	1
5	1315	201000	0
5	1316	204000	0
5	1325	207000	1
5	1339	210000	0
5	1359	213000	3
5	1381	216000	0
5	1385	219000	0
5	1399	222000	1
5	1427	225000	3
5	1465	228000	2
5	1482	231000	1
5	1507	234000	0
5	1511	237000	1
5	1533	240000	1
5	1566	243000	3
5	1599	246000	2
5	1635	249000	3
5	1676	252000	1
5	1690	255000	1
5	1718	258000	1
5	1727	261000	2
5	1752	264000	0
5	1777	267000	3
5	1810	270000	2
5	1851	273000	2
5	1884	276000	2
5	1898	279000	0
5	1902	282000	0
5	1908	285000	0
5	1928	288000	3
5	1945	291000	0
5	1962	294000	1
5	1971	297000	0
5	1980	300000	1
5	1986	303000	0
5	2003	306000	1
5	2007	309000	1
5	2037	312000	1
5	2057	315000	2
5	2079	318000	1
5	2107	321000	2
5	2124	324000	0
5	2133	327000	1
5	2150	330000	1
5	2167	333000	1
5	2184	336000	1
5	2206	339000	1
5	2210	342000	1
5	2227	345000	0
5	2228	348000	0
5	2237	351000	1
5	2251	354000	0
5	2271	357000	3
5	2293	360000	0
5	2313	363000	2
5	2346	366000	2
5	2371	369000	1
5	2385	372000	1
5	2397	375000	0
5	2422	378000	3
5	2447	381000	0
5	2464	384000	2
5	2473	387000	0
5	2514	390000	4
5	2528	393000	0
5	2548	396000	0
5	2570	399000	2
5	2603	402000	3
5	2631	405000	0
5	2632	408000	0
5	2646	411000	1
5	2671	414000	3
5	2699	417000	0
5	2700	420000	0
5	2725	423000	3
5	2758	426000	2
5	2783	429000	0
5	2784	432000	0
5	2790	435000	0
5	2794	438000	1
5	2835	441000	4
5	2881	444000	3
5	2917	447000	0
5	2918	450000	0
5	2924	453000	0
5	2928	456000	1
5	2945	459000	1
5	2954	462000	1
5	2971	465000	1
5	2980	468000	0
5	2997	471000	1
5	3006	474000	0
5	3023	477000	2
5	3037	480000	1
5	3049	483000	0
5	3058	486000	0
5	3067	489000	1
5	3073	492000	0
5	3077	495000	0
5	3086	498000	1
5	3111	501000	2
5	3120	504000	0
5	3137	507000	1
5	3143	510000	0
5	3163	513000	2
5	3188	516000	2
5	3221	519000	2
5	3259	522000	2
5	3276	525000	0
5	3296	528000	2
5	3329	531000	2
5	3354	534000	1
5	3379	537000	2
5	3396	540000	0
5	3397	543000	0
5	3414	546000	2
5	3431	549000	0
5	3440	552000	1
5	3441	555000	0
5	3458	558000	1
5	3475	561000	1
5	3492	564000	1
5	3493	567000	0
5	3502	570000	0
5	3503	573000	0
5	3512	576000	1
5	3542	579000	3
5	3570	582000	1
5	3603	585000	2
5	3625	588000	1
5	3629	591000	0
5	3651	594000	1
5	3679	597000	3
5	3712	600000	1
5	3737	603000	2
5	3762	606000	1
5	3779	609000	1
5	3796	612000	1
5	3821	615000	2
5	3846	618000	1
5	3860	621000	1
5	3872	624000	0
5	3881	627000	1
5	3882	630000	0
5	3899	633000	1
5	3924	636000	2
5	3957	639000	3
5	3990	642000	0
5	4015	645000	3
5	4053	648000	2
5	4065	651000	0
5	4082	654000	1
5	4096	657000	0
5	4116	660000	3
5	4149	663000	1
5	4158	666000	0
5	4167	669000	1
5	4192	672000	2
5	4225	675000	2
5	4242	678000	1
5	4267	681000	1
5	4276	684000	0
5	4285	687000	1
5	4315	690000	2
5	4335	693000	2
5	4360	696000	0
5	4369	699000	1
5	4378	702000	0
5	4379	705000	0
5	4396	708000	2
5	4405	711000	0
5	4414	714000	0
5	4423	717000	1
5	4440	720000	1
5	4462	723000	2
5	4482	726000	1
5	4504	729000	1
5	4532	732000	2
5	4557	735000	1
5	4566	738000	0
5	4575	741000	1
5	4592	744000	1
5	4601	747000	1
5	4626	750000	2
5	4643	753000	0
5	4668	756000	2
5	4685	759000	0
5	4718	762000	4
5	4751	765000	0
5	4760	768000	1
5	4761	771000	0
5	4778	774000	1
5	4800	777000	2
5	4841	780000	3
5	4874	783000	1
5	4886	786000	0
5	4892	789000	0
5	4904	792000	2
5	4918	795000	0
5	4927	798000	0
5	4939	801000	2
5	4956	804000	0
5	4973	807000	2
5	5003	810000	2
5	5015	813000	0
5	5032	816000	1
5	5049	819000	1
5	5058	822000	0
5	5075	825000	1
5	5089	828000	2
5	5125	831000	2
5	5139	834000	0
5	5151	837000	1
5	5176	840000	2
5	5201	843000	1
5	5215	846000	0
5	5219	849000	1
5	5236	852000	1
5	5245	855000	0
5	5246	858000	0
5	5255	861000	1
5	5264	864000	0
5	5270	867000	0
5	5282	870000	2
5	5307	873000	1
5	5329	876000	2
5	5365	879000	3
5	5414	882000	2
5	5428	885000	1
5	5456	888000	1
5	5470	891000	1
5	5506	894000	3
5	5539	897000	0
5	5580	900000	6
5	5629	903000	0
5	5638	906000	1
5	5647	909000	0
5	5653	912000	0
5	5657	915000	1
5	5666	918000	0
5	5667	921000	0
5	5668	924000	0
5	5693	927000	3
5	5723	930000	1
5	5735	933000	1
5	5776	936000	3
5	5801	939000	0
5	5815	942000	1
5	5827	945000	2
5	5865	948000	2
5	5885	951000	1
5	5902	954000	0
5	5911	957000	1
5	5944	960000	3
5	5966	963000	0
5	5994	966000	3
5	6019	969000	1
5	6036	972000	0
5	6037	975000	0
5	6038	978000	0
5	6047	981000	1
5	6056	984000	0
5	6057	987000	0
5	6074	990000	2
5	6091	993000	1
5	6116	996000	2
5	6149	999000	2
5	6174	1002000	0
5	6183	1005000	1
5	6192	1008000	0
5	6201	1011000	1
5	6218	1014000	1
5	6248	1017000	2
5	6260	1020000	1
5	6277	1023000	0
5	6278	1026000	0
5	6279	1029000	0
5	6296	1032000	2
5	6313	1035000	1
6	793	123000	1
6	802	126000	0
6	827	129000	1
6	860	132000	2
6	885	135000	1
6	907	138000	2
6	919	141000	1
6	933	144000	1
6	945	147000	0
6	978	150000	2
6	992	153000	1
6	1001	156000	1
6	1005	159000	0
6	1027	162000	1
6	1063	165000	1
6	1109	168000	3
6	1142	171000	3
6	1170	174000	1
6	1195	177000	2
6	1220	180000	2
6	1229	183000	1
6	1230	186000	0
6	1263	189000	0
6	1280	192000	2
6	1297	195000	2
6	1306	198000	0
6	1315	201000	1
6	1316	204000	0
6	1325	207000	0
6	1339	210000	1
6	1359	213000	0
6	1381	216000	2
6	1385	219000	1
6	1399	222000	0
6	1427	225000	1
6	1465	228000	2
6	1482	231000	1
6	1507	234000	3
6	1511	237000	0
6	1533	240000	1
6	1566	243000	1
6	1599	246000	2
6	1635	249000	2
6	1676	252000	4
6	1690	255000	0
6	1718	258000	2
6	1727	261000	0
6	1752	264000	3
6	1777	267000	0
6	1810	270000	2
6	1851	273000	3
6	1884	276000	2
6	1898	279000	1
6	1902	282000	1
[...]
6	5176	840000	1
6	5201	843000	2
6	5215	846000	1
6	5219	849000	0
6	5236	852000	1
6	5245	855000	1
6	5246	858000	0
6	5255	861000	0
6	5264	864000	1
6	5270	867000	0
6	5282	870000	0
6	5307	873000	2
6	5329	876000	0
6	5365	879000	2
6	5414	882000	3
6	5428	885000	1
6	5456	888000	3
6	5470	891000	0
6	5506	894000	2
6	5539	897000	3
6	5580	900000	0
6	5629	903000	6
6	5638	906000	0
6	5647	909000	1
6	5653	912000	0
6	5657	915000	0
6	5666	918000	1
6	5667	921000	0
6	5668	924000	0
6	5693	927000	0
6	5723	930000	2
6	5735	933000	1
6	5776	936000	2
6	5801	939000	3
6	5815	942000	0
6	5827	945000	0
6	5865	948000	2
6	5885	951000	1
6	5902	954000	3
6	5911	957000	0
6	5944	960000	1
6	5966	963000	2
6	5994	966000	1
6	6019	969000	2
6	6036	972000	2
6	6037	975000	0
6	6038	978000	0
6	6047	981000	0
6	6056	984000	1
6	6057	987000	0
6	6074	990000	0
6	6091	993000	1
6	6116	996000	1
6	6149	999000	2
6	6174	1002000	3
6	6183	1005000	0
6	6192	1008000	1
6	6201	1011000	0
6	6218	1014000	1
6	6248	1017000	1
6	6260	1020000	1
6	6277	1023000	2
6	6278	1026000	0
6	6279	1029000	0
6	6296	1032000	0
6	6313	1035000	1
7	800	124662.546428947206	1
7	812	127176.752683199652	2
7	817	127499.577671640678	3
7	819	128428.698782027608	2
7	834	129897.389385453014	3
7	836	130721.020918207036	2
7	841	130827.150318640861	1
7	858	131910.57974850898	2
7	866	133548.978382127245	1
7	870	133802.916958709663	2
7	883	134420.251518640396	3
7	886	135444.191039100032	2
7	894	137452.770186835286	1
7	899	137664.904834402212	0
7	917	140078.282387104341	1
7	920	143279.738574723129	0
7	935	144211.901590648662	1
7	943	144912.936980860712	2
7	946	147752.958524487914	1
7	959	149094.947418290806	0
7	966	149163.441912683868	1
7	971	149436.886677701735	2
7	979	152606.298905976241	1
7	984	152834.476208115939	0
7	1003	156214.355186526035	1
7	1006	159509.964661461832	0
7	1020	160308.11652332896	1
7	1029	162036.749275967376	2
7	1037	163154.056872735564	3
7	1045	163800.787995306431	4
7	1047	163922.844490944468	3
7	1061	164543.748720385552	4
7	1064	165361.03227278636	3
7	1078	165984.25333921479	4
7	1080	166715.328307195636	3
7	1094	167267.21671766715	4
7	1096	167387.433010153644	3
7	1104	167960.414969593029	2
7	1119	168802.412804320272	3
7	1121	169686.312920967631	2
7	1129	170539.720908055776	1
7	1144	171166.167296702862	2
7	1152	172656.268954842669	3
7	1154	173164.818054211348	2
7	1168	173741.099894375176	3
7	1177	175390.005106538628	4
7	1179	175484.837270694235	3
7	1187	176332.48937438865	2
7	1196	177226.746883528766	1
7	1210	177852.343652659592	2
7	1212	179198.408029119241	1
7	1221	181933.923499761217	0
7	1237	186549.288406994157	1
7	1245	187506.01314538078	2
7	1253	188345.80931727787	3
7	1261	188759.35343596265	4
7	1264	190395.101483873856	3
7	1272	190942.698843998891	2
7	1281	192526.18944644394	1
7	1286	192604.610801447267	0
7	1304	195511.90190553275	1
7	1307	199447.917117766417	0
7	1323	205489.850468173155	1
7	1326	209437.119290384838	0
7	1341	210191.797271746306	1
7	1349	211381.28082201422	2
7	1357	212558.018095556989	3
7	1360	213816.560707202188	2
7	1368	214830.396544067591	1
7	1376	215878.05473891595	0
7	1392	219405.370443043179	1
7	1404	222150.461699763245	2
7	1409	222453.099824832038	3
7	1411	222941.356996088551	2
7	1425	224079.782357336993	3
7	1428	225437.316899290659	2
7	1436	225777.340919717462	1
7	1450	226844.754086500206	2
7	1458	227229.026521599976	3
7	1460	227806.688616703834	2
7	1475	229360.504350345557	3
7	1477	230842.420112336711	2
7	1483	231102.495921982049	1
7	1494	233258.837224715511	0
7	1509	234033.545644745492	1
7	1512	237969.155465357929	0
7	1526	238702.96015824753	1
7	1535	240330.990091269483	2
7	1543	241557.237482830132	3
7	1545	242270.121456385527	2
7	1562	242966.872786504903	3
7	1568	243334.334569832108	4
7	1570	244316.306724140421	3
7	1578	244964.646728079804	2
7	1592	245968.186392633622	3
7	1601	246241.696633741719	4
7	1603	246310.370189507351	3
7	1616	246766.216517219737	2
7	1620	246858.750935015712	3
7	1633	247454.785760050725	4
7	1636	249471.619876746249	3
7	1641	249685.627061678442	2
7	1652	250900.929369772914	1
7	1657	251016.973965156253	0
7	1669	251502.608637733455	1
7	1683	252575.249000939101	2
7	1685	254838.333709691077	1
7	1694	255937.732938450029	0
7	1711	257835.177503680231	1
7	1720	258098.785966308644	2
7	1725	258412.401483643529	3
7	1728	261544.659803047886	2
7	1733	261657.797736331704	1
7	1744	262442.096480534264	0
7	1759	265490.723168036013	1
7	1767	265811.389116696644	2
7	1775	266289.926541649872	3
7	1784	267419.321504390441	4
7	1791	269420.710349227576	3
7	1795	269437.688042420154	4
7	1799	269501.466283793223	3
7	1811	270318.193848064267	2
7	1816	270491.143376381179	1
7	1833	271428.862562376086	2
7	1841	271730.930952211401	3
7	1843	272465.34893336243	2
7	1861	274879.538160802254	3
7	1865	275079.536907737301	2
7	1869	275164.780787500173	3
7	1876	275603.46563299357	2
7	1885	278592.067196067432	1
7	1890	278756.034544702944	0
7	1910	285090.866914054635	1
7	1918	286426.644145694183	2
7	1926	287786.092241520252	3
7	1929	288293.473679268396	2
7	1937	290285.212436633823	1
7	1946	291232.555377225672	0
7	1960	292227.381604046075	1
7	1963	295922.898903217756	0
7	1978	299026.342131688894	1
7	1981	302741.316965261852	0
7	1999	305760.919393452563	1
7	2005	306086.754983666046	2
7	2008	309040.544259732785	1
7	2016	309501.941651521441	0
7	2030	310676.007702767438	1
7	2039	312268.206052681079	2
7	2047	313936.910438395498	3
7	2049	314085.130680355266	2
7	2058	316097.539191085391	1
7	2072	316763.901214233825	2
7	2074	317813.008716046074	1
7	2089	318824.412400649781	2
7	2097	320523.315891347696	3
7	2099	320574.449282081404	2
7	2108	321433.919426982261	1
7	2121	323983.887714765677	0
7	2126	324200.777751239599	1
7	2139	327852.891574238842	0
7	2143	328035.362501211071	1
7	2157	331174.940081577427	2
7	2159	331462.143778933812	1
7	2174	333460.111120976827	2
7	2176	334342.729377731913	1
7	2185	336709.892966247276	0
7	2202	338929.391998001026	1
7	2208	339223.087316223593	2
7	2211	342784.079490099628	1
7	2216	342788.292334968919	0
7	2235	349235.903917241072	1
7	2238	352283.321220331427	0
7	2253	354201.936488869886	1
7	2264	355715.917506680564	2
7	2269	356031.114060378539	3
7	2272	357747.156327313178	2
7	2280	359642.618012793611	1
7	2297	360058.741170519547	0
7	2301	360235.232529706259	1
7	2306	360523.411620859483	2
7	2319	363776.314697174426	1
7	2323	364035.746206503018	2
7	2327	364140.529778520091	1
7	2339	364602.669907104822	2
7	2353	368027.110214956081	3
7	2355	368066.379686809537	2
7	2360	368145.104996336253	1
7	2378	371464.386709408028	2
7	2380	371901.388357982312	1
7	2389	374548.423698959932	0
7	2404	375511.799481264808	1
7	2415	375995.402592265515	2
7	2420	376298.639295539471	3
7	2423	379523.204204176741	2
7	2428	379619.563380546883	1
7	2436	380045.57604261222	0
7	2457	383130.705253869056	1
7	2462	383472.318786553674	2
7	2465	386389.799794970143	1
7	2474	387007.82444397718	0
7	2488	387581.922322232901	1
7	2499	389172.616885380575	2
7	2504	389499.399467877447	3
7	2512	389928.982250780679	4
7	2515	391496.816591051711	3
7	2523	392843.845681872941	2
7	2532	393464.684708893037	1
7	2540	394053.810922833082	0
7	2558	397991.978018513671	1
7	2563	398294.70906680488	2
7	2572	399118.333911681631	3
7	2580	400056.020015420535	4
7	2588	400664.661502945644	5
7	2590	401412.282354030331	4
7	2595	401423.285595429991	3
7	2607	402356.84854355225	2
7	2615	403599.093820711636	1
7	2623	403884.355699313861	0
7	2642	410885.180134170834	1
7	2651	411202.88891008467	2
7	2656	411467.263054555668	3
7	2664	412698.553762724282	4
7	2666	413857.543575407856	3
7	2675	414733.160399033476	2
7	2680	414863.10938703318	1
7	2691	416426.003003836473	0
7	2707	420854.883561712081	1
7	2718	422365.41074204883	2
7	2723	422668.408330414872	3
7	2732	423699.970876296205	4
7	2739	424484.456277589913	3
7	2743	424576.81926121816	4
7	2750	425271.461400964787	3
7	2759	426485.281686989029	2
7	2767	426986.338910130456	1
7	2775	428258.719601686347	0
7	2792	435138.051736270503	1
7	2795	438349.785614147774	0
7	2809	439391.506133657001	1
7	2817	439983.853615485226	2
7	2828	440306.893572695815	3
7	2833	440613.121064433379	4
7	2845	441470.054351747505	5
7	2850	441729.837779635117	6
7	2858	442764.739700019895	7
7	2860	443288.104821596921	6
7	2865	443511.015387418613	5
7	2876	443924.099512621587	4
7	2885	444597.456114517846	3
7	2893	445136.218225194502	2
7	2898	445361.143606805279	1
7	2909	446039.447474774129	0
7	2926	453081.075277076078	1
7	2929	457227.330243635325	0
7	2943	458388.202591971847	1
7	2952	461878.822012746942	2
7	2955	462201.903914636711	1
7	2969	464839.544302105812	2
7	2972	465388.869277158312	1
7	2981	469076.915985005308	0
7	2995	469857.668960458373	1
7	2998	473290.941169874435	0
7	3016	476158.923795605324	1
7	3021	476463.290244735778	2
7	3030	479701.825346971549	3
7	3032	479822.319584385872	2
7	3041	480372.375830956205	1
7	3050	483190.002113191665	0
7	3065	487574.447737128308	1
7	3068	491794.926919906682	0
7	3084	496311.901372809352	1
7	3087	499841.814951459757	0
7	3101	500392.563464318265	1
7	3109	500805.570640138206	2
7	3112	503688.028997554421	1
7	3121	504255.439560388329	0
7	3135	506005.332596368779	1
7	3138	509868.606624008709	0
7	3153	511254.514072220296	1
7	3161	512934.421878210326	2
7	3170	513440.016721839454	3
7	3172	515065.263201336541	2
7	3186	515857.849678977027	3
7	3189	516307.910684569388	2
7	3202	516959.183673784443	1
7	3206	517086.554952709808	2
7	3219	518401.72490840859	3
7	3222	519419.552731509776	2
7	3235	519928.353827923785	1
7	3239	520042.843991181265	2
7	3252	520749.762132233754	3
7	3254	521838.039484660942	2
7	3263	523617.326848952449	1
7	3271	524795.434527607761	0
7	3289	525775.360008863751	1
7	3294	526091.962000442427	2
7	3297	529391.048411266012	1
7	3314	529933.340100881152	2
7	3318	530120.85720110811	1
7	3322	530256.298234195257	2
7	3336	532297.333014493099	3
7	3338	533327.343064161669	2
7	3356	534082.442983217704	3
7	3361	534404.756742922282	4
7	3363	534445.874783977811	3
7	3371	536163.653215972438	2
7	3380	537752.960145805213	1
7	3385	537938.414194868527	0
7	3404	544587.809142706066	1
7	3412	545240.197439382493	2
7	3415	548117.059302025923	1
7	3420	548359.946378367884	0
7	3438	551887.708612775173	1
7	3442	555486.208957946636	0
7	3456	556118.620139732931	1
7	3465	559771.037908490175	2
7	3467	559971.218438786465	1
7	3476	563382.951583693445	0
7	3490	563941.096941238418	1
7	3494	567903.525945690789	0
7	3510	575594.77351866367	1
7	3519	576773.111671663146	2
7	3527	577151.44859938916	3
7	3534	578697.054710243812	2
7	3538	578996.658056099934	3
7	3546	580341.725692612484	2
7	3554	580449.252298344125	1
7	3563	580939.325057533081	2
7	3571	582236.739521817691	1
7	3585	583255.735250121303	2
7	3593	583978.012765413148	3
7	3595	584294.38430950185	2
7	3604	587042.555921611093	1
7	3618	587696.239561453057	2
7	3620	587731.100003446402	1
7	3630	591373.004682360825	0
7	3644	592017.455205472095	1
7	3653	594109.02927904145	2
7	3661	594837.568221114374	3
7	3669	595302.936979622838	4
7	3671	595371.297691866497	3
7	3686	597735.659724691902	4
7	3688	597758.967652262006	3
7	3696	598487.535789562959	2
7	3704	599293.538595486712	1
7	3713	601196.367037631239	0
7	3730	601817.25795476164	1
7	3735	602150.573618055404	2
7	3744	604628.029439352548	3
7	3746	605129.16277919159	2
7	3751	605430.247290952315	1
7	3769	608100.507896005184	2
7	3771	608228.107667955544	1
7	3780	610749.627909973135	0
7	3794	611414.051627718088	1
7	3806	613450.602640531793	2
7	3811	613765.640453568876	3
7	3813	614340.314275830048	2
7	3828	616638.403125287764	3
7	3830	616732.744720218325	2
7	3838	617630.715332657218	1
7	3853	618616.553373981518	2
7	3855	620833.442862828763	1
7	3864	621918.497457319657	0
7	3879	626874.59516403559	1
7	3883	630064.356522848757	0
7	3897	631708.739640962506	1
7	3906	634995.581061067502	2
7	3908	635043.838878028009	1
7	3922	635783.050329543662	2
7	3931	636668.769576282728	3
7	3939	637004.541893742626	4
7	3947	638376.11106462256	5
7	3949	638446.283108009343	4
7	3958	639543.445556924409	3
7	3966	640893.612691430528	2
7	3974	641412.269088194829	1
7	3987	641907.488110019175	0
7	3995	642178.449032831954	1
7	4000	642478.558989686588	2
7	4013	643970.706646647655	3
7	4016	645933.764920069396	2
7	4024	646511.534115334428	1
7	4038	647087.886847825151	2
7	4045	647691.928169634349	1
7	4049	647735.385865265489	2
7	4057	650377.260313318384	1
7	4066	651413.861123417664	0
7	4080	652048.797093113374	1
7	4083	655694.733402281826	0
7	4101	657290.519130875374	1
7	4106	657592.070203448336	2
7	4114	658843.996527690598	3
7	4123	660492.407457410411	4
7	4125	660925.421559957011	3
7	4133	661670.080170818173	2
7	4138	661744.171819461706	1
7	4150	664448.810300802189	0
7	4165	667690.74469823509	1
7	4174	669642.172572061822	2
7	4182	670391.419617263029	3
7	4184	670418.980754357057	2
7	4199	672424.307310395821	3
7	4201	673431.212786187782	2
7	4209	674141.745317760303	1
7	4223	674779.158289477096	2
7	4232	675912.161999661525	3
7	4234	676524.71973281399	2
7	4243	678295.032328067524	1
7	4257	678872.927066935461	2
7	4259	679594.472537357823	1
7	4268	681994.554839741261	0
7	4283	684698.488389129885	1
7	4292	688133.772594958115	2
7	4294	688568.203964214749	1
7	4308	689554.859051019707	2
7	4317	690307.331368331149	3
7	4319	691595.360191654767	2
7	4333	692078.955345131368	3
7	4336	693115.091894288284	2
7	4344	693958.217938412161	1
7	4352	695615.417150869913	0
7	4367	696727.833372640997	1
7	4370	700179.854740380462	0
7	4386	706982.774135429692	1
7	4394	707621.055062990642	2
7	4397	710509.458347321157	1
7	4406	711940.263074926634	0
7	4421	714325.920435331796	1
7	4424	717586.754357409605	0
7	4438	719345.73486362939	1
7	4447	721062.630618546138	2
7	4455	721915.147360641532	3
7	4457	722832.79585873468	2
7	4466	724589.479988458579	1
7	4480	725098.004099877573	2
7	4488	726185.905147063636	1
7	4492	726525.602695266111	2
7	4499	728854.8919595399	1
7	4508	729602.571519004242	0
7	4522	730267.352540113904	1
7	4530	731082.209485040305	2
7	4538	734142.654754105283	1
7	4541	734257.655812456292	0
7	4545	734309.93132953153	1
7	4558	737259.316157062099	0
7	4573	738880.258250581292	1
7	4576	742069.796563958866	0
7	4590	743116.382056030681	1
7	4599	746382.765755650334	2
7	4602	747012.840781536808	1
7	4616	747602.279082788105	2
7	4624	749235.77047138377	3
7	4627	750125.174312269861	2
7	4635	752076.645352040724	1
7	4644	753039.542118692421	0
7	4661	754708.22925058636	1
7	4666	754997.815634482619	2
7	4669	758436.647332802426	1
7	4677	758489.390027800122	0
7	4687	759073.922724412486	1
7	4700	759711.231963933402	2
7	4711	760605.005186244195	3
7	4716	760887.142787738353	4
7	4719	762383.352099490075	3
7	4727	763353.007074040825	2
7	4735	763949.799989464373	1
7	4740	764073.179707142515	0
7	4758	767775.427468227325	1
7	4762	771478.524848358429	0
7	4776	773607.751477649624	1
7	4785	775462.698912348861	2
7	4796	776942.94592647677	3
7	4801	777173.539460613281	2
7	4805	777253.027983195579	3
7	4821	778758.312296884772	4
7	4826	779044.147475717889	5
7	4828	779527.61460509336	4
7	4843	780153.206877152291	5
7	4845	780164.805020152537	4
7	4853	780915.512758685646	3
7	4861	782498.009303732125	2
7	4866	782559.738210433173	1
7	4878	784644.324920835253	0
7	4894	789200.621453288823	1
7	4902	791304.944201387	2
7	4905	793262.732340991728	1
7	4913	794941.785414187618	0
7	4929	798109.01005314978	1
7	4937	799814.765388943925	2
7	4940	801296.634831173685	1
7	4948	803473.90799466653	0
7	4963	804508.752961477377	1
7	4971	806533.473157287445	2
7	4979	807749.764949827754	1
7	4983	807806.504438861943	2
7	4996	809181.23766744505	3
7	4998	809920.146042332749	2
7	5007	811311.733711016126	1
7	5016	813340.103078972198	0
7	5030	814609.137853237037	1
7	5039	817890.856876663776	2
7	5041	818598.026705900852	1
7	5050	821309.388406588304	0
7	5065	824097.274111532181	1
7	5077	825010.478137397279	2
7	5082	825345.290120596785	3
7	5084	827975.180322612456	2
7	5093	829055.471956297578	1
7	5098	829087.236036319903	0
7	5118	830017.877055756738	1
7	5123	830346.944596278802	2
7	5126	833244.321084814155	1
7	5134	833794.618808034012	0
7	5149	835391.332391586303	1
7	5157	838205.523254105614	0
7	5161	838222.259434751989	1
7	5174	838769.817796809008	2
7	5183	840429.372191144982	3
7	5185	841641.590522908807	2
7	5190	841652.539106703811	1
7	5202	844033.680032602719	0
7	5217	846172.183375635819	1
7	5220	850324.734400443009	0
7	5234	850964.352934041984	1
7	5237	854451.242339608864	0
7	5253	858927.872628254675	1
7	5256	862605.678572154469	0
7	5272	867286.58983196473	1
7	5280	868547.826372093274	2
7	5283	871333.167890413281	1
7	5291	872379.591136093809	0
7	5305	872874.334595993115	1
7	5314	873333.116534527146	2
7	5322	875559.514017219777	3
7	5331	876145.835859855543	4
7	5333	876321.447547459494	3
7	5341	876836.08448832231	2
7	5355	877747.004649394164	3
7	5363	878100.36523724955	4
7	5366	879148.465509805936	3
7	5374	879868.424247990989	2
7	5388	880599.865299102338	3
7	5395	881161.182466385845	2
7	5399	881447.595195789199	3
7	5403	881508.739486577209	2
7	5421	882356.524416394876	3
7	5423	884842.784819126733	2
7	5432	885291.604075898851	1
7	5437	885503.966993611059	0
7	5454	887755.234234407085	1
7	5463	888723.188369182806	2
7	5465	890855.761947862316	1
7	5480	891446.943702568121	2
7	5487	891944.653657400407	1
7	5491	891992.613729515213	2
7	5504	892658.029811545832	3
7	5507	894843.119664093802	2
7	5515	895211.097954342091	1
7	5523	895635.548000246608	0
7	5547	897269.186605906938	1
7	5555	897574.794651114569	2
7	5560	897851.00181833874	3
7	5565	898175.636366939066	4
7	5570	898473.948778681857	5
7	5578	898964.339408369205	6
7	5581	900928.259187259302	5
7	5586	901028.318367900826	4
7	5594	901347.627109537164	3
7	5605	901814.059844323024	2
7	5613	902379.550974437598	1
7	5618	902562.731252825449	0
7	5636	904778.112970732021	1
7	5639	907891.920040144556	0
7	5655	912285.434393977554	1
7	5658	915953.568425727559	0
7	5675	925600.51086675442	1
7	5683	925900.167197249669	2
7	5691	926241.907680360168	3
7	5699	929261.543749696164	2
7	5703	929350.827018074777	3
7	5707	929565.879230447717	2
7	5715	929681.021111189828	1
7	5733	931209.003881600535	2
7	5736	933106.713974309063	1
7	5750	933745.119128834679	2
7	5758	934649.803444465986	3
7	5760	934998.510740509392	2
7	5774	935588.397071491727	3
7	5777	937198.141745277566	2
7	5785	938316.983399852033	1
7	5790	938414.582456245947	0
7	5808	941929.464546803588	1
7	5817	942241.180818897897	2
7	5825	943667.487769072221	3
7	5828	945422.785307899019	2
7	5836	946124.694694960262	1
7	5850	946742.889835638311	2
7	5857	947561.098116399295	1
7	5861	947853.308232258339	2
7	5875	948539.224288724534	3
7	5877	950774.390685867479	2
7	5882	950873.61217601386	1
7	5894	952712.304204064264	0
7	5909	955885.411080650739	1
7	5918	957834.52001014397	2
7	5926	958188.450071015808	3
7	5928	959361.51041037126	2
7	5942	959974.083857719229	3
7	5945	961264.066696066328	2
7	5953	962017.615661732435	1
7	5961	962796.097306819788	0
7	5976	964636.894597141228	1
7	5987	965424.181783682725	2
7	5992	965693.570260413317	3
7	6001	967609.058918926549	4
7	6003	968280.504412872374	3
7	6011	968631.445249570267	2
7	6020	969306.328274397473	1
7	6028	970705.456423076112	0
7	6045	980299.970709109464	1
7	6048	983355.611662553277	0
7	6064	988327.267199117511	1
7	6072	989153.702625637979	2
7	6081	991821.316198438471	3
7	6083	992366.325371595685	2
7	6092	993086.568660486469	1
7	6106	995081.152896045555	2
7	6114	995894.57058765442	3
7	6117	996020.151951803425	2
7	6131	997218.380960504363	3
7	6139	998254.552525491192	4
7	6141	998598.938547663281	3
7	6150	999790.848078558092	2
7	6158	1000921.060133973762	1
7	6166	1001690.990261313765	0
7	6181	1003146.752697515543	1
7	6184	1005836.3365766994	0
7	6199	1008787.64386930945	1
7	6208	1012547.717347217321	2
7	6210	1012563.012462396964	1
7	6225	1014701.44924190628	2
7	6233	1016357.911143555017	3
7	6235	1016648.849664795851	2
7	6250	1017287.463463358132	3
7	6252	1018268.299645584182	2
7	6261	1020503.93220291981	1
7	6269	1021095.531017528283	0
7	6286	1030509.201495084735	1
7	6294	1031975.678769504657	2
7	6303	1032747.78770265375	3
7	6305	1034023.999873915701	2
7	6314	1035617.328429019595	1
7	6327	1036173.04230236359	0
7	6331	1036212.738561953601	1
