version 2
run QueueMeasurement-113-20170109-14:15:16-6087
attr configname QueueMeasurement
attr datetime 20170109-14:15:16
attr experiment QueueMeasurement
attr inifile queueStudy.ini
attr iterationvars ""
attr iterationvars2 $repetition=113
attr measurement ""
attr network controltower.SimNetwork
attr processid 6087
attr repetition 113
attr replication #113
attr resultdir results
attr runnumber 113
attr seedset 113
param SimNetwork.a.parkingLot.parkingDelay exponential(45min)
param SimNetwork.a.runway.landingTime exponential(5min)
param SimNetwork.a.runway.takeoffTime exponential(5min)
param SimNetwork.a.runway.throughputCheckInterval 14.286min
param SimNetwork.wg.interArrivalTime exponential(14.286min)

vector 2  SimNetwork.a.landingQueue  queueLength:vector  ETV
attr source  queueLengthSignal
vector 0  SimNetwork.wg  responseTime:vector  ETV
attr source  responseTimeSignal
vector 1  SimNetwork.a.landingQueue  queueTime:vector  ETV
attr source  queueTimeSignal
vector 5  SimNetwork.a.runway  landedThroughput:vector  ETV
attr source  landedThroughputSignal
vector 6  SimNetwork.a.runway  tookoffThroughput:vector  ETV
attr source  tookoffThroughputSignal
vector 7  SimNetwork.a.parkingLot  parkingOccupancy:vector  ETV
attr source  parkingOccupancy
vector 4  SimNetwork.a.takeoffQueue  queueLength:vector  ETV
attr source  queueLengthSignal
vector 3  SimNetwork.a.takeoffQueue  queueTime:vector  ETV
attr source  queueTimeSignal
0	1566	79271.523494474737	13068.100713292
0	1588	80529.306803072579	4511.7673735034
0	1600	80828.166131074177	6654.0780468902
0	1632	82472.560524807759	3212.9424569748
0	1652	83259.734621026904	10344.185608394
0	1662	83468.943949185136	3259.4834236936
0	1667	83544.310306087923	2913.0667180498
0	1672	83626.367073108256	2018.1184305099
0	1689	84091.142450607376	1903.1530602661
0	1732	87339.028076888167	2747.8397038118
0	1753	88077.44703632682	4966.7722376084
0	1786	89043.72560399505	5154.1642399684
0	1792	89198.405366394805	4049.7311658991
0	1797	89208.892997108999	3652.3562070043
0	1802	89781.506280967547	2996.5057923447
0	1808	90108.437120616465	2222.4424008848
0	1846	92573.675122058987	4543.3871129792
0	1870	93363.233256537312	2212.1538800017
0	1875	93373.760869255248	1895.1752471854
0	1893	94358.725659018392	3208.1416602983
0	1904	94998.232238021625	2537.020706241
0	1917	95091.271819375829	7401.1516589095
0	1955	97024.08356611587	2204.8920932862
0	1967	97911.60106629982	2173.200444776
0	1984	99014.260909674243	5184.9184918654
0	2058	101371.850400616606	5552.2109369245
0	2069	102161.720655819223	9526.7473713984
0	2074	102336.616424077313	3395.9662186755
0	2079	102417.681172557354	3301.4456280047
0	2084	102506.491143682908	6420.3427468619
0	2093	103077.730904689255	3569.1244669493
0	2138	104971.580800027536	7062.042029408
0	2160	106127.370204875096	5732.5326312121
0	2178	106541.014866238728	2987.4899512611
0	2196	107061.916594843049	3316.5134022226
0	2202	107297.970191348955	5968.8158111644
0	2207	107838.561912674459	8617.950746563
0	2216	108457.296382507392	5799.0177580276
0	2221	108498.9544555427	9905.1343704953
0	2229	108699.886433399931	2548.0697816325
0	2258	110449.524485477728	3816.815030724
0	2267	111176.115191968053	6653.1673360657
0	2276	111601.100722305378	7056.0033251091
0	2281	111839.65567112725	3117.4866894135
0	2290	112693.604813188802	9552.173471696
0	2328	117902.561537146116	2215.1341105112
0	2356	121359.172429188737	11651.786673964
0	2387	124441.226707523289	9128.2934745276
0	2392	124683.3949286193	4335.6679673196
0	2409	125645.109965663226	3598.8563837322
0	2426	126159.568499862006	5946.7070102059
0	2452	128283.83824697339	2309.8430493372
0	2461	129009.10543941811	6307.0276739461
0	2469	129404.764864943276	4532.4259597928
0	2490	130960.22382712042	14207.014074931
0	2495	131012.982008229662	3865.8978811589
0	2544	135449.486650282872	5676.9436960552
0	2561	136677.134141013539	2383.8909249268
0	2573	137362.813837638998	4297.5874761043
0	2591	137630.274109463268	893.9537415357
0	2599	137691.58970373763	2272.210343411
0	2608	138257.899404639304	5391.6588610154
0	2632	140000.938127805063	5632.7222340082
0	2650	140400.020755248847	14199.092515869
0	2669	142457.86037616027	5171.6538183512
0	2678	143342.88375764872	3336.2069692161
0	2720	145628.593616740065	1977.9507923442
0	2739	147175.596167919242	2887.1899600522
0	2801	149447.500699968931	9527.0393449255
0	2819	150409.073920101482	5990.2012418488
0	2830	150902.627044237885	6438.0742908495
0	2845	151815.825572671588	4806.8115719178
0	2919	155556.896492799013	13246.361942517
0	2927	155878.948067772638	9019.8726625304
0	2940	155951.629488277169	7482.6500375032
0	2951	156118.122812251658	9968.1750610705
0	2959	156257.509488604535	7334.6002862789
0	2970	156385.226649260997	5375.8830837316
0	2980	156741.355950840387	9509.7395735565
0	2985	156755.7842826552	5034.8910717757
0	2994	157234.056587668514	5994.0936892507
0	2999	157372.619665174791	18101.318040698
0	3004	157431.192966204878	4199.0893378876
0	3009	157589.634700698219	1730.6173956835
0	3015	157726.189975108659	5872.9529316054
0	3027	158581.922723429508	4427.7580475178
0	3051	160384.072007450647	10507.672443926
0	3064	160896.660601278665	4623.7688048767
0	3069	160963.816484255293	5055.8392941628
0	3081	161592.332572957878	3225.0061438982
0	3092	162118.779390655394	8329.1121166307
0	3143	164634.13090810474	3637.3326963575
0	3151	165123.05238166546	2184.7771823755
0	3160	165687.732493566825	3017.1750000384
0	3185	166943.091407677097	3073.5489802858
0	3194	167590.329629150057	1751.9336337908
0	3206	168547.704348155691	4777.1138091871
0	3211	168605.853134765519	8955.809105976
0	3220	169335.645303601481	6785.1866794517
0	3263	171819.118043296743	1564.0766014612
0	3272	172529.697916994815	2917.2179671115
0	3290	174509.129447228957	3024.1057318054
0	3298	174651.580170584439	8712.5401043245
0	3353	177634.657383080086	3642.1077410533
0	3358	177753.868982775719	1942.1687045054
0	3366	177935.131223897777	2379.0796443112
0	3391	178571.270702585164	2266.7968019468
0	3399	178916.347157471015	8848.8252420684
0	3414	181935.530342789552	3887.7351363109
0	3419	181972.949456285546	7094.2449563753
0	3446	184673.260341233466	6264.3660692053
0	3463	185592.107348504101	9551.8324883881
0	3488	188028.366928601946	5002.0706204616
0	3516	189975.47266181102	2591.6875205803
0	3525	190307.032712497386	4599.9578522958
0	3537	191437.759265126544	7666.5023513328
0	3542	191450.33452835641	3762.5214915364
0	3551	192463.336695239181	7086.2231358756
0	3578	194688.242144390553	5743.3565107224
0	3627	197470.87184678837	3927.793481534
0	3635	197968.76246998925	3190.8560737899
0	3641	198595.016702915422	2359.5031306741
0	3646	198766.336472164687	3213.7936568817
0	3686	202481.32752744492	8571.9240458574
0	3691	202497.622183543215	5316.1099242746
0	3703	203585.993086311958	4675.7442374627
0	3730	205753.151350245339	6509.6970599089
0	3735	205847.369738122848	5187.4664724881
0	3744	206931.625063670011	3395.5169819231
0	3774	209181.976712353846	4776.8119114952
0	3801	212244.23176426236	3299.9740037311
0	3809	212415.052320661987	5122.0951422215
0	3848	213444.687964368085	5574.3857089476
0	3857	214332.591126147336	1929.3120396587
0	3877	215225.091086056586	2762.8231458521
0	3935	219061.12856855686	7863.5161626485
0	3947	219539.03128370178	4460.2301731759
0	3957	219702.937171861964	6981.2302296093
0	3968	219956.067142728905	5459.1070917235
0	3987	220821.12044515214	8381.8553066187
0	3992	220976.585569116131	5397.3655338849
0	4001	221492.51714156607	4374.9353469464
0	4009	221581.126526111137	1772.5822535276
0	4052	223743.123696113145	1584.6158693861
0	4073	224921.52429967314	5077.179577269
0	4097	226599.11814899315	7503.8635100174
0	4124	227595.331920127228	12141.770449779
0	4135	227824.600798827477	5666.1929981938
0	4140	227860.327808376194	6130.3436118118
0	4145	227902.280676917867	5089.8066469594
0	4154	228618.23438746958	3977.456302337
0	4165	228884.803361788001	11011.607417706
0	4170	229201.824605171051	3900.2683443789
0	4187	229819.210596373624	1707.596512911
0	4227	232043.411693590743	6587.4857478965
0	4232	232118.710418155321	6146.8408340355
0	4248	233153.512638934013	3866.4720643091
0	4270	234438.197425140489	4231.6689878237
0	4284	234873.290302406699	4419.8160860413
0	4289	234950.321685875039	4089.9060823925
0	4314	236217.768556359979	2207.5266026266
0	4334	237215.053819892039	4208.2016322948
0	4371	238630.71684392395	3249.0131989837
0	4463	242771.250439455386	5407.3358346354
0	4471	242952.283204572687	7571.9320546122
0	4480	243640.519978396264	4181.1469649697
0	4485	243789.352899015162	6594.7498363582
0	4496	244172.632715591736	6526.9461923517
0	4515	244732.071409591622	11268.529602261
0	4523	244934.068537549348	6465.5566720627
0	4528	244997.798706871463	5320.162630033
0	4533	245096.623618086493	5382.1155660076
0	4539	245304.517029291269	6878.5233336029
0	4544	245677.665711305874	9459.5444296641
0	4556	246301.985571508335	4611.6736394889
0	4568	246906.007866022083	4298.9665096043
0	4586	247701.662559239866	6747.6351508202
0	4607	248884.860405903297	4879.5717836395
0	4617	249230.846968229877	2848.678361629
0	4648	250128.853357315388	3410.9549091373
0	4667	250379.512494303191	1569.8882928925
0	4678	250606.235774416191	6773.2916092973
0	4686	250764.31859434244	3641.2551241466
0	4710	253258.273298578609	2515.256728021
0	4718	253626.452665732857	4036.8530031676
0	4735	253916.647469882391	2444.4461629448
0	4750	254934.062890624151	5366.7928809777
0	4764	255694.030370215518	5621.7415609602
0	4849	259406.101336818039	5145.1822168886
0	4861	259954.296434512114	3695.6093979851
0	4886	260553.843016149555	6755.7378318563
0	4905	261311.825299884635	5789.632057092
0	4914	261602.405580008086	11504.372687369
0	4922	261607.939831024793	4665.8992723662
0	4932	261985.464777529306	3882.6779043781
0	4938	262368.121897191475	5548.4096231581
0	4946	262614.042926772033	4932.4185902631
0	4958	263651.888423754149	3404.9190674175
0	4969	264202.001763798692	6811.1812833812
0	4974	264539.320910797322	6183.1635726064
0	4980	264926.291345100276	4440.585993706
0	5014	266895.074783303749	3368.8007767087
0	5034	268009.077122176295	1787.7888126348
0	5039	268278.159150134075	8657.7533838468
0	5053	270256.489619991165	4266.9608312379
0	5090	272006.59879590025	5546.8134698025
0	5123	272845.971268931459	2625.1351414656
0	5135	273619.798270451098	2129.4609983312
0	5157	274590.253097842452	3991.6249634661
0	5172	275295.206709030822	4116.6084427868
0	5245	277976.297597268129	10705.031466318
0	5256	278477.614898456097	6374.0886150926
0	5277	279733.311280923372	9247.4902460224
0	5282	279988.007121252113	6345.9097573471
0	5288	280464.259434735113	5012.4499726912
0	5293	280628.263677063514	7105.3024470974
0	5298	280656.60591684743	5766.0910223716
0	5303	280817.275434945113	4287.3713213925
0	5311	281038.055765685186	19432.942526161
0	5322	281416.172716306815	5714.3194175858
0	5327	281439.818645476588	6782.8913517864
0	5335	281857.835024978504	3635.296537399
0	5344	282056.857786883987	5954.8761867146
0	5373	284004.337019809735	1795.91682616
0	5378	284171.622371901763	3190.9237632576
0	5413	286415.522414797941	894.28709355539
0	5438	289504.591353369129	6591.8329199039
0	5443	289571.921388621596	3300.0558864066
0	5455	289896.96997493077	4341.8495461251
0	5481	290521.005272916741	13526.829320923
0	5515	292375.317482245815	2679.4230253203
0	5552	295026.405127778133	5125.7220006183
0	5557	295150.307208890817	7442.3859150984
0	5571	295623.176086777328	5994.0566761896
0	5586	295700.946698097046	4781.4359059679
0	5592	295867.377432857763	4694.0693907019
0	5600	296184.195951376876	3813.9073375903
0	5609	296577.473173776103	1347.5884416757
0	5634	302199.022723012222	9609.5626639516
0	5657	303452.68985089972	12145.36443487
0	5688	305103.225074453184	9732.7998161153
0	5694	305253.885557752813	2459.7236599096
0	5699	305304.867325646015	1669.7000484868
0	5707	305562.731694192275	4595.3607996103
0	5725	306919.362850676125	2739.1290573177
0	5750	308574.794057536198	6826.8649201492
0	5768	309920.734553015202	4111.2325542875
0	5809	311140.991316796104	3704.9091377685
0	5826	311808.411640032442	3118.6568423865
0	5842	313013.805504836306	2756.295310715
0	5893	315907.704590898745	2981.6391296565
0	5898	316051.920384473273	5443.845376846
0	5904	316326.430476789673	8215.1962181773
0	5912	316412.595869381804	2630.0070506914
0	5926	316742.376937198767	4028.5420752376
0	5958	318107.292767706682	6797.1960748086
0	6032	321581.429166817658	7694.1413522763
0	6037	321612.474997339558	5058.0238335671
0	6051	322100.89546857312	3369.6045916729
0	6058	323622.013701047318	6948.3133997328
0	6063	323742.369827526523	5879.8642423272
0	6076	325354.190667839462	14893.681180485
0	6087	326026.386927535462	16013.512551029
0	6099	326615.909477215802	7380.3499099801
0	6132	327718.524693371712	9623.172687703
0	6137	327882.953816061689	9974.1559700398
0	6142	327930.013066744791	13753.681837013
0	6147	327950.420143476622	9218.7652539493
0	6165	328682.995080661092	3465.453056265
0	6185	329090.316805746753	2836.9922317628
0	6191	329314.243829228149	3065.5248330719
0	6199	329628.201381784693	1450.5476704087
0	6217	330890.025992082717	3921.2839027325
0	6261	332297.535304217081	11431.913421066
0	6275	332813.268255107848	1519.6557480015
0	6284	333518.680460616454	1978.1967294878
0	6311	334103.385383616782	2697.5752305257
0	6326	334502.268254383518	6477.2330602263
0	6347	334911.584733270717	6335.1124572379
0	6357	336161.014538437107	2347.2080855837
0	6389	337902.036507805371	4143.1395372393
0	6399	338254.236390423497	3941.5426402668
0	6404	338533.330306049513	6496.1060585797
0	6413	338844.350135762347	3277.2763781049
0	6418	338984.732553242105	7160.7959114801
0	6435	339970.537496990967	2664.6151654132
0	6448	341191.216777195199	7048.6770599433
0	6497	343766.129391954766	7019.6039482818
0	6502	343767.177615178102	2725.934307524
0	6507	343943.617616622944	2224.3394308766
0	6512	344029.793412980723	1867.5638129699
0	6523	344432.460856412939	14442.605842994
0	6535	345059.174812473771	5511.0977710624
0	6594	347720.00679772278	1056.8220776622
0	6614	348095.602974495674	5044.0475325322
0	6647	349069.950115492741	4461.4759337827
0	6668	349519.607177854281	4941.2952726987
0	6673	349656.652236498095	1869.7684525213
0	6685	349799.222988687742	2206.8250740304
0	6695	350002.233390955696	3582.9915564229
0	6709	350269.296512786732	3356.0156939444
0	6720	350654.170724291943	2123.8120186283
0	6728	351039.590444834577	4292.8511902353
0	6764	353428.805484291279	5480.0178296686
0	6780	353987.096886120175	5860.9652840634
0	6786	354131.099609975985	2094.3310793388
0	6791	354246.107418443406	5607.7127281171
0	6796	354261.544959016617	4579.5619401097
0	6808	355199.239285266165	4931.9147798042
0	6863	358601.404483221495	1188.3233588176
0	6868	358901.565306105341	2901.5886198288
0	6874	359581.521421152001	4979.004834644
0	6883	360289.505726532277	7254.3395631366
0	6903	361502.528074240968	3986.8571126623
0	6918	362834.026634626136	10586.02762911
0	6952	364362.361506484703	3530.3138144179
0	6972	365785.995379932719	2775.7126264443
0	6991	367481.935327898201	3827.409442224
0	7010	368014.154335518106	10344.634205663
0	7018	368182.199116644006	4304.7779307058
0	7038	369330.748950544419	7952.158393415
0	7049	369850.983502064429	5397.1507445995
0	7055	370372.225108890365	3285.1020945782
0	7081	372127.085113848561	1691.9398743262
0	7115	374037.239703481142	3016.0835045367
0	7123	374573.169104652174	6148.4085085971
0	7160	375594.466925639851	2604.9873547472
0	7179	376011.852963944123	1152.356833437
0	7196	376774.839471283489	1625.7519169746
0	7256	379510.643191100331	4916.9991361015
0	7261	379614.222435564625	4040.5327718881
0	7270	380242.955674376072	4234.2744668883
0	7280	380458.201572810175	3434.8522029092
0	7289	380639.374234807041	13143.939919512
0	7297	381099.301956976458	8066.2690316291
0	7302	381128.098492816561	4910.3991425497
0	7307	381205.20657223586	3964.5484863954
0	7325	381818.941536222072	8633.9145635508
0	7369	383308.785730084119	5545.9181533279
0	7400	385299.098759608666	17191.566696791
0	7532	391560.320494469186	9410.1973224529
0	7543	391751.888587258092	11848.790865618
0	7554	392053.709371742641	10694.384303824
0	7576	392726.49961643379	14687.53423472
0	7581	392827.905087339798	8543.0934075564
0	7586	392850.46790953288	10628.962142575
0	7591	392862.883885429762	10020.018747301
0	7599	393049.671439544366	7199.9676226679
0	7610	393624.531491169608	10264.828669806
0	7615	393654.587462800361	8871.3801282362
0	7620	393681.825220832176	8296.1610903386
0	7641	394420.243842382163	11785.519435614
0	7693	396650.765527720473	10778.795474388
0	7705	396996.571474683332	10894.550158239
0	7715	397363.189095493688	12116.556704116
0	7720	397429.145391398679	8835.0009808743
0	7725	397521.967230403785	10836.19687009
0	7730	397550.592891028842	5394.1172365403
0	7735	397566.969473106899	5604.5148535167
0	7741	397853.542060851917	11745.384848285
0	7749	397953.173951915382	7200.1712326484
0	7754	398129.157386991207	5219.3925280567
0	7759	398168.83223173732	4194.1630447628
0	7773	398513.913915435881	12210.382865007
0	7778	398562.34144781684	4849.465308984
0	7787	398897.900532859037	4694.1698785881
0	7807	399584.143505365487	4390.414478304
0	7815	400129.137987128886	5980.6975303789
0	7820	400153.620110643757	4822.6566323795
0	7826	400766.30953988861	4055.9655967686
0	7849	404365.041710520429	5795.0821217354
0	7871	405156.00420999789	1334.9192823079
0	7881	406383.4478833831	4044.0233612759
0	7943	409178.396338367455	2673.312258114
0	7952	409806.822778348684	2390.4913451554
0	7957	410037.497742211191	2738.2483387198
0	8007	411692.814499506288	5208.4899057872
0	8018	411767.171130951005	7391.7149970649
0	8023	411784.419345492784	1589.9958429171
0	8042	413463.365226046438	2335.2172659832
0	8052	413842.716065700762	2473.3965287589
0	8058	414299.450020630551	5360.6881438934
0	8076	415980.53477085918	7524.7606560901
0	8092	416514.344096274488	5337.2870351439
0	8102	417551.632487822349	4304.9992327507
0	8115	419820.60709292224	8313.6100328605
0	8129	420312.243140169752	5979.9063723504
0	8187	423731.999792066581	2562.2061111942
0	8192	423828.567787008363	1999.2180493883
0	8200	423971.877077173693	7881.9960358141
0	8205	424174.339150909743	1890.7129362901
0	8260	427355.291145470672	7913.4726251229
0	8283	427939.336139926448	3181.4883856667
0	8292	428582.637769221569	2573.9086261203
0	8305	429171.157462020533	6748.4611112226
0	8315	429435.114438272377	4711.6424768303
0	8326	431210.726602777339	6049.6189649866
0	8342	431513.980576433906	3135.369874705
0	8350	431943.936131541202	10373.451526212
0	8367	434571.513256123436	7453.9633118917
0	8379	435257.413380520432	6265.5412168072
0	8402	436390.901949402534	11025.693394806
0	8412	436706.498105407576	1871.989717185
0	8424	437462.305291697094	6168.597114039
0	8483	439863.662872817578	2547.9353730644
0	8488	439890.776500336467	1359.0715060719
0	8505	440864.949900659993	5074.5312548596
0	8513	441253.320414577595	3473.4727898103
0	8523	442385.391767231055	3085.257861168
0	8531	442736.983607601344	7783.6452928614
0	8553	445436.862379098015	7698.4050437292
0	8575	446464.123594844523	1048.7551230958
0	8587	446945.522483087617	6281.7124569632
0	8596	447613.063139728813	9931.7278747783
0	8601	447859.610735741251	2983.1195347627
0	8619	449363.281484742729	3033.048720557
0	8646	452574.643976462113	1028.5663907011
0	8680	455933.772326718305	7353.1155988193
0	8694	456428.75533374923	4749.6744371785
0	8707	456788.118436361427	2806.4974498464
0	8716	457516.701360291675	1871.3163810677
0	8743	459812.879095600693	900.99039070668
0	8846	464544.189453654174	10199.997048101
0	8852	464864.381415536733	3372.3411383681
0	8857	464929.384811685238	5880.2131690707
0	8865	465091.757916162297	5122.2064810776
0	8879	465727.860282866971	9403.3836129158
0	8884	465759.552845532418	3897.2347624079
0	8892	465776.436090879322	3847.8832599041
0	8906	466317.673628220449	2792.5559728451
0	8920	466902.547806202614	5010.1859625497
0	8947	467775.044513457079	6724.3231116073
0	8952	468006.525013071597	3575.8546696324
0	9011	470198.18269104637	3802.0337158195
0	9020	470603.132680260657	3407.2859155779
0	9041	472160.618920470333	2740.2310252335
0	9046	472164.98488013053	5774.9202306479
0	9058	473065.695891793026	7300.2927493618
0	9088	473861.418199174789	8779.0518545487
0	9093	473900.918702967115	5310.4217795512
0	9099	474182.633636722456	5516.5296992631
0	9104	474192.174450802039	12662.05732036
0	9113	475006.316283692369	2766.1484078041
0	9155	477013.282621389854	4523.1309440101
0	9176	478022.718899107692	2502.8038457511
0	9195	478806.574925618766	10597.701104562
0	9201	479567.29954544468	6480.5892356778
0	9215	479964.788290933554	11653.381027624
0	9226	480236.746183810399	4990.1715660349
0	9231	480339.011770792105	10563.371103214
0	9257	482123.738733276461	6811.7468468792
0	9277	482839.840183587388	4823.2089296957
0	9282	483016.553044210302	3177.6998337554
0	9292	484578.384081186389	7285.2352998551
0	9301	485692.436693651378	5301.6847989662
0	9321	486359.038459482517	4201.0824456057
0	9337	489209.956378883221	8496.6797719385
0	9363	491071.410697415008	14335.991829069
0	9372	491874.382205766018	5991.0127661775
0	9407	493879.605672324169	4477.5655537462
0	9443	494770.146616411301	8462.8195694371
0	9457	495019.147033728587	2020.521402367
0	9491	496342.295307133585	3092.6024108701
0	9499	497066.670119945187	3139.0568088343
0	9511	497552.527606679191	7107.5467107378
0	9516	497616.609090159888	2701.8616975054
0	9525	498371.95992119349	4203.1648772082
0	9535	498494.478745189031	3635.3967106148
0	9540	498559.689751406903	5033.2949132906
0	9568	501859.131998689706	6880.7447272486
0	9580	502552.2992167537	7917.9019825752
0	9611	504303.245084794574	5441.0867333531
0	9620	505021.457647779716	1917.7038472581
0	9653	506085.238927295973	779.13095019388
0	9661	506435.303475097683	6346.0845274663
0	9681	507127.499269444121	9247.760338709
0	9686	507267.957211578356	4014.3287087882
0	9747	510854.860635813101	4365.1548701732
0	9753	510883.408810820899	8379.0185203496
0	9758	511078.216799188134	5236.6656336577
0	9779	512387.438480732079	6885.5915088372
0	9815	513951.373064716127	4218.8866999832
0	9823	514224.081731378461	6487.0071991433
0	9837	514788.716018724164	4775.4066292544
0	9848	515240.125378683256	6833.4515969782
0	9917	518360.776158360054	3722.887779818
0	9931	518691.568573642331	11201.553136492
0	9936	519047.343255878497	6826.8961597094
0	9947	519417.236861886077	6347.8713118831
0	9961	519905.484151180927	8197.6736596993
0	9969	520089.099105976081	4603.7451905114
0	9986	520932.220447986955	5166.9562197828
0	9998	521491.762606230059	7470.5394629805
0	10007	522111.960368790839	6838.7604654267
0	10024	522885.344997233487	6935.3695028149
0	10034	523219.713776861815	11222.469316585
0	10042	523301.210485319277	4019.7879335923
0	10056	523942.134652198852	5807.4680931035
0	10070	524878.81258204027	7673.4063121791
0	10123	526775.171212555425	5247.17152988
0	10128	526790.586650007509	3908.0556778061
0	10136	527125.858939345054	1890.489557197
0	10142	527298.751969542674	4036.2034640157
0	10158	529407.788156393401	5603.7207023872
0	10192	530661.09911981522	10733.050231149
0	10200	531209.610731890218	5520.0886215578
0	10217	531880.448608780459	7031.2249523477
0	10222	531920.523473455961	3191.527772317
0	10228	532379.243524195156	6344.1014667287
0	10236	532638.796723413671	3073.1984303547
0	10265	534231.696655924216	4202.5975091432
0	10270	534289.744793053767	8217.25045683
0	10291	535865.897407253736	4945.3399507385
0	10304	536460.138291934091	2970.8231146024
0	10320	537907.871379357287	3182.2559644513
0	10365	539444.688242852678	5763.344058064
0	10395	540113.443258103936	4285.6641492358
0	10400	540472.307660137941	2679.2139869023
0	10406	541160.266865545999	3042.4304674031
0	10423	542580.700321567726	5039.9732725019
0	10432	542937.644687777416	4189.8346188363
0	10461	544190.65798612084	5700.0710392882
0	10480	544436.807868656415	5167.78474349
0	10485	544636.122897661324	5329.7358712691
0	10490	544735.64004040296	2567.4697508218
0	10507	545898.452896172654	2905.3381436584
0	10538	549000.403224741604	4758.2350097707
0	10546	549223.939421779105	2361.5117442783
0	10551	549362.694171695789	5249.892185688
0	10603	556078.621653906364	8861.5717586179
0	10634	557698.428484217678	5768.6531316596
0	10640	558031.618359357215	7111.7878194943
0	10645	558716.344951055045	5358.9301259353
0	10651	559029.970804949545	3570.4743929476
0	10662	559332.781013778607	14080.325446532
0	10742	562503.617517955139	6319.7319499478
0	10752	562701.321437448195	2928.339255039
0	10760	562903.275178442144	3612.8460876525
0	10784	564032.142029955569	3775.9899040136
0	10801	564966.016620052566	4229.4785832421
0	10811	565194.610228458858	3886.3730941395
0	10816	565586.877936696692	10850.38072655
0	10831	566133.069318047716	4637.8599949162
0	10856	567622.208538490962	6233.3609769593
0	10864	568061.763224255185	4169.6037968351
0	10870	568331.455098376968	2635.3225381864
0	10882	569547.753187097534	5209.6476260234
0	10912	570681.027791545218	5051.2772280515
0	10931	572281.47396332249	5952.1058729091
0	10948	573037.920263517804	10543.915051073
0	10994	575227.552814721409	5469.4504346473
0	11011	576331.711926428246	13551.855453099
0	11019	576495.536043350389	7375.4183264037
0	11024	576571.310887047233	3921.4595242453
0	11036	576950.622102114166	3290.6700111724
0	11044	577252.207799771542	4061.8196310663
0	11055	577733.156057825433	5721.2444494765
0	11060	577734.436297128599	7759.2350085408
0	11065	578063.489610837939	5068.19261955
0	11101	581868.161456780511	4791.4436773076
0	11110	582256.781200641337	7119.3256489624
0	11157	585686.077748345143	5900.39895102
0	11188	586624.946759530377	2110.6584958125
0	11212	587754.486643569718	5084.3165893048
0	11255	589644.05563744938	7084.6119435913
0	11267	590257.145737327695	4817.1198586732
0	11276	590690.718396708289	5758.1753971569
0	11287	591389.649101512522	11292.137093739
0	11303	592275.976328225756	4923.5414481243
0	11315	592633.102357531	5906.2924052133
0	11332	593738.30997987076	6571.3577969007
0	11337	593917.803571716774	6748.9925161961
0	11346	594163.380776213107	6778.3009436731
0	11371	595716.679412948985	8910.1034610102
0	11377	595734.499396657927	4536.097596412
0	11382	596069.188385865726	1983.9179353884
0	11407	596589.153390710621	17663.651676073
0	11431	597081.398107039379	5916.4664757794
0	11439	597265.196753185605	1034.1196190587
0	11457	598300.172507904474	12241.884339446
0	11483	599355.71047031014	2076.8718643225
0	11488	599512.786283061495	6991.6128048876
0	11493	599634.906443706531	2981.1555577404
0	11501	599876.509695307531	3092.7470293225
0	11559	601266.324287728479	1296.0715200869
0	11564	601312.008683651489	1562.4198826714
0	11587	601994.529957969016	7400.1094922184
0	11592	602168.848359614897	5825.5826917394
0	11603	602324.682676571823	2287.206878175
0	11620	603001.639008529433	3019.4891078656
0	11740	608707.025130949547	7818.2790159358
0	11745	608740.325041393905	7828.0561690172
0	11750	608764.922112575119	7244.747488932
0	11758	609162.963054450221	10522.424173494
0	11767	609481.61863861981	6811.1370955972
0	11792	610211.909499223654	8025.7688814861
0	11801	610320.553290000471	4559.1019165642
0	11817	610783.058509214557	6122.9382432357
0	11831	611428.504925818201	6940.1514759368
0	11853	612605.226517251108	6662.8248518008
0	11862	612963.868833030206	10299.852303976
0	11870	613083.213263671805	7410.196552181
0	11878	613387.93746934631	7546.7799632705
0	11892	613877.791162917386	7476.6993711724
0	11904	614682.898774231055	9199.684204306
0	11914	615043.990114226286	11392.070150427
0	11928	615344.186008868112	6005.464876618
0	11934	615609.63149690514	9712.4436647737
0	11939	615694.5270706218	5431.8030493338
0	11944	615777.935324538103	4741.99441941
0	11949	615876.378120454054	4108.176320782
0	11961	616364.215485975028	5772.4810518167
0	12046	620536.755705848095	6074.9570208511
0	12052	620586.61029048788	7241.8647834243
0	12057	620718.082299766491	4272.821044921
0	12065	621350.648532360106	4775.9727760062
0	12070	621356.590233141232	4390.3201886337
0	12075	621374.992720188227	3732.8803369671
0	12091	622478.952384798205	6136.6206428463
0	12119	623255.529148978891	5879.6005743424
0	12182	626600.970904742669	4446.6928231296
0	12196	627273.217659909159	9061.8603161098
0	12210	627995.456758145408	9033.5602714512
0	12240	629581.097396962332	6577.6314948462
0	12264	630391.484010226604	7289.0250646086
0	12269	630537.328161807763	6596.4452940486
0	12278	631297.76939810676	6129.7067199843
0	12288	631544.619438399045	4501.7908618507
0	12293	631617.40400680843	8102.761585763
0	12302	631869.164459480709	9243.4728987746
0	12307	631927.014527620604	6375.7067180129
0	12319	632960.954018234205	3769.1230513821
0	12357	634071.996664257433	4677.6598791102
0	12369	634887.058460083615	5093.5378936336
0	12395	636281.583808882112	3783.1232998671
0	12405	636629.279740741235	2555.8446868548
0	12413	636715.286768583862	5959.4121098159
0	12425	637278.140747829832	5140.0746954552
0	12433	637685.581742095762	4649.8828814061
0	12457	639238.127526516258	4828.1855900061
0	12467	639292.986108339374	6149.7283124906
0	12472	639429.216118483858	4064.3584575846
0	12516	643784.073828309344	4579.864089968
0	12535	644367.884663003306	6738.9194862945
0	12547	644959.79209083635	3407.8723468559
0	12586	646713.191698462696	19012.963044118
0	12594	646844.829013613642	4650.7489977415
0	12625	649349.990579146931	6105.3526089245
0	12737	653055.456059660251	9340.0793141226
0	12751	653447.692610899847	9041.4278908573
0	12759	653578.478722772364	5461.8877648222
0	12764	653663.425923717317	7344.8901226746
0	12782	654807.648274192482	4999.8318394213
0	12802	655742.0514850716	8999.7978666154
0	12819	657163.574702248722	8932.4495801375
0	12833	658188.440301718951	9302.805683997
0	12847	658887.787450233131	7538.5843798456
0	12858	659107.732884901749	10200.523516816
0	12894	660351.136231106687	10370.872060914
0	12899	660368.635093213552	13896.087227898
0	12904	660389.538591665652	10535.185514926
0	12912	660567.927930964003	15640.409972303
0	12917	660741.033034202885	11749.304986954
0	12932	661360.863824609334	9373.1304291008
0	12937	661478.794040543614	4474.306919957
0	12949	661936.094408059723	2858.4299286778
0	12974	663233.85845069519	4221.2256705218
0	12980	663695.069710024778	9185.4602493902
0	12985	663853.46093264883	6414.5136861598
0	12993	663916.347727878746	9803.2656274075
0	12998	664049.228715808194	12425.709706305
0	13003	664268.248973552232	11237.303106495
0	13012	664360.537195911534	2583.2981542554
0	13026	664590.951702968873	9120.607093858
0	13052	666664.072547626495	7363.4382450055
0	13063	667230.22961063403	7841.7798350666
0	13069	667982.254732739016	5547.2239137789
0	13074	668164.087161137884	3708.3222356887
0	13096	670802.975990563729	6336.6536163623
0	13101	670853.444510316974	5361.6961243294
0	13136	672930.896702569078	1151.4694630998
0	13163	675614.880210718089	4257.3665358196
0	13180	676571.725941953734	6832.3428355748
0	13189	677305.117053460775	4009.4463287503
0	13206	678444.630299462615	5097.7463779244
0	13222	678862.446318255735	1244.7566510276
0	13242	682056.133606633924	3449.5994819267
0	13270	684982.699157919628	9360.626276065
0	13333	688084.734585121068	15686.174054525
0	13338	688157.276672355586	4243.097464351
0	13347	688459.316528444656	8904.9890645665
0	13355	688543.834080523459	2911.2861028823
0	13365	688818.131167935693	6680.6455014744
0	13373	689093.124647530793	3657.6975450408
0	13396	690527.285696119762	1996.5421066599
0	13404	690790.023986924189	1741.2915543928
0	13421	691378.550022281405	4827.4294187894
0	13433	692300.069048372236	2411.3442674514
0	13445	693023.215245264437	7203.8667797456
0	13455	693168.667404912594	6865.5193728445
0	13498	695522.68799019391	1445.0761604262
0	13506	695634.074302419641	4745.4524164215
0	13514	695907.17370574311	977.3094216604
0	13523	696270.309491193757	2232.4003839336
0	13541	697780.95303373573	5255.6356279411
0	13553	698689.525474674048	3691.0384884993
0	13584	700244.694994938035	1581.7671271361
0	13600	701083.573230585218	3673.1800580996
0	13632	702063.193530774724	2003.5977856858
0	13669	703748.225403987503	3690.1304602138
0	13711	705961.478554043787	4339.3231904572
0	13745	707033.63621504379	5071.9004465009
0	13779	708276.616374895799	5067.3187644746
0	13790	708658.805128272985	5127.2951575986
0	13798	708770.943540231444	9715.1141477065
0	13809	709423.420967742841	7259.6097695939
0	13821	709835.188543502639	5768.9618366681
0	13849	710808.778236659003	8411.749450066
0	13896	712952.379488728782	11301.753489185
0	13901	713000.671052527963	8874.048154703
0	13913	713196.737454912118	6386.9154971032
0	13933	714829.78160766551	7859.0245063397
0	13993	716878.378105491295	9604.3484712584
0	14001	716976.972450869509	6692.0675657264
0	14015	717466.186518165697	7973.5138070441
0	14023	717602.509710865983	8935.0799187485
0	14042	718110.343523739188	8112.2587771164
0	14048	718401.518711488212	8949.4994585296
0	14060	719520.95465403022	8675.7140244049
0	14077	720370.641875688987	9965.5502029369
0	14090	720850.057885293956	14893.181944666
0	14096	720913.143367461328	10616.136631394
0	14101	721574.107848398976	7404.5559510461
0	14113	722552.756463356951	7684.1012286919
0	14123	722572.838211032499	6684.7268425902
0	14129	722668.657752914781	9586.6608992005
0	14134	723318.513991702686	6403.2149227819
0	14139	723360.772941312448	17415.43812907
0	14148	723675.357639713587	7930.2174712987
0	14153	723743.267373243912	6194.1129142824
0	14161	724073.022663911547	9321.6670893348
0	14170	724557.04973810964	4306.5862836098
0	14181	725179.112022146956	6442.3688293448
0	14232	727939.150932370421	1956.9349901456
0	14243	728503.269174210612	4416.137897301
0	14248	728520.008123285464	1225.7918770693
0	14257	728979.173580185898	3224.212211742
0	14276	731215.999048229604	4397.925076812
0	14293	732324.608319121538	4575.3393293433
0	14310	733609.479856493309	11816.827945511
0	14319	733801.310346332756	2424.774183255
0	14364	736068.605518852436	6022.3169580593
0	14379	736818.470459191311	2457.6099991695
0	14414	737802.594938776801	3874.9770904237
0	14422	737913.421954940553	2765.6490267675
0	14428	738210.896502166466	1904.5697217076
0	14436	738544.659708795835	3130.9713882293
0	14456	739198.9441581359	2016.4150244243
0	14465	739866.155923694281	2921.2246110735
0	14478	740332.587897392853	7875.0078516155
0	14495	740854.82474178918	1558.3195709078
0	14520	742474.972710603942	6347.8100435524
0	14609	745900.863429684761	7172.4242542894
0	14619	746129.43829758192	3865.367021947
0	14627	746302.08651558485	4867.4037896321
0	14635	746386.95701194902	5955.2170836114
0	14667	747260.625140797642	4067.3381545174
0	14693	748847.895995961844	6550.1806621225
0	14698	749035.208961521594	5718.6193108946
0	14703	749081.902273124081	6750.5664023339
0	14712	749795.418624990287	4837.744794466
0	14726	750156.63029022993	5582.9847319048
0	14731	750197.94920573172	4553.2452467151
0	14746	750928.021383191157	4604.3001523318
0	14827	754105.430833856239	10591.538497032
0	14838	754338.668225003527	11843.24874968
0	14846	754416.238019469951	4211.8090099258
0	14851	754514.77381755881	5063.0725310568
0	14866	755543.603637770945	5201.2815241204
0	14893	756697.73030809571	5364.9312612984
0	14898	756796.331738157218	5507.7067857229
0	14903	756806.343737044845	6262.1366524893
0	14909	757118.467954268727	9940.8800031836
0	14914	757196.459201868454	6263.4458341391
0	14922	757597.575683985867	5201.9609758205
0	14931	758063.107641757266	4141.6591669841
0	14957	759654.562431144271	4028.4654979635
0	14975	760491.304313178171	5891.3118465329
0	14996	760979.188422424859	5069.9842351107
0	15001	760985.075968010701	1514.4876153684
0	15006	761024.656010020822	13852.184728616
0	15015	761294.319733876145	1388.1857268769
0	15023	761963.855604727217	2855.5037697785
0	15035	764647.166932301379	12736.474742646
0	15069	767154.758262574278	7008.6837648827
0	15078	767577.696587804571	2058.0773809731
0	15104	769677.453386778608	987.95278429232
0	15113	770126.174524716174	3408.2989552976
0	15121	770500.448779165736	5440.1068284156
0	15164	772692.714474414846	3994.0917985605
0	15181	773211.835078208082	1149.7200848757
0	15192	774012.812794080982	1627.8729965614
0	15198	774049.091388038278	2226.8767520562
0	15227	775806.359889337508	4705.289139621
0	15248	777716.705635702424	4666.614135021
0	15284	778497.312591657072	4078.5044084023
0	15305	778890.194237494338	1542.623740383
0	15311	779259.714042765298	3476.2327706577
0	15319	779507.926104050658	4579.2229992696
0	15324	779651.71738306394	1598.0594076514
0	15355	780509.164504753957	2285.6523343843
0	15366	780990.574909913822	2571.510628409
0	15395	782245.531044499027	2465.2217003719
0	15427	783171.307141982562	3403.3628009202
0	15433	783527.766097715017	3049.6683789327
0	15468	785423.438106622083	4142.5362295593
0	15489	785978.783931782501	2103.3700249872
0	15520	787203.940321234771	5270.2428261972
0	15603	789514.402079551704	5164.6660868691
0	15611	789759.748405799471	8161.2920355592
0	15620	790403.562948894273	8810.2975090067
0	15634	790651.99800008198	7863.7160104887
0	15645	790845.3281139928	13099.480917045
0	15710	794285.531624616061	8963.3889974518
0	15719	794705.077804873822	7381.572805117
0	15729	795071.433245280259	8408.6749086554
0	15735	795466.922074806779	7148.042129833
0	15749	795870.224825412493	8933.7291745091
0	15759	796101.888417355636	9793.9995323849
0	15768	796456.301611365556	10854.340852463
0	15776	796620.075030809359	10223.430899608
0	15782	797260.148644616043	8928.5596278427
0	15790	797817.219446971101	11611.306125689
0	15795	797970.316956303191	7225.8649273631
0	15807	798826.672872688138	6184.0751555871
0	15823	799402.639887396532	10897.547111191
0	15829	799781.058898038924	6586.3001786794
0	15841	800767.772253198218	6338.4958389743
0	15846	801296.625776276368	8308.4542644958
0	15852	801485.774024840223	8464.5059041303
0	15857	801561.50140950228	5963.4484125928
0	15865	801759.861049683555	3655.4652835972
0	15870	801830.768071327967	11080.097271551
0	15879	802617.478999620718	11327.788396482
0	15923	806498.320835134407	2571.9638097807
0	15936	807992.064581352029	3021.4643705654
0	15953	808544.829855516627	4229.9829016367
0	15958	808563.596275890973	10165.595790524
0	16010	811621.494765019322	2887.1254598803
0	16027	812014.794755369411	2588.2863946246
0	16037	812371.239819410667	4667.2999135356
0	16042	812429.243645717466	3212.8165828753
0	16052	814184.387903877229	2716.9690488604
0	16062	815826.003218214145	5602.0728063032
0	16081	818382.926999445391	12864.084186859
0	16091	819558.602462640447	7707.120338079
0	16119	821148.343712853615	983.3429724994
0	16142	822126.792036217805	1207.2651381881
0	16167	823383.313084570886	1201.8738238159
0	16185	823938.017300693189	7027.5071574646
0	16201	824665.4629457036	4425.7437012082
0	16210	825540.365671341907	3649.6702593395
0	16258	827401.130572436584	4710.359533986
0	16263	827592.548666224454	3996.9477957742
0	16278	828030.707800726114	2487.0383366694
0	16283	828155.03881839262	2300.0617573706
0	16296	829750.628993768182	6177.094299734
0	16318	831185.649415904551	5227.7050246682
0	16328	831319.422601924124	5314.4879178617
0	16350	833238.041258322085	4313.9051930972
0	16381	835363.615778196134	2571.558959292
0	16390	836256.629064283255	5955.0972296789
0	16422	837772.94030955672	8082.7326485586
0	16445	839693.963571505777	7551.9994602183
0	16453	839854.809449238959	3127.8869312561
0	16459	840023.75693425194	6570.5775560118
0	16485	841896.550232432035	5235.6641581668
0	16501	842526.887068481053	4773.9639487305
0	16513	843444.132387772315	5619.3366968875
0	16542	844738.339026231287	9690.7465431418
0	16561	845205.58763057945	968.37327343434
0	16572	845546.305536922072	4226.24271478
0	16594	846372.276167219384	1821.6023037439
0	16602	846571.193191513259	3219.1475389053
0	16611	846905.422600947287	1464.784744786
0	16682	850121.636540070516	9125.8334665603
0	16692	850287.296502924027	7968.0353122092
0	16704	850555.68776608686	6184.7236836314
0	16709	850598.846896787878	3384.7226084145
0	16715	851320.809183979221	5663.7781696335
0	16720	851449.516043076031	3679.0770781258
0	16731	851866.064577412748	3779.2860651652
0	16736	851896.54358742432	4385.9815523117
0	16753	852445.874544460697	3701.4122115404
0	16762	853538.632910064729	4630.8149422488
0	16782	854262.275399284737	4474.3487928328
0	16826	857553.462780973835	3618.7795428878
0	16831	857764.287513589425	5394.1879643735
0	16843	858188.908745057424	3971.7187843238
0	16867	861003.360876886026	3630.1006718225
0	16893	862923.334861477609	4828.7233254291
0	16906	864228.382430011373	3077.5256997554
0	16919	864486.457452039543	7656.9977847254
0	16934	865231.639356954381	9730.6629623478
0	16956	866371.74830808345	6502.7500657296
0	16962	866779.352329962351	2562.2665975364
0	16990	867966.249907698769	6683.1675479829
0	16995	868056.895901180683	3046.2325905732
0	17005	869180.865449255538	2094.3471982653
0	17036	870553.714271179285	1170.6559195575
0	17091	872308.373020824792	7265.8830115012
0	17106	873330.336660039269	6104.587975281
0	17122	873674.906140352555	3374.9572630694
0	17130	873991.188360603608	1682.5218840579
0	17160	876141.350571481014	5173.5813709792
0	17176	876437.904757918796	5140.5983928892
0	17197	877795.676402015951	7376.4912749489
0	17217	878733.186201099012	4384.3561445248
0	17222	878780.817724917797	6077.8481502672
0	17230	878823.651435944619	2908.671579645
0	17243	879344.26209087353	8851.9002180588
0	17249	879539.493458325026	4423.0694665381
0	17267	881289.981714329368	3734.46534614
0	17275	881708.530472457665	10929.65525301
0	17295	882587.124627596189	11900.447710692
0	17307	883201.782771807879	6797.3532711431
0	17343	884818.015711564355	6008.7126163696
0	17352	885475.092059993598	5612.7658999984
0	17360	885663.982050265235	1605.1633984518
0	17369	886332.91825098708	4264.6696331248
0	17406	887601.986045453806	4777.635978744
0	17445	889692.134060237727	6677.0775589828
0	17451	889765.738140774541	5651.0259702695
0	17456	889923.397476257275	3395.1982239515
0	17465	890664.905256209653	4113.8865825921
0	17476	890849.240058871152	3660.5311984028
0	17498	891804.103976394945	4065.9820937616
0	17503	891970.292823297172	4673.4846685638
0	17521	893514.123057608259	6562.3193206139
0	17530	894229.237734986618	3533.5019473926
0	17546	894783.154453744813	3939.4689288393
0	17572	896481.427104897875	2193.8092467652
0	17585	897685.848441199228	2797.3120020107
0	17602	898723.705945012352	6060.0205448958
0	17625	900323.776271237676	2740.7214939822
0	17654	902190.538517554136	6906.6805598516
0	17668	902559.023210995516	1311.2158835676
0	17707	904083.775767268769	2688.6048455842
0	17718	904520.751523035467	5954.5763498373
0	17726	904783.903781444596	5407.6246616034
0	17739	906088.554976533844	3608.8814650722
0	17756	907026.359289627157	3246.6363489944
0	17767	907627.677160660679	5295.4217104874
0	17786	908217.847411050716	2173.9542330247
0	17803	908980.769356943417	1790.9658248853
0	17845	912099.045653573665	9435.6196990184
0	17861	912743.714097593149	4281.3311980988
0	17873	914027.014395155987	6600.4871541485
0	17885	914899.086935118229	5125.4860957552
0	17890	915217.733763301297	12841.856256485
0	17930	916686.256954309887	4387.3517425461
0	17935	916840.909777779015	1550.6492934747
0	17940	916971.243646685763	7984.4462709743
0	17957	917942.802220576761	1925.5436125739
0	17966	918336.246539895774	2721.0390267206
0	17985	918795.700334393556	7939.1873401723
0	18007	919222.555401560524	483.29712666765
0	18025	919989.979734350801	1629.270027395
0	18067	921572.317955954544	9546.5628681734
0	18072	921632.305780247628	2202.249948509
0	18080	921860.455424073917	2823.8879738847
0	18085	921866.198859661123	4809.9327364041
0	18090	922166.005174448324	1998.1454829541
0	18117	924552.814724728298	5164.7530680644
0	18182	927694.955541308573	1706.1628660948
0	18390	935961.644927473885	15521.349637577
0	18399	936237.089377556647	9773.1996741386
0	18404	936437.943324369326	9418.7579767812
0	18412	936523.662561382389	12277.316218304
0	18423	937504.624015030793	10138.321446534
0	18428	937542.800542087608	8677.2333950526
0	18434	938078.236726225562	8777.28646642
0	18439	938123.929131660744	11468.395969121
0	18444	938318.321553916728	10748.557576729
0	18449	938366.576682686433	8229.1216864246
0	18458	938900.916628913393	11840.467950252
0	18463	939012.03048714184	11697.869065031
0	18468	939042.782742195718	16419.50356902
0	18473	939263.254931812091	10737.978167286
0	18479	939669.90934238696	12417.26593541
0	18488	940372.011825940896	9339.1566693418
0	18496	940903.579442716364	12881.892585207
0	18510	941265.957501786916	12084.302514423
0	18527	942234.095513259354	10484.620235221
0	18545	942615.21372231998	11765.951052053
0	18551	943046.415118166388	16649.202726033
0	18556	943290.107781555321	9495.2934670538
0	18561	943426.175144238474	9086.2042532072
0	18566	943490.86806815188	11387.220363665
0	18571	943649.878120542009	3117.0402330978
0	18584	944790.200954592238	3599.5209117064
0	18634	948095.737448745523	12767.664257124
0	18639	948104.517882001435	6502.2785688766
0	18647	948412.995350635649	6655.9590675665
0	18652	948549.635506105704	3805.5946907368
0	18657	948679.958804037968	12216.17808393
0	18666	949088.238910604817	3764.8689034285
0	18675	950090.341064633316	4898.8922028678
1	1568	79271.523494474737	11.905426641788
1	1577	80209.460525491572	0
1	1602	80828.166131074177	196.92254303607
1	1611	81608.248642598329	0
1	1634	82472.560524807759	284.57113446648
1	1654	83259.734621026904	149.05982230846
1	1677	83889.561364026693	0
1	1694	84591.188373076389	0
1	1703	85148.674200495662	0
1	1711	85556.536790104728	0
1	1721	86785.000488622844	0
1	1755	88077.44703632682	387.32687586046
1	1767	88321.536899617793	435.54217988613
1	1772	88341.509785289463	311.22177620965
1	1814	91150.583998720061	0
1	1822	91187.549302675113	36.469926139491
1	1833	91702.050569504383	223.46494743452
1	1848	92573.675122058987	112.4635902784
1	1856	92645.582190983027	10.608906562237
1	1881	93829.3424178088	0
1	1906	94998.232238021625	179.04076519194
1	1923	95738.400621523772	0
1	1931	95819.639463692131	0
1	1943	96208.742064536866	122.59366771584
1	1969	97911.60106629982	2.062295680314
1	1986	99014.260909674243	420.4408246268
1	1991	99079.255488804857	138.60528340302
1	2005	99378.592056806855	262.35651225424
1	2017	99987.116279448416	766.50511333693
1	2025	100126.692219402041	618.08578166205
1	2034	100490.030614513051	95.193040850022
1	2060	101371.850400616606	42.696020432066
1	2095	103077.730904689255	419.45228020946
1	2103	103534.168550379579	392.73720888675
1	2118	103819.889449012168	266.36453403452
1	2123	103939.189872947431	193.78668032699
1	2140	104971.580800027536	448.63294412516
1	2145	105018.387563490059	473.29016629375
1	2180	106541.014866238728	389.19821447132
1	2188	106857.808600437725	225.099145684
1	2234	108722.168981713778	0
1	2243	109707.385755224646	0
1	2298	115312.933232995688	0
1	2306	115687.427426634867	0
1	2316	116753.209752189902	0
1	2336	120212.86148965614	0
1	2344	120347.726961299678	0
1	2362	122046.253581931067	0
1	2371	122702.077765472049	0
1	2397	124872.338905150443	0
1	2414	125973.995197636221	0
1	2431	126200.928239379692	0
1	2440	127147.084127070727	0
1	2475	129772.542954227628	0
1	2503	132866.240543623946	0
1	2511	133171.351457691304	106.1250961566
1	2520	134293.243216086699	0
1	2532	134633.259695260176	265.04380146328
1	2546	135449.486650282872	30.107289956221
1	2575	137362.813837638998	626.49346971142
1	2580	137467.690567020357	181.4840092113
1	2614	139271.301624476391	0
1	2634	140000.938127805063	80.476772761675
1	2642	140133.135023129808	126.45823469715
1	2658	142310.534550281646	0
1	2683	143650.64282439586	0
1	2692	144288.406207867079	0
1	2704	145335.61435938087	916.74168112816
1	2709	145569.480292968379	1104.92753958
1	2741	147175.596167919242	1025.6484167381
1	2749	147365.357259846613	506.28185460436
1	2755	147695.574268438933	686.5602676851
1	2763	147763.646579028212	532.0302017443
1	2778	148492.108392885628	23.128942111643
1	2792	149111.070497040089	188.16129471449
1	2821	150409.073920101482	532.67435657685
1	2847	151815.825572671588	806.48200714222
1	2855	152190.163980998289	950.20108258049
1	2864	153092.897475939211	1372.0042650597
1	2873	153746.255983028479	1893.0189395252
1	2887	153999.998942855755	767.89531453845
1	2898	154188.83337448955	399.16610046481
1	2911	155260.233770038148	1106.0690941265
1	2929	155878.948067772638	19.930762757902
1	2942	155951.629488277169	43.652298184722
1	2972	156385.226649260997	112.33485285901
1	3029	158581.922723429508	214.59629436987
1	3053	160384.072007450647	734.02797866111
1	3083	161592.332572957878	595.53436121066
1	3097	162550.458624149793	0
1	3105	162670.557493528442	0
1	3114	163088.145003307868	149.86980401792
1	3129	164020.16779943927	249.57726047069
1	3134	164120.403979892078	250.86155250074
1	3165	165838.395995359214	0
1	3173	166161.518263547142	222.47819728725
1	3225	169612.479949883289	0
1	3234	170067.521915402644	0
1	3242	170498.448389229438	243.40694739392
1	3252	171485.023715423551	0
1	3278	173992.549642026803	0
1	3304	174878.704499910279	0
1	3322	176396.577230772929	840.52565118639
1	3328	176984.764087417429	1173.0638091472
1	3333	177063.216150093659	1022.9412899777
1	3341	177192.041600376525	887.56769973816
1	3371	178047.795206478684	0
1	3380	178408.894272028148	0
1	3425	183026.296308140304	0
1	3434	183771.256913793761	0
1	3452	185377.113559363553	0
1	3468	185707.074860201628	0
1	3490	188028.366928601946	644.58178737119
1	3496	188664.659584872936	976.84654805293
1	3505	189591.115957568216	646.23032390003
1	3557	193543.078365254371	0
1	3566	193909.403481587551	0
1	3583	194777.906396199389	0
1	3592	195552.542815283031	0
1	3600	196235.513572241321	0
1	3610	197181.512259268607	0
1	3652	198910.248848849282	0
1	3660	199243.454290336456	0
1	3670	200659.903265634724	0
1	3705	203585.993086311958	49.885004565014
1	3714	204405.164800858651	0
1	3749	207292.957178440533	0
1	3758	207941.181114279363	70.878858858877
1	3776	209181.976712353846	237.71895182254
1	3786	211197.612405908361	0
1	3811	212415.052320661987	11.773234173393
1	3829	213002.088701648576	562.82356311509
1	3834	213078.737110136492	616.46916993198
1	3839	213214.213566556751	492.50662430407
1	3862	214496.960051005384	0
1	3879	215225.091086056586	146.28997553068
1	3895	217116.143459258893	1662.5819889109
1	3903	217518.726467165697	1939.5064319344
1	3908	217543.54402612676	425.96223150706
1	3920	218091.401793905614	218.20584982315
1	3949	219539.03128370178	443.77664472601
1	3970	219956.067142728905	147.52287014534
1	3975	220230.296006974529	385.9512845704
1	4014	221729.984196564422	0
1	4023	222158.407800633639	0
1	4031	222453.079767414296	294.57194068725
1	4039	222833.488712465467	21.014682506974
1	4075	224921.52429967314	280.74621454052
1	4099	226599.11814899315	1297.561888201
1	4104	226948.406483434986	1492.4805377407
1	4112	227061.004163333962	1089.1345792141
1	4156	228618.23438746958	506.62030400695
1	4175	229287.040574624929	0
1	4192	230206.528437316755	0
1	4210	231218.42950197668	764.95528561128
1	4218	231314.336356378676	453.92075289615
1	4250	233153.512638934013	146.66045133676
1	4258	233519.904477200362	56.362669870122
1	4272	234438.197425140489	427.95547140713
1	4294	235380.351149960443	0
1	4302	235674.707921349188	293.00427640891
1	4319	236218.121281641794	0
1	4336	237215.053819892039	20.450757235061
1	4351	238245.888433059226	881.97382823925
1	4356	238271.58753512921	625.90101188922
1	4373	238630.71684392395	204.72314823561
1	4381	239068.582191202192	600.07032571553
1	4399	239831.133684790921	371.76067136438
1	4405	240135.622194495131	457.98611765668
1	4410	240405.132293608307	690.62424152943
1	4431	241516.381383987664	562.35397556802
1	4443	242150.958355833755	460.64642381436
1	4455	242649.704810571408	42.66345415365
1	4498	244172.632715591736	339.68855047284
1	4503	244260.099230687925	254.81060842411
1	4570	246906.007866022083	523.83925942124
1	4575	246927.209407373514	209.31095919541
1	4588	247701.662559239866	578.59908904404
1	4609	248884.860405903297	75.23620449257
1	4623	249567.270009646415	0
1	4631	249599.247752610939	9.648090045719
1	4650	250128.853357315388	56.564548060084
1	4659	250295.697015098151	197.66412245934
1	4688	250764.31859434244	21.302023784851
1	4697	251472.201306937586	0
1	4724	253798.105184293206	0
1	4752	254934.062890624151	673.14377069471
1	4766	255694.030370215518	171.83712742288
1	4774	256258.687036526982	0
1	4786	256980.367828589481	160.6555545561
1	4791	257071.050745380731	129.01018672216
1	4800	257390.820480417538	0
1	4824	258362.353886035469	680.72954952652
1	4829	258362.530255952182	259.74338280102
1	4834	258580.736684621699	224.57934643074
1	4863	259954.296434512114	333.89066822489
1	4888	260553.843016149555	306.87365981293
1	4894	260595.914042804818	110.20869141057
1	4924	261607.939831024793	2.82659150051
1	4960	263651.888423754149	125.61441715905
1	4986	265989.528788753225	0
1	4994	266221.288309541487	0
1	5002	266459.785326097727	0
1	5019	267271.266130950101	0
1	5055	270256.489619991165	35.653492525331
1	5063	270485.821034900993	0
1	5071	270598.628134376391	0
1	5092	272006.59879590025	828.00052965623
1	5100	272192.927305558322	702.59003343845
1	5108	272494.312695502095	390.78641213862
1	5137	273619.798270451098	96.837040485007
1	5145	273773.688588522391	131.59122461733
1	5174	275295.206709030822	638.27941534058
1	5188	275939.502428973049	1048.9875344972
1	5197	276217.426881404036	765.61741936015
1	5208	276573.245248982244	871.39195026125
1	5217	277065.796948617443	963.81534844804
1	5222	277147.886701593361	617.98258804077
1	5227	277300.78764203048	306.61169003656
1	5258	278477.614898456097	255.07641087659
1	5313	281038.055765685186	57.357157041008
1	5349	282208.420193649687	0
1	5358	282912.758433465262	0
1	5385	285521.235321242553	0
1	5393	285607.538277684814	52.417848879178
1	5401	286271.86550221495	0
1	5419	287707.921293792436	0
1	5457	289896.96997493077	267.85056434306
1	5465	290378.698000287943	682.8035433624
1	5470	290381.505056189893	480.82192903005
1	5487	290919.510792129128	0
1	5517	292375.317482245815	1202.0094400899
1	5529	293685.384287225395	2378.0588711961
1	5537	293940.153792043336	1569.8651782568
1	5543	294145.968405418915	1556.5083463583
1	5573	295623.176086777328	393.29135467688
1	5578	295694.230837670519	323.80557933266
1	5619	300967.370894581992	0
1	5636	302199.022723012222	451.09358562527
1	5645	302794.161897843211	0
1	5662	303635.167277159256	0
1	5670	304180.233793358472	0
1	5712	305809.501998727704	0
1	5730	307436.082179027651	0
1	5739	308111.234258612347	0
1	5756	308689.754797645917	0
1	5773	310012.874376506029	0
1	5782	310314.087884418513	56.577690297191
1	5790	310460.509487354381	0
1	5801	310826.250908470944	218.17590084366
1	5815	311310.09669289805	0
1	5844	313013.805504836306	299.97064287509
1	5849	313560.84167337857	634.77621213629
1	5858	313782.588818690399	0
1	5866	314162.068350032005	274.78053549068
1	5878	314840.185527802467	663.85429807065
1	5928	316742.376937198767	187.92577342633
1	5933	316823.632966373175	149.93266505868
1	5960	318107.292767706682	244.78718250737
1	5975	318969.193792069985	1060.3959460481
1	5984	320044.411144003062	1949.0591383343
1	5989	320114.52466432353	1383.2337874233
1	5994	320149.085231207252	1417.4303416799
1	5999	320182.773507104207	947.21393986847
1	6014	320990.846831231921	125.22494808056
1	6078	325354.190667839462	136.64864344335
1	6101	326615.909477215802	367.19048105956
1	6109	326826.838475633013	573.51390164908
1	6117	326990.62392361492	21.881834264719
1	6167	328682.995080661092	657.95988650389
1	6172	328865.7792036482	688.12549227225
1	6177	328984.439452653522	407.96717662069
1	6204	329989.855013419036	0
1	6222	331293.612507106316	0
1	6230	331428.637354905433	22.827201814362
1	6238	331690.101703350057	149.61797222136
1	6247	331930.894251023097	106.95760926105
1	6263	332297.535304217081	260.3110567473
1	6289	333758.89697056607	0
1	6297	333831.018005920586	17.211553067145
1	6328	334502.268254383518	359.72853713166
1	6333	334512.306649767539	199.61289961081
1	6359	336161.014538437107	593.9407807797
1	6368	337101.292470183488	354.76702651057
1	6391	337902.036507805371	596.11417622757
1	6424	339548.077041411331	0
1	6450	341191.216777195199	149.97346954107
1	6458	341719.278185746318	0
1	6471	342906.631076237227	744.40147622639
1	6479	343292.677825286744	241.12238332325
1	6537	345059.174812473771	480.86290731814
1	6543	345607.704061371511	999.2298796615
1	6552	346419.241834532835	0
1	6560	346663.184720060626	0
1	6568	346805.596439414048	58.857184814808
1	6576	346975.835372619594	62.554553777268
1	6596	347720.00679772278	127.60888306549
1	6616	348095.602974495674	308.71919051884
1	6621	348117.987033015803	169.19937839314
1	6629	348305.281955278468	179.15035322169
1	6649	349069.950115492741	539.59140982907
1	6657	349283.805342610726	645.41065228447
1	6687	349799.222988687742	117.23996978082
1	6711	350269.296512786732	1.97200732479
1	6734	352036.76853063722	0
1	6746	352585.425025877738	337.42602036187
1	6766	353428.805484291279	393.63932089557
1	6810	355199.239285266165	596.72269875819
1	6819	355999.976686276552	0
1	6828	357413.081124403847	0
1	6837	357515.67096157871	0
1	6845	357721.608899842868	52.088769988194
1	6888	360832.04769206681	0
1	6905	361502.528074240968	123.93751711159
1	6923	363010.282753488451	0
1	6932	363654.525885674197	0
1	6940	363880.337035076897	2.915849138726
1	6957	364453.832757464908	0
1	6993	367481.935327898201	394.81231358606
1	7002	367735.74271166645	240.30839637171
1	7020	368182.199116644006	74.667053826422
1	7040	369330.748950544419	905.98835448939
1	7060	370435.145239522317	0
1	7069	371317.836280409983	296.68008146555
1	7087	372989.479570892635	0
1	7098	373248.559217412825	215.52629206549
1	7106	373482.546699967626	297.51972729639
1	7129	374593.644054998854	0
1	7137	374865.173642924928	5.677512417821
1	7145	375366.181756237227	217.0942019283
1	7162	375594.466925639851	20.777261963321
1	7181	376011.852963944123	3.171756456374
1	7198	376774.839471283489	557.14012101666
1	7213	377248.517112699254	225.16774279832
1	7225	378011.51559780807	770.85751196761
1	7233	378596.467525332349	833.59994857609
1	7245	378890.614314350801	851.64893263651
1	7272	380242.955674376072	339.85795273548
1	7327	381818.941536222072	459.6164683039
1	7342	382666.608570292297	516.485398276
1	7350	383024.037339234542	802.53157227707
1	7355	383084.860153981859	450.13574721338
1	7361	383234.982557242916	392.11741911443
1	7402	385299.098759608666	1939.3959382452
1	7411	385797.471146673	1512.6594668896
1	7422	386095.390191131365	1312.1828565672
1	7433	386156.891642720286	910.25925134237
1	7444	386321.132141951113	935.46801145749
1	7449	386374.789321588888	525.08550471242
1	7455	386626.022275175549	754.05222184343
1	7466	387183.879177782715	1081.8578613382
1	7494	388800.730868749758	2692.5736561832
1	7503	389875.039100896662	3571.5080504679
1	7509	390547.536640130611	3861.7662798165
1	7514	390657.757356637286	2063.6129461129
1	7534	391560.320494469186	807.31777520219
1	7556	392053.709371742641	91.254752152395
1	7568	392687.212955233885	530.73730074537
1	7601	393049.671439544366	139.90658060981
1	7643	394420.243842382163	707.36770354937
1	7658	395251.945923020185	1277.2767360456
1	7669	395660.937075835809	1512.4966190859
1	7674	395937.900204193975	1734.169549923
1	7679	395955.869455486803	762.14042842529
1	7685	396211.933658361492	880.9701800972
1	7707	396996.571474683332	286.22753156329
1	7789	398897.900532859037	327.94094407399
1	7833	402339.424522107198	0
1	7851	404365.041710520429	543.95678283042
1	7859	404375.456133886064	0
1	7886	406484.324593719039	0
1	7894	406766.290281495653	261.20620124225
1	7903	407299.249403491364	0
1	7911	407416.331433193302	0
1	7920	408455.774114769044	0
1	7932	408942.6681936477	3.906316910539
1	7962	410194.423502575642	0
1	7971	411128.147960063217	0
1	7979	411177.05706113055	0
1	7991	411601.217930897104	231.8983939552
1	7996	411637.935137051168	130.93807698944
1	8044	413463.365226046438	216.73197097474
1	8063	414332.336767819334	0
1	8081	416089.881041359596	0
1	8117	419820.60709292224	378.78857257448
1	8135	421169.793680872424	0
1	8143	421570.484605329218	0
1	8152	421829.349737620028	0
1	8160	422283.626214619619	0
1	8172	422590.579329746417	167.88297894851
1	8211	424723.471961442064	0
1	8226	425471.158876181566	713.31112192182
1	8235	426154.154678682272	993.04704089158
1	8243	426225.947522873153	860.73896827663
1	8248	426718.216996277576	709.48785317631
1	8262	427355.291145470672	237.74120123896
1	8294	428582.637769221569	204.02706749266
1	8307	429171.157462020533	179.28529830733
1	8331	431293.708177658056	0
1	8381	435257.413380520432	422.90499229784
1	8387	435505.170298494284	551.83198375431
1	8404	436390.901949402534	600.48330360216
1	8426	437462.305291697094	146.57779194389
1	8441	438280.392611117741	599.05734616719
1	8446	438346.050993396188	607.59365802739
1	8458	439043.978232801168	1264.1306080338
1	8466	439383.713068741459	852.00807447692
1	8471	439511.481170324238	211.34726426114
1	8494	440663.810026124379	0
1	8539	444876.491200978538	0
1	8555	445436.862379098015	21.493907349315
1	8564	446330.232764185756	0
1	8607	448580.656727898981	0
1	8626	451546.077585760978	0
1	8635	451752.392920242218	73.312023671477
1	8653	453981.620986515059	0
1	8662	454344.192405553199	0
1	8682	455933.772326718305	288.38734749435
1	8696	456428.75533374923	104.27866379811
1	8723	458911.888704894015	0
1	8731	459063.980167547397	14.808524932847
1	8748	459969.551435084651	0
1	8757	461050.721401849754	0
1	8766	461492.040277168624	0
1	8787	462265.070553180419	734.95342273847
1	8792	462408.787064300309	546.46898117583
1	8800	462504.484847733561	612.1230040806
1	8819	464194.408578982322	2265.8557480071
1	8824	464405.344374599115	880.22671922377
1	8832	464441.209826686408	10.539483247225
1	8867	465091.757916162297	9.391571536214
1	8894	465776.436090879322	11.03294844811
1	8922	466902.547806202614	512.48315671994
1	8927	466952.268666244196	556.11969101736
1	8939	467449.003679456908	253.15691477415
1	8958	468208.873821056572	0
1	8973	469114.296330726286	802.88906741654
1	8978	469261.218542663002	670.72161924707
1	8983	469371.070985284511	704.96704782519
1	8991	469420.387895236805	0
1	9000	469775.640667577742	0
1	9060	473065.695891793026	825.52801590479
1	9068	473104.806364840308	614.65468746055
1	9077	473453.742795513722	367.03248574687
1	9118	475246.574617775526	0
1	9126	475448.759238257104	136.76735185986
1	9134	475532.441268457827	12.526215101215
1	9147	476791.310607579125	55.891739232913
1	9178	478022.718899107692	729.57011777637
1	9187	478389.588690110417	372.95743621877
1	9217	479964.788290933554	125.93508047869
1	9236	480390.751894685142	0
1	9244	480713.276606944728	0
1	9262	482157.95601387681	0
1	9306	485883.369439588542	0
1	9323	486359.038459482517	51.711412508267
1	9342	489402.040118577956	0
1	9355	490612.324734915737	167.34383897431
1	9379	492998.625631361595	0
1	9390	493479.900136861362	230.20724059787
1	9398	493563.068194703736	36.673356587404
1	9412	493927.613311110891	0
1	9420	494168.795043985246	0
1	9432	494639.534552084889	5.13731790638
1	9459	495019.147033728587	160.06499915431
1	9471	495757.465810980147	842.71841832566
1	9476	495977.625314759906	999.23804331881
1	9527	498371.95992119349	492.22099045833
1	9545	498862.158351441487	0
1	9555	500089.218947631427	0
1	9582	502552.2992167537	47.908926282373
1	9594	503474.291904173493	370.53810365187
1	9599	503508.013602792758	254.38510000262
1	9625	505306.107977102095	0
1	9633	505501.846971894904	0
1	9642	505879.471195299278	37.920029768828
1	9666	506489.705765639935	0
1	9692	507490.015437150446	0
1	9700	507737.074532235122	0
1	9718	508942.267774395526	535.59399269047
1	9731	510027.846374366329	295.36000963345
1	9736	510546.096193276085	532.78680380632
1	9781	512387.438480732079	679.62798925046
1	9786	512487.648135919846	490.4036756426
1	9792	512755.151925590796	534.70482942168
1	9803	513155.853164510299	86.487614507282
1	9825	514224.081731378461	202.85858812889
1	9839	514788.716018724164	150.82764018209
1	9853	515273.199903364177	0
1	9861	515631.034880874856	145.68096541016
1	9882	516435.988959439257	670.72473123513
1	9887	516590.93484682219	640.95935240364
1	9899	517479.15223843132	273.74596857017
1	9919	518360.776158360054	226.10959926466
1	9949	519417.236861886077	135.81431015912
1	9971	520089.099105976081	161.05021730979
1	10009	522111.960368790839	583.96068611542
1	10026	522885.344997233487	2.814025032126
1	10044	523301.210485319277	38.661979792261
1	10058	523942.134652198852	138.06719819263
1	10072	524878.81258204027	29.588925607481
1	10081	525495.708242823928	260.33886067591
1	10089	525689.522110332418	0
1	10107	526398.163471022165	363.02141355568
1	10112	526584.695149940217	512.20081371646
1	10160	529407.788156393401	678.79245525447
1	10172	529935.679716939911	370.08142388092
1	10183	530451.594941908141	422.49579512709
1	10202	531209.610731890218	289.05327537496
1	10242	533489.315177331733	0
1	10250	533681.344184788727	0
1	10275	534725.615414905973	0
1	10293	535865.897407253736	38.118298385581
1	10322	537907.871379357287	367.14433029141
1	10327	537995.376858314466	202.28318507884
1	10339	538358.471394389059	240.63499624618
1	10347	538676.407551255746	185.82060442306
1	10367	539444.688242852678	696.87817391151
1	10372	539456.964827449616	187.9417022832
1	10380	539625.80794076353	319.42091437132
1	10412	542168.170289581182	0
1	10437	542993.114752514231	0
1	10463	544190.65798612084	77.856000113059
1	10471	544278.758178325012	36.589963354154
1	10496	545252.455567247107	0
1	10513	546862.427677500849	0
1	10522	547217.049895288415	0
1	10558	550919.83053986294	0
1	10567	551929.775352558106	0
1	10577	553357.414825119726	0
1	10605	556078.621653906364	1342.1244437596
1	10610	556117.085380398785	657.58896839681
1	10619	556789.386361906335	605.500793899
1	10664	559332.781013778607	42.351922988987
1	10673	559772.982182409242	0
1	10681	560256.152125941951	0
1	10690	560736.538036810452	0
1	10698	561308.237134319364	0
1	10706	561388.847561531695	0
1	10721	561607.58698296858	112.37765983707
1	10744	562503.617517955139	9.612305509991
1	10762	562903.275178442144	123.41870511254
1	10786	564032.142029955569	139.98260253549
1	10803	564966.016620052566	627.91105897847
1	10833	566133.069318047716	503.31875455405
1	10842	566995.766245494416	1299.6336853038
1	10847	567246.708520791709	917.34043037832
1	10884	569547.753187097534	427.63547015085
1	10892	569758.102380074137	0
1	10900	569975.201288587809	0
1	10933	572281.47396332249	269.56235497351
1	10950	573037.920263517804	388.06890071589
1	10962	573689.903419119299	694.60642783138
1	10970	574129.713416722179	939.32524801696
1	10978	574254.911132288347	594.95904134658
1	10996	575227.552814721409	90.097263042451
1	11046	577252.207799771542	175.49002029862
1	11071	578925.501714637728	0
1	11080	579911.756851190757	126.07805386557
1	11092	580862.05585516627	764.54384739319
1	11115	582559.443693858115	0
1	11123	582670.170054264928	0
1	11133	584514.288263717868	0
1	11142	585110.867450229757	178.32445067842
1	11159	585686.077748345143	246.05186969062
1	11170	586245.428764253296	187.14059579498
1	11214	587754.486643569718	1027.676691252
1	11219	587874.419869914831	1067.8439179761
1	11225	588372.686828491858	1205.7346455218
1	11230	588642.133027584337	1473.3219720636
1	11238	588798.02931820896	1445.5944381075
1	11244	589249.355792885087	1864.2759603451
1	11289	591389.649101512522	224.71747025256
1	11295	591741.010276093481	542.60847584756
1	11317	592633.102357531	111.92887935709
1	11348	594163.380776213107	78.110325735819
1	11360	595301.472263342989	707.0517975924
1	11387	596231.077134126892	0
1	11395	596344.073698776833	0.808030901309
1	11412	596653.750885966107	0
1	11423	596863.200789179126	79.438123194045
1	11444	597278.83860598766	0
1	11462	598640.538880956625	0
1	11503	599876.509695307531	126.92089432741
1	11518	600297.802388901403	327.54962125981
1	11523	600503.60818320874	521.45828254495
1	11528	600557.464654678687	519.98885628188
1	11537	600888.746115013728	0
1	11545	600969.691103292645	57.42223091593
1	11569	601520.174623643105	0
1	11605	602324.682676571823	138.54205883427
1	11622	603001.639008529433	337.62247947511
1	11634	603590.30685194249	919.82530891988
1	11645	603933.10011164324	281.18014784387
1	11679	606001.716592344849	1513.3631424634
1	11685	606165.59873167378	1505.478465695
1	11690	606256.466810357249	773.25224043222
1	11701	606744.482759279873	1071.4660477891
1	11707	607480.734519667162	1719.2831462308
1	11712	607488.272581349562	1647.1150752737
1	11717	607663.928487339361	1766.740655208
1	11723	608086.917662309038	2144.5159968588
1	11728	608098.067155611555	1696.9753638666
1	11769	609481.61863861981	142.89750636972
1	11803	610320.553290000471	57.829268712494
1	11819	610783.058509214557	191.32407505623
1	11833	611428.504925818201	392.56402069011
1	11845	612336.763236430365	568.56143675829
1	11880	613387.93746934631	43.191962282777
1	11906	614682.898774231055	221.10008923404
1	11963	616364.215485975028	21.883744023098
1	11984	617683.969237743079	1238.7079828976
1	11990	618083.7262775397	1509.0505211858
1	11998	618269.547058964758	1303.2770144572
1	12006	618609.71537037192	1233.7867957354
1	12018	618921.06135495966	1278.9489717386
1	12026	619216.314968792911	1004.9576249936
1	12038	620276.269754409493	1314.3732677153
1	12093	622478.952384798205	324.67430318511
1	12101	622641.130118704556	15.438557998463
1	12121	623255.529148978891	252.06324686276
1	12126	623318.976918156134	216.5179725381
1	12141	624503.550847307061	988.90842626166
1	12150	625150.883395020542	1210.0005272614
1	12158	625171.310169778879	3.247491656398
1	12166	625593.593138900653	42.285329292914
1	12198	627273.217659909159	230.38908336085
1	12212	627995.456758145408	295.22810380093
1	12242	629581.097396962332	389.26643011025
1	12247	629639.437462516194	245.10067736893
1	12255	629862.166500585502	68.645934135489
1	12280	631297.76939810676	541.89473933878
1	12321	632960.954018234205	822.88796585953
1	12335	633243.756052468105	745.29554345309
1	12340	633354.199108412505	318.50024772285
1	12349	633920.389341907098	777.13154605837
1	12371	634887.058460083615	813.6234061972
1	12376	634899.148718348122	489.20678183797
1	12397	636281.583808882112	916.72614798284
1	12435	637685.581742095762	56.616565386941
1	12459	639238.127526516258	33.917788174912
1	12480	641551.919743980438	0
1	12489	642194.080015872186	0
1	12498	643244.637970222388	0
1	12518	643784.073828309344	68.697082771731
1	12549	644959.79209083635	553.5273707938
1	12558	646013.721154988409	1086.2031963274
1	12567	646441.768318035986	123.23251699328
1	12575	646476.671884314846	4.124018999504
1	12596	646844.829013613642	102.57539515743
1	12627	649349.990579146931	1233.3996211968
1	12632	649508.612114419039	1277.4869923079
1	12637	649602.364123794834	716.72950607293
1	12649	649925.87918672698	1018.6698186413
1	12657	650154.545885736331	1162.8178384871
1	12665	650293.824759319931	486.00832454871
1	12670	650411.990625060622	557.6375483209
1	12676	650626.548510119551	646.28433992723
1	12703	651933.64081801594	584.43774762843
1	12708	651962.541549888376	339.02254038524
1	12716	652243.986337682863	256.25294217438
1	12739	653055.456059660251	24.510192603302
1	12784	654807.648274192482	694.56617372126
1	12790	655001.467436378549	491.85797574395
1	12804	655742.0514850716	271.70687596072
1	12821	657163.574702248722	159.08758166215
1	12835	658188.440301718951	749.49305522993
1	12860	659107.732884901749	95.100104728402
1	12866	659264.898120038019	187.23364065614
1	12877	659602.145648651081	301.51134603004
1	12882	659703.969774431228	315.51999886381
1	12951	661936.094408059723	158.85536640362
1	12963	662777.465305917183	342.43448695707
1	13028	664590.951702968873	135.18677751965
1	13034	665358.674419485275	892.35204528389
1	13054	666664.072547626495	1172.324161639
1	13081	669739.383106378983	0
1	13107	671357.513674898492	0
1	13115	671813.406841549905	33.979602080601
1	13124	672398.560530596095	0
1	13141	673295.670724710456	0
1	13149	673463.745467241259	116.861545703
1	13168	675622.072881854658	0
1	13194	677617.689667228163	0
1	13211	678606.534124707203	0
1	13228	679554.327463878158	0
1	13247	682137.485666461304	0
1	13257	683914.179208004562	0
1	13275	685435.427102489976	0
1	13290	685973.355036211222	340.80705857007
1	13295	686211.027402412201	391.67893689341
1	13313	686924.599044275347	621.45101220726
1	13322	687740.809145347036	1189.688541855
1	13357	688543.834080523459	13.090491063569
1	13375	689093.124647530793	44.392214999373
1	13384	689888.724780920788	0
1	13410	690888.621885998151	0
1	13447	693023.215245264437	497.89783946976
1	13461	694037.909107260187	0
1	13469	694205.058263390638	127.44643362293
1	13478	694929.864284082707	0
1	13486	695078.593895854341	80.106909679642
1	13529	697410.393172485616	0
1	13555	698689.525474674048	26.597606872112
1	13563	699055.829392524977	0
1	13586	700244.694994938035	186.60005116434
1	13592	700469.337223601606	409.7414785127
1	13606	701622.155363586539	0
1	13614	701673.117896159422	22.491896616071
1	13634	702063.193530774724	101.45776223181
1	13642	702220.41479336769	56.603595218733
1	13654	703066.415679969394	669.38689337637
1	13671	703748.225403987503	538.92779356634
1	13676	703905.99063089616	374.48066022178
1	13687	704465.099611081356	398.87290424681
1	13697	705452.480054687108	1325.8571568621
1	13713	705961.478554043787	16.14374180149
1	13725	706382.940724050434	426.06478342202
1	13747	707033.63621504379	223.81425723491
1	13759	707607.736076419024	636.97897509323
1	13767	707861.06647467886	587.03684044594
1	13800	708770.943540231444	103.51374811394
1	13823	709835.188543502639	383.16929054403
1	13828	709851.727077626277	359.05436650464
1	13851	710808.778236659003	810.69349003622
1	13856	710833.534326252091	548.62944110896
1	13864	711107.316476764937	810.30974069746
1	13873	711697.921392328494	1292.8297195764
1	13881	711809.465152905856	964.22452328053
1	13915	713196.737454912118	114.74060119783
1	13935	714829.78160766551	660.2297103126
1	13953	715329.950408482772	578.59483390599
1	13971	716305.127495925358	1436.4722612603
1	13979	716372.45508549616	627.31491708128
1	13984	716422.554578308103	534.44320986577
1	14003	716976.972450869509	61.673381948677
1	14025	717602.509710865983	53.35525190452
1	14062	719520.95465403022	784.21146122803
1	14079	720370.641875688987	120.17842118912
1	14115	722552.756463356951	760.10455237415
1	14172	724557.04973810964	469.9184612
1	14186	725754.961368443887	0
1	14194	725982.215942224847	0
1	14203	726818.073971417586	0
1	14212	727583.907339695139	289.69109347895
1	14221	727793.914655804812	44.645666026603
1	14263	730046.288560793178	0
1	14281	731376.536163077765	0
1	14298	732457.580045777376	0
1	14324	733927.617848353092	0
1	14332	734360.860460021822	0
1	14348	735572.540257022367	424.76732884934
1	14353	735625.871502822157	212.18318225565
1	14381	736818.470459191311	691.30779213974
1	14389	737069.687670420434	763.36088996157
1	14401	737373.561834972639	428.63052235189
1	14406	737419.128773478325	236.59963976672
1	14441	738728.439175395377	0
1	14467	739866.155923694281	569.65075281287
1	14483	740431.739928337595	0
1	14522	742474.972710603942	1040.2899846512
1	14540	743723.450291282355	1459.3790156474
1	14545	743851.143893798159	1553.4285599588
1	14551	744363.468975692505	2032.1331049023
1	14556	744556.042127246371	2060.6226519228
1	14564	744727.040127997274	1533.753141717
1	14570	744948.088970331966	1631.499319705
1	14578	745069.646718447552	1555.7543816232
1	14583	745153.780191835799	580.13463351065
1	14594	745504.725837428305	547.05200690404
1	14611	745900.863429684761	256.15947066817
1	14637	746386.95701194902	63.235781089629
1	14669	747260.625140797642	88.153859392552
1	14675	747715.605282030264	538.01733094514
1	14714	749795.418624990287	343.71733848832
1	14748	750928.021383191157	723.59237364699
1	14756	750965.834331467693	623.51221781716
1	14761	751052.051198758578	507.84411420306
1	14769	751226.394401255521	293.38103352614
1	14787	751845.90323070473	557.27827827039
1	14798	752436.269391059158	1103.4703442618
1	14803	752533.542058336601	622.84986868099
1	14809	752606.820465663235	211.20575749788
1	14829	754105.430833856239	183.98235908305
1	14868	755543.603637770945	943.61117112564
1	14879	756008.650951898933	382.55401871814
1	14885	756211.481130217548	302.27694290335
1	14937	759108.351834948716	0
1	14946	759470.588352642336	0
1	14977	760491.304313178171	585.17030617895
1	14982	760603.662421726815	457.58792403524
1	15040	765060.341950750163	0
1	15049	765519.619206831426	0
1	15058	766717.875569418598	0
1	15084	768689.500602486283	0
1	15092	768805.838133866846	107.21545801252
1	15127	771101.070749716522	0
1	15136	771822.2146359821	0
1	15144	772062.11499333234	0
1	15153	772493.487610807456	108.54781328788
1	15169	773050.091500681388	0
1	15203	774418.808183254821	0
1	15215	775240.567566055851	311.86446127482
1	15229	775806.359889337508	22.878617229862
1	15250	777716.705635702424	369.13513859106
1	15258	777861.682758534255	115.8355615861
1	15266	778144.142378674402	90.484403261888
1	15286	778497.312591657072	273.80042128738
1	15294	778691.43577498024	272.37149347542
1	15329	779767.944341062325	0
1	15337	779992.999721659314	212.69037753222
1	15357	780509.164504753957	31.066785971638
1	15371	781280.901877062807	0
1	15397	782245.531044499027	652.26560461141
1	15402	782279.495846349685	681.03947610939
1	15411	782624.583459446271	690.88596440867
1	15419	782984.716222671385	196.4342330781
1	15438	783875.413906795279	0
1	15450	784789.381969453799	439.64597677121
1	15470	785423.438106622083	101.29547945784
1	15478	785672.048833414763	70.088074512252
1	15522	787203.940321234771	998.02699995234
1	15533	787392.69612850444	1084.8072435337
1	15538	787699.672239389275	1303.028108188
1	15553	788373.438992252161	1710.6806556273
1	15561	788586.576113938705	1650.0804630353
1	15567	788723.194847239489	1399.6898474826
1	15572	788770.31135990759	451.43141493376
1	15577	788781.454603134312	449.86558636093
1	15585	788984.402727426383	479.30995122122
1	15647	790845.3281139928	100.87608505267
1	15653	791276.083178411766	525.41237863516
1	15661	791487.704534042897	198.01393090449
1	15683	793582.228602120393	939.63088501934
1	15688	793679.776657045555	691.60514526497
1	15694	793832.833359590597	811.56523888068
1	15699	793842.918979099804	648.16025974029
1	15721	794705.077804873822	275.80139064989
1	15751	795870.224825412493	272.17182850298
1	15809	798826.672872688138	722.27710660178
1	15815	799283.41736421129	885.41687884459
1	15885	803926.357025353736	0
1	15894	804314.8469538799	0
1	15906	805578.111642574721	607.51143178808
1	15915	806021.360616256146	502.51780366965
1	15938	807992.064581352029	288.124675477
1	15963	808734.369305139048	0
1	15972	809216.427062842183	0
1	15980	809426.508360744788	0
1	15989	810223.930411910955	0
1	16012	811621.494765019322	154.07591000248
1	16029	812014.794755369411	163.31263080801
1	16069	816910.510143228609	0
1	16096	820165.000740354219	0
1	16105	820351.87232902233	112.15308452692
1	16121	821148.343712853615	228.81681482395
1	16130	821890.695412002452	0
1	16147	822181.439260754988	0
1	16155	822690.771038450557	0
1	16187	823938.017300693189	364.48260665902
1	16192	824226.62505605141	631.02418560111
1	16215	825543.669464056728	0
1	16229	825973.068963372624	118.09190235061
1	16237	826124.565349720197	166.62095848381
1	16243	826522.475523641684	517.54083957923
1	16298	829750.628993768182	826.49292854332
1	16303	830004.598515339766	314.39085434164
1	16320	831185.649415904551	884.1175813002
1	16334	832141.964111287525	0
1	16352	833238.041258322085	445.98443941793
1	16360	833453.179378240114	0
1	16370	835047.592483089519	0
1	16396	836660.886074265232	0
1	16407	836825.643989077054	98.72147109416
1	16424	837772.94030955672	20.01718980621
1	16432	838231.817905206914	407.0222143221
1	16465	840995.803073510264	0
1	16476	841549.156785381874	229.09396323981
1	16490	842319.261190714804	0
1	16515	843444.132387772315	92.08673516432
1	16524	844237.214357145112	0
1	16544	844738.339026231287	367.37494377581
1	16549	844835.417410750422	284.74354727499
1	16574	845546.305536922072	105.66768076079
1	16582	845657.03101434575	0
1	16616	847214.124288373423	0
1	16624	847510.562035112602	0
1	16639	848447.322740081517	676.88377513131
1	16651	848730.147494434208	643.36898218663
1	16662	849190.024952143437	445.56261922312
1	16667	849195.33670752782	287.51873971194
[...]
7	12966	662835.502225343615	4
7	12970	663133.988773887541	3
7	12989	663864.836443846645	2
7	13008	664359.747380600077	1
7	13016	664415.247210890777	0
7	13032	665358.674419485275	1
7	13037	665379.201622812685	2
7	13041	665479.780049244442	1
7	13047	665578.815002424097	0
7	13058	666934.785829979787	1
7	13083	670171.761988787855	0
7	13087	670260.111329415235	1
7	13091	670291.713487074611	0
7	13113	671813.406841549905	1
7	13119	672353.222327848962	2
7	13128	672875.387222360911	3
7	13130	672920.086614955499	2
7	13147	673463.745467241259	3
7	13153	673774.225935495361	4
7	13156	675272.451385992109	3
7	13170	676060.350561245977	2
7	13174	676280.647486838003	3
7	13182	677108.462289138963	2
7	13197	677740.5064767333	3
7	13200	678397.065038235449	2
7	13214	678630.17618690478	3
7	13216	678855.413914456878	2
7	13232	680325.517081821215	3
7	13236	682005.537083006868	2
7	13251	682551.03654789313	3
7	13261	684541.30922072771	4
7	13264	684875.024559078258	3
7	13277	685503.497300265175	2
7	13288	685973.355036211222	3
7	13293	686211.027402412201	4
7	13300	686403.530247593989	3
7	13307	686605.998361571743	2
7	13311	686924.599044275347	3
7	13315	687199.486419013929	2
7	13320	687740.809145347036	3
7	13324	687874.000757762895	2
7	13328	687991.815902217061	3
7	13342	688295.8014398749	2
7	13360	688628.415401123646	3
7	13379	689304.942005050335	4
7	13387	690099.328648342211	3
7	13391	690486.994257540301	4
7	13398	690650.093645799958	3
7	13413	691115.19827677196	4
7	13415	691180.588334077951	3
7	13424	691790.455850210713	2
7	13429	692104.747082299589	1
7	13441	692819.298865555145	0
7	13450	693062.702318335483	1
7	13467	694205.058263390638	2
7	13473	694389.794336836099	3
7	13484	695078.593895854341	4
7	13490	695341.362422102108	5
7	13492	695520.05424465882	4
7	13500	695562.721203020517	3
7	13508	695738.803464430685	2
7	13517	696105.164629662996	1
7	13532	697501.551813352778	2
7	13535	697762.39401390122	1
7	13543	698574.848889753881	0
7	13558	698914.196809428015	1
7	13566	699069.521133448145	2
7	13569	700007.205714815646	1
7	13580	700085.8219656614	0
7	13590	700469.337223601606	1
7	13595	700611.889370128575	2
7	13612	701673.117896159422	3
7	13616	701687.268444328435	2
7	13620	701800.291313081149	3
7	13624	701947.445737442755	2
7	13640	702220.41479336769	3
7	13647	702538.587383326694	2
7	13652	703066.415679969394	3
7	13657	703176.639217968153	4
7	13674	703905.99063089616	5
7	13685	704465.099611081356	6
7	13690	705087.88568679373	5
7	13695	705452.480054687108	6
7	13700	705683.526459009757	7
7	13715	706096.124681741731	6
7	13718	706172.332580888064	5
7	13723	706382.940724050434	6
7	13727	706435.699592599638	5
7	13731	706522.326978110914	6
7	13741	707032.490069259344	5
7	13753	707518.674994352039	4
7	13757	707607.736076419024	5
7	13761	707698.687429708637	4
7	13765	707861.06647467886	5
7	13769	707900.378930811726	4
7	13774	708083.99990446607	5
7	13783	708316.890622493743	4
7	13786	708606.399328573747	3
7	13804	709199.433164498125	4
7	13826	709851.727077626277	5
7	13831	709971.499514245573	6
7	13854	710833.534326252091	7
7	13862	711107.316476764937	8
7	13866	711422.256965574601	7
7	13871	711697.921392328494	8
7	13875	711793.97079929971	7
7	13879	711809.465152905856	8
7	13884	712457.624040705318	7
7	13887	712614.021951890659	6
7	13891	712872.44782808485	7
7	13908	713148.222483439234	6
7	13918	713383.976879823313	7
7	13926	714212.470008581731	6
7	13941	714882.807571471255	5
7	13944	715083.725215011599	4
7	13947	715304.583171227257	3
7	13951	715329.950408482772	4
7	13955	715463.7246835014	3
7	13965	715949.770990770412	2
7	13969	716305.127495925358	3
7	13973	716331.439714960778	2
7	13977	716372.45508549616	3
7	13982	716422.554578308103	4
7	13987	716510.227398053143	5
7	14005	716990.737045953221	4
7	14010	717446.096976809665	5
7	14027	717663.991395587232	4
7	14031	717834.880795095532	5
7	14035	717989.403797139015	4
7	14038	718096.179858164745	3
7	14052	718523.990853590648	2
7	14065	719714.981917173308	3
7	14069	719902.337778312209	2
7	14082	720386.154798843017	3
7	14086	720570.417072027158	2
7	14109	722087.024917698194	1
7	14118	722568.218648866932	2
7	14144	723620.49656848942	1
7	14157	724016.179129246964	0
7	14175	725022.059840174819	1
7	14189	725761.093176280838	2
7	14198	726301.749456284939	3
7	14210	727583.907339695139	4
7	14219	727793.914655804812	5
7	14224	727897.01838273119	6
7	14226	727907.4681556092	5
7	14234	728200.686804339693	4
7	14239	728462.633412425367	3
7	14251	728587.376751452144	2
7	14267	730796.622448919863	3
7	14269	731148.39045724213	2
7	14283	731889.588723801467	1
7	14288	732102.858815942183	2
7	14301	732546.100218459985	3
7	14304	733176.820983827801	2
7	14312	733656.565953978739	1
7	14327	733989.44811091437	2
7	14335	734772.279413173145	1
7	14346	735572.540257022367	2
7	14351	735625.871502822157	3
7	14356	735634.126776671771	4
7	14360	735873.585747254398	3
7	14371	736248.043628803754	2
7	14387	737069.687670420434	3
7	14395	737355.522869568854	2
7	14399	737373.561834972639	3
7	14404	737419.128773478325	4
7	14409	737725.082868060504	5
7	14418	737811.218655458994	4
7	14430	738460.608741147532	3
7	14445	738966.436903302022	4
7	14447	739068.027734301819	3
7	14452	739105.147791927293	2
7	14470	739897.649917593011	3
7	14472	740038.651808728982	2
7	14487	740586.578933674182	3
7	14489	740816.045744229393	2
7	14497	741211.314533444169	1
7	14506	742188.459170156792	0
7	14538	743723.450291282355	1
7	14543	743851.143893798159	2
7	14549	744363.468975692505	3
7	14554	744556.042127246371	4
7	14562	744727.040127997274	5
7	14568	744948.088970331966	6
7	14576	745069.646718447552	7
7	14581	745153.780191835799	8
7	14585	745346.141635267438	7
7	14588	745403.001637186747	6
7	14592	745504.725837428305	7
7	14597	745507.534060556524	8
7	14605	745802.017747779655	7
7	14614	745962.387524974573	8
7	14623	746292.885330363249	7
7	14639	746493.758751174231	6
7	14643	746603.588080229632	5
7	14646	746664.678903017678	4
7	14649	746817.238344559709	3
7	14653	747032.760770761861	4
7	14663	747185.624595954538	3
7	14673	747715.605282030264	4
7	14677	747775.361850963397	3
7	14680	747821.170072988108	2
7	14685	748543.028005235109	3
7	14689	748551.722466291887	2
7	14717	749857.765942286276	3
7	14721	749947.906567534652	2
7	14754	750965.834331467693	3
7	14759	751052.051198758578	4
7	14763	751172.886812281589	3
7	14767	751226.394401255521	4
7	14771	751278.847152491983	3
7	14781	751743.539394089295	2
7	14785	751845.90323070473	3
7	14796	752436.269391059158	4
7	14801	752533.542058336601	5
7	14807	752606.820465663235	6
7	14811	752734.3928621695	5
7	14815	753078.949356381375	6
7	14820	753643.726587164628	5
7	14832	754277.390912241168	6
7	14842	754391.353671525864	5
7	14855	754530.14448641466	4
7	14858	754582.480106789628	3
7	14877	756008.650951898933	4
7	14883	756211.481130217548	5
7	14888	756480.075210911602	6
7	14916	757374.23022124418	5
7	14925	757907.64761539848	4
7	14940	759337.661275466711	5
7	14948	759471.218758586517	4
7	14952	759636.9489807075	5
7	14959	759660.661556000035	4
7	14967	760077.948558886472	3
7	14980	760603.662421726815	4
7	14984	760843.597515324776	3
7	14988	760916.389845185047	4
7	14992	760927.891749018563	3
7	15009	761254.643423455011	2
7	15017	761907.835683558285	1
7	15028	764361.580030985235	0
7	15043	765193.894741098664	1
7	15052	766127.410237775769	2
7	15060	767019.688590787294	1
7	15064	767083.902477970869	2
7	15072	767555.541489828349	1
7	15090	768805.838133866846	2
7	15096	769037.327101230725	3
7	15098	769659.040233097723	2
7	15107	770119.075593467337	1
7	15115	770500.089851070901	0
7	15130	771303.74838410992	1
7	15139	771897.062197292722	2
7	15151	772493.487610807456	3
7	15156	772595.294339615722	4
7	15158	772613.373411965535	3
7	15172	773065.420393078193	4
7	15174	773107.707042313024	3
7	15183	773564.530137368608	2
7	15188	773926.754568434535	1
7	15205	774569.689733696051	0
7	15213	775240.567566055851	1
7	15218	775506.766378771626	2
7	15232	775858.292773615723	3
7	15235	776898.855226048579	2
7	15240	777062.020189359868	1
7	15256	777861.682758534255	2
7	15264	778144.142378674402	3
7	15269	778215.677774039369	4
7	15280	778437.422694856624	3
7	15288	778576.623478257862	2
7	15292	778691.43577498024	3
7	15297	778769.512380514333	4
7	15301	778825.856227834008	3
7	15315	779306.753079369391	2
7	15335	779992.999721659314	3
7	15341	780175.25254011145	4
7	15343	780201.496804774357	3
7	15348	780371.007522989888	2
7	15360	780808.682022866228	3
7	15374	781378.162618703637	4
7	15376	781414.230774104996	3
7	15391	781938.37918120782	2
7	15400	782279.495846349685	3
7	15404	782415.396110878161	2
7	15409	782624.583459446271	3
7	15417	782984.716222671385	4
7	15422	783140.051073042862	5
7	15441	784318.61823497564	4
7	15448	784789.381969453799	5
7	15453	784791.892712989201	6
7	15457	784959.263639369755	5
7	15461	785286.907839017057	4
7	15476	785672.048833414763	5
7	15480	785833.15156107111	4
7	15484	785845.344998236406	5
7	15497	786275.00370633935	4
7	15503	786376.446403074978	3
7	15516	787119.127248235347	2
7	15527	787388.574383932655	1
7	15531	787392.69612850444	2
7	15536	787699.672239389275	3
7	15541	788117.766191418599	2
7	15551	788373.438992252161	3
7	15559	788586.576113938705	4
7	15565	788723.194847239489	5
7	15570	788770.31135990759	6
7	15575	788781.454603134312	7
7	15579	788801.025026828955	6
7	15583	788984.402727426383	7
7	15587	789026.157831248952	6
7	15590	789290.992042714521	5
7	15593	789337.758274007436	4
7	15598	789462.663929358777	5
7	15607	789716.581507566234	4
7	15615	790250.832839058095	3
7	15624	790441.123938134209	2
7	15627	790452.641333267386	1
7	15630	790566.87177663644	0
7	15651	791276.083178411766	1
7	15659	791487.704534042897	2
7	15668	792952.044611368516	1
7	15681	793582.228602120393	2
7	15686	793679.776657045555	3
7	15692	793832.833359590597	4
7	15697	793842.918979099804	5
7	15701	794153.555818903143	4
7	15705	794235.987960175362	5
7	15724	794803.630803711452	6
7	15739	795546.009112849985	5
7	15745	795780.870427531815	4
7	15754	795924.471806914367	5
7	15763	796185.672233053967	4
7	15772	796562.100632180745	3
7	15786	797811.315380752179	2
7	15813	799283.41736421129	3
7	15818	799366.939037740919	4
7	15833	800508.380435547854	3
7	15836	800545.54280359724	2
7	15861	801572.486222351833	1
7	15872	802212.422916698571	0
7	15889	804198.486709604045	1
7	15904	805578.111642574721	2
7	15909	805868.116851250513	1
7	15913	806021.360616256146	2
7	15918	806203.084508637523	3
7	15926	806748.579591472969	2
7	15940	808052.666059033451	1
7	15943	808300.950955029837	0
7	15948	808386.919927827418	1
7	15966	808857.621763203745	2
7	15975	809279.973303249765	3
7	15983	809480.470834627285	4
7	15992	810595.303661109848	5
7	15994	810773.965297577875	4
7	16000	810897.516010286202	3
7	16003	811032.486762380313	2
7	16015	811622.808289668197	3
7	16023	811874.139588359854	2
7	16032	812108.600047513603	3
7	16046	813509.787692281821	2
7	16056	815698.833111011627	1
7	16072	817153.910126237409	2
7	16075	818078.184588497002	1
7	16084	819325.568458131519	0
7	16103	820351.87232902233	1
7	16108	820367.232442791191	2
7	16110	820912.510806321847	1
7	16125	821194.988662560704	2
7	16133	821992.168322392209	3
7	16136	822098.912350038752	2
7	16150	822397.109422071915	3
7	16158	822753.284026809543	4
7	16161	823371.942325340976	3
7	16169	823438.741297552509	2
7	16181	823798.805025982748	1
7	16190	824226.62505605141	2
7	16195	824314.016687494647	3
7	16204	825498.415822987318	2
7	16217	825549.932472032957	1
7	16227	825973.068963372624	2
7	16235	826124.565349720197	3
7	16241	826522.475523641684	4
7	16246	826836.919160735617	5
7	16250	827066.183902973009	4
7	16253	827125.816389617233	3
7	16267	827948.217996778836	2
7	16270	827981.469850598597	1
7	16273	827992.766000843157	0
7	16301	830004.598515339766	1
7	16306	830048.166705628737	2
7	16314	830796.378383201276	1
7	16323	831208.679892581191	2
7	16337	832225.765895945118	3
7	16340	832557.920172717498	2
7	16355	833449.791770528662	3
7	16364	834122.615302650339	4
7	16372	835177.489966983355	3
7	16376	835310.636598986815	4
7	16384	835956.580401892028	3
7	16401	836731.672178639817	2
7	16405	836825.643989077054	3
7	16410	836998.311244527805	4
7	16414	837084.035809236265	3
7	16430	838231.817905206914	4
7	16436	839051.556989430721	5
7	16441	839596.199263032964	4
7	16449	839795.69907938356	3
7	16467	840998.274229322987	2
7	16474	841549.156785381874	3
7	16479	841620.738060323935	4
7	16492	842429.458580138948	3
7	16496	842468.351682293077	4
7	16504	843239.998079581877	3
7	16519	844009.966316945766	4
7	16526	844251.170033019126	3
7	16531	844367.875428224173	4
7	16547	844835.417410750422	5
7	16552	844899.051057212356	6
7	16554	845133.158222725345	5
7	16563	845304.778771874051	4
7	16577	845624.753250037704	5
7	16585	845741.010347772846	6
7	16588	846255.152246636167	5
7	16596	846567.63560207728	4
7	16604	846803.870364985297	3
7	16619	847224.929243540103	4
7	16630	847865.821285764543	3
7	16637	848447.322740081517	4
7	16642	848643.645167271986	3
7	16645	848649.032695784839	2
7	16649	848730.147494434208	3
7	16660	849190.024952143437	4
7	16665	849195.33670752782	5
7	16670	849221.394844289334	6
7	16674	849261.017388856753	5
7	16687	850282.320525049577	6
7	16696	850290.367886411127	5
7	16700	850320.084323404855	4
7	16722	851604.988927851728	3
7	16727	851662.699110470171	2
7	16744	852380.035378525589	1
7	16748	852391.730276014681	2
7	16756	852967.875009511347	1
7	16770	853939.425555172187	0
7	16774	854058.525703541019	1
7	16787	854556.194162496691	2
7	16798	856320.900021981848	3
7	16805	856903.209064885336	2
7	16808	857044.34076963648	1
7	16816	857411.984045308487	2
7	16821	857530.621509757659	3
7	16833	857776.461108648374	2
7	16848	858818.64876687606	3
7	16858	860088.127316533855	4
7	16861	860947.220698572639	3
7	16875	861168.24438534912	4
7	16883	861285.887328864008	5
7	16887	862698.456872502351	4
7	16896	863566.194365806351	3
7	16910	864346.170304808031	2
7	16914	864446.418929928371	3
7	16921	864579.151343614789	2
7	16938	865539.136578724764	1
7	16942	865725.147144522355	2
7	16947	866156.581217711329	1
7	16951	866228.460029725407	2
7	16973	867433.388608487165	3
7	16978	867548.021029186268	2
7	16982	867674.49669398249	3
7	16986	867776.322656722478	2
7	16998	869143.20964119729	1
7	17013	869489.725460742393	2
7	17022	870356.590967035131	3
7	17024	870396.21445942628	2
7	17053	871426.879952442421	1
7	17057	871639.111226685761	2
7	17061	871640.610516565161	1
7	17066	871798.076147439685	2
7	17071	871909.71098052267	3
7	17076	871978.640432892651	4
7	17081	872159.379688107817	5
7	17086	872178.304443811212	6
7	17099	872679.500612895013	5
7	17111	873412.881889997007	6
7	17117	873625.382173954889	7
7	17124	873790.533716892375	6
7	17139	874643.848407006207	7
7	17148	875263.601887052916	8
7	17150	875779.605261654758	7
7	17164	876226.839684278363	6
7	17168	876263.936692889952	7
7	17181	876772.231803235244	8
7	17184	877439.535613102285	7
7	17192	877649.193628507154	6
7	17202	878175.794533517113	7
7	17206	878199.943795744608	6
7	17209	878401.247674784485	5
7	17213	878718.643333564682	4
7	17235	879147.626397392575	5
7	17239	879170.332997187462	4
7	17257	880111.390475377728	5
7	17260	881038.149627573952	4
7	17269	881679.155798515757	3
7	17284	882110.233256443246	4
7	17286	882114.910684326237	3
7	17291	882150.81117096887	2
7	17312	883210.517555866519	3
7	17317	883266.795729944937	4
7	17329	884320.44017086931	5
7	17334	884416.670563154256	6
7	17337	884669.705860611142	5
7	17345	885422.164576503043	4
7	17354	885617.141669470741	3
7	17362	886139.437572589643	2
7	17380	886794.484143647575	3
7	17384	886898.526071619733	2
7	17388	886915.537595831454	3
7	17402	887380.806415713323	2
7	17410	887626.688988493815	1
7	17416	887857.729196033645	0
7	17420	887945.43257937136	1
7	17425	888091.58196301951	0
7	17429	888674.9681389565	1
7	17435	889203.564375734719	2
7	17440	889405.527044576739	3
7	17460	889982.0895218709	2
7	17481	890986.999262734655	3
7	17485	891091.597822864667	2
7	17489	891717.598261221628	1
7	17493	891750.192476007857	2
7	17511	892761.087002107343	1
7	17516	893303.578996794996	2
7	17523	893670.527354034272	1
7	17537	894295.806349412419	0
7	17541	894581.70929948033	1
7	17555	895229.805075478604	2
7	17563	895421.284082849278	3
7	17566	895746.412860198975	2
7	17575	897036.481082005729	1
7	17590	897708.608412087226	2
7	17593	898459.756779201983	1
7	17607	898936.07767945479	2
7	17615	899400.561824416856	1
7	17619	899815.073348741537	2
7	17637	901467.533591895941	3
7	17643	901891.821785186419	4
7	17645	901929.165572683351	3
7	17650	902106.162977862525	2
7	17677	902834.71783463538	3
7	17682	902882.721099642036	4
7	17687	902922.793203987484	5
7	17691	902974.186623246979	4
7	17696	903714.500085625161	5
7	17703	903849.216666651389	4
7	17713	904381.041609804335	5
7	17720	904563.331364235651	4
7	17729	905606.01362198867	3
7	17744	906456.186823545553	4
7	17746	906800.517022733863	3
7	17752	906900.988543558182	2
7	17773	907846.243919581701	3
7	17777	907885.342093806693	2
7	17781	908201.633153333193	3
7	17795	908615.746719599286	4
7	17797	908804.923788786095	3
7	17814	910184.533186768283	2
7	17823	911397.317487435125	3
7	17827	911594.653106862738	2
7	17831	911795.004138898803	3
7	17836	911921.944523841576	4
7	17850	912273.122939052426	5
7	17857	912415.292928533515	4
7	17868	913897.436896883802	5
7	17875	914488.337581028832	4
7	17881	914832.076613382636	3
7	17902	915795.174310826699	4
7	17907	915827.280773228168	5
7	17915	916027.421075142575	6
7	17918	916365.064058633477	5
7	17923	916384.731414737495	4
7	17926	916405.102651496183	3
7	17948	917062.167945023736	4
7	17951	917730.867823841378	3
7	17960	918134.64943512824	2
7	17974	918458.131581932386	3
7	17976	918530.550607599644	2
7	17990	918858.665373851323	3
7	17999	919076.127683609424	4
7	18001	919115.881690720657	3
7	18009	919240.876113569358	2
7	18021	919923.715648948144	1
7	18036	920545.150484321772	2
7	18042	921036.676188126923	3
7	18047	921076.082160671623	4
7	18052	921242.308934592729	5
7	18056	921320.451262683529	4
7	18060	921451.163868387308	3
7	18063	921456.346877697906	2
7	18076	921662.730692791703	1
7	18099	922924.057176479909	2
7	18109	924261.477736053968	3
7	18111	924551.514080598496	2
7	18133	926558.024958993716	3
7	18142	926688.668769996947	4
7	18146	926872.287278198362	3
7	18150	926968.620151105651	4
7	18155	926972.458363631864	5
7	18178	927670.745476101697	4
7	18186	927831.424499493289	3
7	18207	929791.603996074158	4
7	18212	929833.122387862807	5
7	18217	929892.031083958574	6
7	18222	930003.474865756715	7
7	18231	930140.803151104515	8
7	18235	930282.71534117082	7
7	18239	930651.153069328613	8
7	18243	930723.073378460493	7
7	18247	930746.09957949251	8
7	18256	930880.428346032154	9
7	18264	931123.720189712381	10
7	18269	931544.805512820245	11
7	18277	931806.970463059967	10
7	18281	931864.60460608359	11
7	18285	931887.5226951711	10
7	18289	931939.236737193376	11
7	18293	932045.130417699223	10
7	18296	932099.565506836676	9
7	18303	932627.118655167113	8
7	18307	932718.989328447241	9
7	18312	932774.246977938095	10
7	18316	933102.40270015866	9
7	18319	933411.170660131492	8
7	18322	933441.031883416192	7
7	18326	933663.183011657024	6
7	18333	934019.132880675815	7
7	18341	934478.43986960088	6
7	18344	934668.499369576543	5
7	18348	934773.959149750081	6
7	18352	934997.661370213019	5
7	18356	935036.586414802622	6
7	18360	935080.201162954236	5
7	18364	935296.408837342864	4
7	18370	935473.67324033091	3
7	18374	935485.357443014143	4
7	18379	935550.233609654496	5
7	18383	935850.373514024232	4
7	18386	935853.563971148843	3
7	18395	936096.282016285647	2
7	18418	936930.65852805708	3
7	18454	938618.42823379489	2
7	18483	939914.51786854082	1
7	18501	941135.089345969484	2
7	18515	941445.603694943427	3
7	18531	942317.565365753185	2
7	18535	942495.359424304947	3
7	18540	942500.244428320584	4
7	18574	944499.479289809596	3
7	18591	945300.182983744598	2
7	18598	945494.035821903152	1
7	18602	945590.784460669679	2
7	18607	945846.83456976932	3
7	18615	946341.601767349324	2
7	18619	947066.789765739024	3
7	18624	947455.280190395866	2
7	18628	947820.50903734366	3
7	18643	948139.37476237064	2
7	18660	949059.668688308478	1
7	18668	949654.891227092334	0
