file 360521 1483967678                                          
version 2
run QueueMeasurement-49-20170109-14:14:37-6023
attr configname QueueMeasurement
attr datetime 20170109-14:14:37
attr experiment QueueMeasurement
attr inifile queueStudy.ini
attr iterationvars ""
attr iterationvars2 $repetition=49
attr measurement ""
attr network controltower.SimNetwork
attr processid 6023
attr repetition 49
attr replication #49
attr resultdir results
attr runnumber 49
attr seedset 49
param SimNetwork.a.parkingLot.parkingDelay exponential(45min)
param SimNetwork.a.runway.landingTime exponential(5min)
param SimNetwork.a.runway.takeoffTime exponential(5min)
param SimNetwork.a.runway.throughputCheckInterval 14.286min
param SimNetwork.wg.interArrivalTime exponential(14.286min)

vector 5  SimNetwork.a.runway  landedThroughput:vector  ETV
attr source  landedThroughputSignal
vector 6  SimNetwork.a.runway  tookoffThroughput:vector  ETV
attr source  tookoffThroughputSignal
vector 2  SimNetwork.a.landingQueue  queueLength:vector  ETV
attr source  queueLengthSignal
vector 1  SimNetwork.a.landingQueue  queueTime:vector  ETV
attr source  queueTimeSignal
vector 7  SimNetwork.a.parkingLot  parkingOccupancy:vector  ETV
attr source  parkingOccupancy
vector 4  SimNetwork.a.takeoffQueue  queueLength:vector  ETV
attr source  queueLengthSignal
vector 3  SimNetwork.a.takeoffQueue  queueTime:vector  ETV
attr source  queueTimeSignal
vector 0  SimNetwork.wg  responseTime:vector  ETV
attr source  responseTimeSignal
0	1439 46245 1657 19710 83744.658496732385 949879.484616396835 1068 313.63834788459 28158.040528446 6514689.6759664 55561285592.377
1	47684 42369 1594 19712 81170.062997993573 949879.484616396835 1071 0 2862.196501746 378650.53163891 358909308.70321
2	90053 62975 1592 19712 81170.062997993573 949879.484616396835 2142 0 5 1953 3679
3	153028 42605 1645 19703 83318.355115029284 949668.310077397486 1068 0 13386.036764653 1926357.1072763 10265887222.973
4	195633 62922 1643 19703 83318.355115029284 949668.310077397486 2136 0 29 6274 53376
5	258555 19540 1589 19705 79715.88 949733.28 1016 0 6 1070 2228
6	278095 19540 1589 19705 79715.88 949733.28 1016 0 7 1068 2474
7	297635 62886 1597 19715 81317.911109131797 950138.434513450394 2139 0 10 7535 32781
