version 2
run QueueMeasurement-110-20170109-14:15:14-6084
attr configname QueueMeasurement
attr datetime 20170109-14:15:14
attr experiment QueueMeasurement
attr inifile queueStudy.ini
attr iterationvars ""
attr iterationvars2 $repetition=110
attr measurement ""
attr network controltower.SimNetwork
attr processid 6084
attr repetition 110
attr replication #110
attr resultdir results
attr runnumber 110
attr seedset 110
param SimNetwork.a.parkingLot.parkingDelay exponential(45min)
param SimNetwork.a.runway.landingTime exponential(5min)
param SimNetwork.a.runway.takeoffTime exponential(5min)
param SimNetwork.a.runway.throughputCheckInterval 14.286min
param SimNetwork.wg.interArrivalTime exponential(14.286min)

vector 7  SimNetwork.a.parkingLot  parkingOccupancy:vector  ETV
attr source  parkingOccupancy
vector 4  SimNetwork.a.takeoffQueue  queueLength:vector  ETV
attr source  queueLengthSignal
vector 3  SimNetwork.a.takeoffQueue  queueTime:vector  ETV
attr source  queueTimeSignal
vector 0  SimNetwork.wg  responseTime:vector  ETV
attr source  responseTimeSignal
vector 5  SimNetwork.a.runway  landedThroughput:vector  ETV
attr source  landedThroughputSignal
vector 6  SimNetwork.a.runway  tookoffThroughput:vector  ETV
attr source  tookoffThroughputSignal
vector 2  SimNetwork.a.landingQueue  queueLength:vector  ETV
attr source  queueLengthSignal
vector 1  SimNetwork.a.landingQueue  queueTime:vector  ETV
attr source  queueTimeSignal
0	1783	79561.200031712077	11067.658632505
0	1789	79810.105714524793	9284.3872460614
0	1806	80266.543720346704	12254.532931868
0	1822	81037.340962794991	9298.4922310339
0	1830	81338.050456058421	11518.809379437
0	1839	81844.297585159196	10137.776400401
0	1848	82407.008605414024	11621.65623718
0	1858	82722.798473258477	16399.759028638
0	1863	82934.428105399815	7636.1493796672
0	1872	83985.597712652191	9226.4977331513
0	1883	84223.992785967445	11662.971964376
0	1888	84691.835510513386	13219.538985536
0	1894	84951.879493900735	8858.0069977296
0	1909	85771.825910027374	7940.4009819023
0	1924	86017.711343707056	8252.4420197355
0	1929	86513.214255256793	7438.679134376
0	1935	86784.006313133709	9002.78354853
0	1940	86909.057880289774	6831.8576132695
0	1948	86939.957411848447	9506.2498424846
0	1963	87910.570266186581	5742.3327612615
0	1973	88028.7574295055	8093.9713121725
0	1993	89075.458671348269	3881.7067908942
0	1998	89101.47535439446	3433.6785442557
0	2041	91617.341783353343	3315.7445194161
0	2056	92170.348708236473	17916.027512509
0	2075	92343.565288623755	2700.6900012428
0	2090	92517.705728508076	4906.3866712067
0	2127	94537.435555483469	2464.6570679379
0	2163	96068.136784424675	3806.7493755844
0	2168	96112.07823089082	6071.6987279638
0	2176	96393.917795316647	5602.3111130411
0	2184	96802.52060816956	4043.3568290382
0	2222	98115.383958791794	5868.8175048602
0	2232	98246.094564471726	7261.8445065856
0	2237	98438.754266039721	14488.614380747
0	2243	98605.222078688262	4389.8590833842
0	2248	98743.422671218121	2135.4470615687
0	2253	99097.034321317058	3824.5627808673
0	2259	99631.927591040711	6942.8355898423
0	2420	106631.600131577336	8556.8817282321
0	2447	107499.145606676184	7567.4570133842
0	2455	107769.388831414803	10827.75829439
0	2460	107809.316404019346	14469.622374931
0	2472	108256.433523687786	6925.768999348
0	2477	108653.518663658783	7050.4298898533
0	2485	108721.176900129609	6277.0971748019
0	2490	108740.691376360373	8248.4761557379
0	2509	109945.64139576972	6292.0426557358
0	2530	110930.864929333789	7719.8408296446
0	2539	111508.4640192191	9090.533387519
0	2544	111701.445318311233	5049.8353211444
0	2549	111729.817992533218	10122.405116111
0	2557	112105.293852335819	8492.5034701591
0	2566	112577.826220001535	12901.727337709
0	2571	113025.707910330077	7073.6825117333
0	2577	113434.543206332406	12905.461360553
0	2591	113695.261831468611	6711.7322457713
0	2605	114145.563268927768	10543.591519269
0	2610	114833.998026428167	9754.7276350583
0	2616	115035.474327307969	5829.9808360327
0	2621	115122.893612753088	5243.8597010947
0	2640	117841.074773562019	8209.235319107
0	2659	120312.677941141877	6794.3589935588
0	2667	120634.72965394471	5079.527768359
0	2722	125976.589825527991	4101.800458041
0	2733	126114.43798008978	2276.9940719598
0	2744	126735.283046826819	6750.1191213491
0	2758	127444.443325530496	2250.114983245
0	2763	127508.744245754372	4902.3769444771
0	2798	129721.816687525212	3960.5764810706
0	2819	131404.764657367047	2353.1881080357
0	2890	133776.943327084916	6157.3836601993
0	2895	133841.234300320429	3656.3122904922
0	2906	134476.804752899663	3954.7702284147
0	2925	134840.42947801986	8418.2823831639
0	2930	134908.893924850811	6293.518259165
0	2948	135884.393916087235	4395.6539608684
0	2976	137224.413808423188	5288.0246613626
0	2981	137412.273965920606	5676.7986856392
0	2986	137483.459192845329	5179.3721767559
0	2991	137557.638489097782	1962.2692420177
0	3000	138160.373668598267	6183.8475462258
0	3025	139682.3816412255	5049.4077262574
0	3042	140242.354014826277	1832.5352045543
0	3060	140789.452005641394	5466.882763681
0	3090	142148.933938368062	5603.0104000645
0	3095	142154.691052297958	7860.4917464062
0	3101	142459.051546901262	1491.1636531657
0	3177	145234.153630694289	4522.3554600419
0	3182	145339.543259065378	6625.5163827982
0	3190	145626.506872899098	2787.6339401053
0	3217	148218.483330142786	6520.1653519508
0	3223	148347.839727888735	5192.4598677684
0	3228	148386.567726523007	4692.0311111178
0	3240	149739.333675027976	4334.418076348
0	3249	150305.210315333098	7159.7199656757
0	3254	150430.562463024035	10567.333213065
0	3263	151215.566881688229	8277.6776013443
0	3272	151857.08687522893	8757.5532601142
0	3298	153499.982771664424	10757.343583393
0	3345	157692.58836533945	3480.8933405278
0	3354	158245.597957368121	3139.7051005037
0	3362	158348.442622235428	5649.5452834191
0	3371	159154.053052016891	6455.5191739734
0	3376	159198.18034227631	4851.1125622225
0	3418	160533.199398962302	1273.6412383563
0	3427	161240.894346311941	5184.1586365971
0	3442	162293.769199725049	2290.301640301
0	3477	164697.099353435827	4944.714454507
0	3482	165416.263105053729	18929.687122777
0	3488	165449.431115513252	3213.3655553101
0	3523	168072.736646771635	7874.9322040755
0	3531	168634.212657054589	6567.4406913066
0	3548	169380.39531729639	1907.4101764668
0	3559	169499.389739143872	2303.4463430787
0	3603	171481.864349118794	2044.3370455459
0	3618	171648.192070669657	4133.1287555978
0	3623	171706.762224895065	2166.4784595682
0	3651	173024.675491169575	1771.2145983574
0	3656	173035.009881130175	3011.7920705231
0	3673	173971.240360202612	4999.3532031995
0	3685	174780.957654097667	3610.6742468632
0	3703	176530.080666209712	4757.1179855957
0	3709	176630.34252045843	4437.4494874235
0	3717	176781.144193954066	14280.985334359
0	3747	179326.018881641454	4876.7904971823
0	3755	179776.314695822172	6731.0704248241
0	3768	179975.653466639254	2671.6022007941
0	3785	180438.407269075897	2847.3970719373
0	3831	183311.385312577621	2059.607319768
0	3836	183406.183978877298	1440.9222084444
0	3865	184734.412229310944	2577.9416026166
0	3878	184898.535020023301	4559.3128975895
0	3966	188380.094299608205	8998.0476925529
0	3971	188570.784399557265	3619.001638815
0	3980	189150.316633945467	3559.9154207333
0	3985	189185.079802259747	4496.0327539608
0	4000	189625.732946554031	5909.0697873197
0	4012	190320.95744954349	3185.3864010572
0	4027	191052.184908718741	9746.0441538082
0	4033	191484.428665005591	4991.751432859
0	4044	191661.549742122823	5474.0900278752
0	4057	191881.054462688124	2116.4055631591
0	4063	192258.179520571569	7154.5586390797
0	4118	194657.117878176953	10542.836283877
0	4128	195288.825865342379	1869.8180661785
0	4146	196252.857759776826	4691.4289448652
0	4189	198096.288295066192	4387.8283004237
0	4354	204520.096571526015	10799.894870231
0	4365	204769.448400044688	10268.567535281
0	4370	204783.95036926439	17145.438875447
0	4375	204844.281710885779	18371.151258668
0	4381	204864.006378442842	8737.8809233136
0	4386	205373.826445100549	15497.194347552
0	4391	205715.056024553244	9908.8154275419
0	4403	206392.504565228384	8729.4770218527
0	4409	206704.709550563153	11136.18353424
0	4417	206885.397332832319	6173.8126624956
0	4422	207060.574655332444	7811.4986972226
0	4428	207936.410466953582	7476.9253275929
0	4436	208115.457022714984	10300.0884752
0	4450	208686.296698481593	12786.5732544
0	4466	210320.21083128151	8515.5762535942
0	4476	210596.640857719384	9076.2693953828
0	4481	210727.791546758922	9272.4023575768
0	4486	210789.995685527951	8757.7340110618
0	4492	211012.117891204474	7507.6526200355
0	4497	211377.339280285469	17271.222133086
0	4506	211838.888217309469	10045.404914869
0	4519	212504.16271922323	12251.223621514
0	4525	213043.454374568812	9459.0995864572
0	4533	213086.313943651384	11276.961067936
0	4541	213173.665532183699	5061.4927072785
0	4546	213237.34155535821	4230.0332091801
0	4552	214018.342226891001	13098.268447406
0	4590	219069.411378474555	7597.4595330307
0	4623	221576.197668676801	3705.873595009
0	4632	222041.00137704657	6038.2518659936
0	4648	222351.325700225139	3977.6295834398
0	4656	222808.447148639475	1918.6417910845
0	4670	223422.391259060812	3781.1403038894
0	4689	225438.714355079256	2756.530386787
0	4762	228767.708983612259	3714.1079976484
0	4767	228844.354656793163	5443.3753225241
0	4773	228895.119836678806	3400.7129505754
0	4778	228958.320923626601	7319.895127396
0	4816	231464.159903336038	4553.7310623664
0	4837	232982.176234422289	3349.3333786148
0	4856	233674.917231444572	6201.6458153851
0	4873	234420.10540797499	8080.8901159854
0	4910	235913.975256672454	9792.9890338567
0	4915	236029.171319749718	5406.6589696439
0	4920	236310.611978034302	2805.4170922344
0	4928	236480.603991690398	7950.8745355959
0	4934	237120.891930769974	6436.1653042539
0	4942	237382.483405039169	4749.8359948367
0	4975	240047.468879352466	7851.3381418466
0	4983	240815.137488657325	1680.1048307584
0	5001	242081.183165928137	7274.876290161
0	5010	242983.434489282093	8584.2940652499
0	5022	243457.014994812674	8941.6186975428
0	5036	243899.683845073906	6768.3668688416
0	5059	244279.876781625032	4504.1021061442
0	5068	244336.296852883937	854.65600832012
0	5077	245471.348058730448	3810.8390600394
0	5109	247647.669728265464	4137.602047758
0	5120	247847.686639614843	1488.6837135021
0	5171	250886.439838004946	2294.4560247099
0	5180	251218.224444111373	4417.7735934351
0	5188	251319.627164773478	2764.9915443874
0	5196	251603.638091039606	4069.0283900641
0	5205	252087.193894215698	3215.7356729919
0	5226	253972.048790944237	3876.1090327415
0	5234	254125.988214633769	5854.6109293569
0	5256	255422.18417164666	11431.08321286
0	5268	255622.364229287229	3463.9142299768
0	5288	256374.502203370889	1843.6098866899
0	5307	257870.926807081811	2312.9078918152
0	5331	259225.262178996	3080.6095410129
0	5341	259357.429281416007	5293.6308872708
0	5354	261191.565915061675	5016.7888386982
0	5386	263499.063247765011	4329.9718180456
0	5398	264524.62632082205	3382.6003046871
0	5403	264535.899195682551	2579.9787827964
0	5484	269570.103493173647	3074.01034414
0	5490	270021.324405690266	4297.7540923068
0	5498	270523.594275497558	7675.5992601487
0	5510	270881.034525848816	5136.9225041839
0	5515	270920.783756582744	3834.4249236203
0	5542	273033.003061907888	7538.603457876
0	5563	273386.076160218266	5215.9338404793
0	5569	273584.565909837914	7982.7951663261
0	5577	273983.740978902077	2865.5289782161
0	5594	274604.131826231668	16396.37200895
0	5629	276956.104277847182	4142.082902652
0	5669	277492.775945118872	3080.9850125244
0	5674	277504.304071544661	1859.5048731202
0	5697	278397.099996717176	1597.175846631
0	5706	278689.131742321799	12901.549593596
0	5719	279309.443775934597	1998.3439143238
0	5725	279585.462639692093	6542.5785865087
0	5734	280760.304062393739	6952.1202234295
0	5764	282077.920212176225	4978.3992343555
0	5786	283210.141125061344	4542.6642205025
0	5794	283359.696161704904	6033.7307202911
0	5829	285720.252229127032	8197.7144293363
0	5834	285846.604418416223	9715.2217420108
0	5839	285929.226761289184	4115.8749662434
0	5844	286156.182860252468	2858.7470558336
0	5853	286337.406065631291	2835.595246194
0	5874	288324.431934125837	3892.8935288296
0	5879	288523.423084446731	6171.7630048378
0	5905	290378.11803062519	9529.0127491545
0	5914	291430.473515216591	2659.2002563409
0	5941	293385.017015398906	3947.4932781237
0	5953	294025.634865028412	1866.8830770624
0	5983	295525.083366301865	1079.199677639
0	6038	299883.946082181506	7224.8164548629
0	6091	302601.513398208608	8745.5090767882
0	6126	304084.370174605424	9006.3782728748
0	6143	304819.476203669826	17938.278258936
0	6155	305354.599976057194	9395.0233145686
0	6171	305828.942254404969	9762.2188978552
0	6185	306423.609755932828	10730.3228678
0	6211	308304.05849012007	8905.648658721
0	6230	309456.846682666206	11289.086095514
0	6256	310024.012192197167	9953.6934452256
0	6297	312473.96100452128	11349.505634482
0	6302	312527.741223366143	10664.577440101
0	6307	312726.982514367135	10476.251990753
0	6312	312798.41903361503	7497.5703056796
0	6324	313304.360198564977	9521.0236678957
0	6365	314487.035308916957	16112.692120624
0	6371	314723.063549273708	11643.762973402
0	6376	314948.276563297179	7679.770789256
0	6381	315044.294155103148	6607.6757447178
0	6386	315177.276774157632	5954.3898155593
0	6391	315187.665856139137	8998.7209039411
0	6402	315352.381392812824	5610.5695766276
0	6415	316415.13328458981	6338.0424529453
0	6425	316520.637540384286	6193.5984918615
0	6430	316557.961944106729	2924.3549554512
0	6448	317207.01259862323	8842.8347479546
0	6479	317659.744283758969	4725.2339838049
0	6503	317804.198564350154	12237.220131261
0	6526	318538.950992962128	1364.5148277428
0	6532	319029.613787887831	1370.4909001176
0	6546	319452.459263662373	6209.7500291107
0	6574	321060.767801199899	3748.9648017814
0	6580	321474.233313720215	4349.6151211984
0	6585	321620.322118130256	5312.2180252581
0	6597	322360.274950662036	3134.9470041925
0	6622	323657.850161154945	9974.7706218448
0	6635	323809.775814891928	4444.2617344846
0	6641	324065.418154565553	6397.5311596726
0	6649	324225.739059219732	5082.6012533329
0	6712	326718.068816159607	8944.0895160388
0	6728	327139.482371016921	5117.1948666976
0	6733	327152.551399439284	10252.317650008
0	6748	327436.447533171468	1812.3177971226
0	6761	327871.211991035505	2227.5919094199
0	6778	328371.156960158848	5070.690997065
0	6797	329633.48879098032	7926.5982193753
0	6803	330132.289573233736	4483.6136041003
0	6811	330385.872014183718	3123.3711667017
0	6824	330681.996612181703	2721.8779472463
0	6849	332055.881450302748	6542.5290417089
0	6916	334594.179474728959	8722.364033885
0	6921	334604.912514273645	7985.3001903896
0	6946	336055.067614592103	4279.959540889
0	7031	339796.412397931707	7780.2070736965
0	7036	339958.614840796406	7673.0776568573
0	7046	341423.560425431877	9494.8601984413
0	7051	341530.253039982635	13518.503754991
0	7056	341650.288840617166	14196.908088569
0	7062	342139.10065764288	9846.7562782877
0	7067	342450.042952488901	7164.9487221734
0	7072	342841.211464627847	7240.0027456949
0	7078	342874.455704608171	11883.10681518
0	7083	343036.697084208979	11888.346850765
0	7101	343893.788919646819	8520.9548593389
0	7131	344765.988246526321	8289.4956957727
0	7166	346107.071670760839	15774.273182926
0	7175	346501.425154419538	10533.652086286
0	7183	346581.187934585866	9133.2787067055
0	7209	348025.660763402925	4614.5762411409
0	7214	348705.79684384364	10476.928884138
0	7219	348804.951166394505	3244.0842928318
0	7225	348882.79751605806	5314.2961636906
0	7230	349253.982622960607	3296.3347958136
0	7261	350060.339853395913	5043.19701102
0	7266	350092.926387475405	3563.9910015339
0	7280	350234.315666582937	693.26713353287
0	7307	351391.320670667069	4751.0867024451
0	7313	351442.795886521888	1261.60267767
0	7333	352159.869389788653	8728.0567237635
0	7414	355210.590838376958	5608.8941072174
0	7419	355276.390494384385	10545.607714556
0	7424	355279.983045604244	4740.2233493786
0	7429	355296.086175102125	3383.9895021473
0	7440	355521.643560631661	2600.451942306
0	7445	355576.569289753431	5374.0906383858
0	7454	355838.126179368286	3285.8676691574
0	7473	356443.963444211542	4796.6186162718
0	7479	356655.963501558613	1963.1183927269
0	7497	358630.888543792984	3824.2625502488
0	7511	359079.528200128468	7172.8657286854
0	7535	360289.027278092287	24795.314379586
0	7549	360933.38060298482	4840.8354762954
0	7559	361032.928408040579	8815.9687652413
0	7564	361145.801310862616	3935.8546497722
0	7580	361629.840193140083	2631.2748853082
0	7589	362158.501356163466	1436.8812767499
0	7607	363443.976314294762	3704.2628234556
0	7643	364933.462079063081	1386.887997571
0	7659	367041.391562340401	2920.6657212694
0	7667	367150.666485726382	13395.353225932
0	7676	367941.243153178107	6442.2246114319
0	7697	369673.919106038514	5059.3392184433
0	7721	372015.63031647831	8397.1600008693
0	7729	372486.793476001329	3950.9163173281
0	7738	372920.746107510571	9820.9221619358
0	7766	374537.859137402108	5138.2462399837
0	7783	375114.333168436616	1376.3277369153
0	7788	375373.421586283826	2379.9952053733
0	7818	377684.79787643726	6323.4219735223
0	7843	378633.573517849664	1555.8338258354
0	7848	378637.165012881969	4471.0150697526
0	7856	378765.656084002921	1231.9376623659
0	7883	380653.185320696425	542.67690393887
0	7906	382094.640701206039	5436.8240110682
0	7933	382824.715755606241	4789.1762941394
0	7962	384282.177738366187	2334.5873570005
0	7970	384483.531078512105	3505.5298484859
0	7975	384522.531813167973	2439.2339415523
0	7995	385237.436293367446	1777.7295024252
0	8012	385758.276733826213	5501.9733176856
0	8031	386316.909048034625	1293.1133643596
0	8042	387127.030622296631	4676.4866845412
0	8065	388267.014209429659	3721.9590522247
0	8085	388975.035945402239	5800.9603481633
0	8096	389747.263940381294	4098.1743238945
0	8101	389803.761946639101	2447.6301097712
0	8110	390545.073729710202	4254.4858859145
0	8148	392921.789781738447	2174.1112902233
0	8204	394939.222252534785	6441.3015826536
0	8221	395565.314671416757	4597.2096873541
0	8235	395841.955136017878	4712.7106549924
0	8243	395998.182662578486	2917.5633935456
0	8254	396490.857040854532	3860.6196545857
0	8263	397500.008026262487	4269.8370791043
0	8273	397652.88844825375	3848.1151996421
0	8279	397909.181953368545	10158.195198484
0	8288	398697.328910398131	2813.1787198917
0	8313	400127.980412787792	5974.2706913418
0	8322	400433.881966345497	1417.4344355335
0	8330	400628.431167219018	3652.2832539546
0	8399	405138.497680426945	10717.698615273
0	8414	406068.541044361698	2293.0481318665
0	8422	406105.02061653747	3896.4680696396
0	8431	406335.086369345884	2657.6795377692
0	8461	407994.996954911031	4071.7294016752
0	8470	408273.075572800443	6476.2189120126
0	8478	408711.080623007742	9621.6618848121
0	8484	408922.92078080421	2757.2028215877
0	8499	410086.90330000919	3433.9633526765
0	8518	411396.731551964702	6952.6515375886
0	8538	411871.392763043825	2499.2530590094
0	8543	412122.794264176477	11345.045196065
0	8555	413009.429250155289	5529.9754432635
0	8567	413638.867884288995	3637.1818712496
0	8662	416992.688038257578	5471.3434509325
0	8674	417660.974635661341	4510.2143932836
0	8684	417998.419691810425	4605.4593927402
0	8696	418759.747464149889	4879.7192080269
0	8731	420309.673537630482	6206.0564510234
0	8740	420871.724125897212	4970.6065591332
0	8750	421474.675323682252	7306.8188570266
0	8762	422007.784655762762	7260.6876723063
0	8780	423869.54602228784	7250.0288673613
0	8794	424440.896215889124	9724.886019765
0	8807	424799.369880874637	8910.3392440493
0	8812	424914.429900825384	5547.372053082
0	8821	425228.550897319336	6786.4236852025
0	8826	425260.223880111819	4511.7385177621
0	8831	425333.236319255495	3857.7916924701
0	8900	429234.645763084729	5187.052790088
0	8911	429610.50147252113	6694.5869137508
0	8923	430676.847312528751	4170.5419350592
0	8928	430783.663840782129	4956.3001488244
0	8933	431022.749597803521	13700.925453563
0	8951	432271.63694480646	3052.0237332802
0	8991	434420.807672474025	3000.886380482
0	8996	434430.487815704122	7048.9760541887
0	9001	434445.739270084084	2145.1860595071
0	9010	434971.92091778622	7931.988289205
0	9031	437082.330944002612	10319.200022127
0	9037	437168.978690505894	10001.339688536
0	9140	444403.987525866988	11114.6071781
0	9145	444477.630120634266	9035.5548639992
0	9150	444481.398781494993	6707.143029646
0	9155	444505.710292242644	11671.757858893
0	9166	444861.530231890941	4820.0262326773
0	9218	447224.801872471791	8148.1238490998
0	9227	447571.527143258328	6126.4975709625
0	9232	447599.033359184687	6472.5787039219
0	9237	447653.029855861318	8597.027791754
0	9242	447661.561695107779	4590.590076675
0	9251	448334.537782885024	3806.5782772307
0	9270	448893.061882789819	8490.9312042181
0	9313	449938.187652748321	5373.7690799821
0	9328	450555.567204059536	5321.5123470193
0	9336	450634.261224994102	2046.1179572963
0	9347	450986.475567354454	2842.0643558485
0	9352	451043.525408139665	2141.7196491777
0	9357	451103.332012870372	10036.640170902
0	9365	451541.567390254463	2878.0983289558
0	9380	452247.532901328929	3500.9792592627
0	9399	453368.243816055408	7092.2713031718
0	9478	458378.070668935403	5544.5158351884
0	9493	459109.727082645186	5698.5470021055
0	9501	459260.264674006111	8645.3249839795
0	9506	459272.755270620839	4081.844604554
0	9511	459287.069712658027	10221.101631635
0	9517	460077.282238563681	4678.790874067
0	9526	460407.391089042112	8210.6715109282
0	9531	460591.01059083414	4564.9142160745
0	9536	460944.785633633001	6457.0164420323
0	9562	462479.698947748487	5787.3746530647
0	9570	462860.210562962497	1063.5586978272
0	9627	467215.861769904844	1573.2337358363
0	9635	467829.610448734986	11181.815371394
0	9649	468560.638103033384	2677.6973129776
0	9661	469693.373392745654	5814.8975687714
0	9700	470676.069529019438	5646.0010314514
0	9741	473010.561178462044	5787.9798230106
0	9766	473959.929057386508	4134.1694688862
0	9800	475482.965184167867	5857.8764338044
0	9808	475695.922783218898	4658.7680998933
0	9814	475791.741729266842	5419.3064589724
0	9819	475794.414027049153	4119.8601184569
0	9827	475935.785842682371	5419.6184017293
0	9841	476702.980856039526	10801.476390704
0	9846	477002.40866698374	3167.0948835814
0	9851	477337.911951769595	5333.0161733961
0	9868	478058.899277799192	5308.8889278843
0	9890	479372.85562932664	17234.412908204
0	9906	480487.012513394347	6910.4874522787
0	9911	480664.362849769413	5930.2747814913
0	9925	482795.51344821122	4152.1594614841
0	9947	483548.873356023618	6110.7407615549
0	9980	486020.355207883103	2136.9393265756
0	10010	486722.545857737446	2240.2838248925
0	10024	487062.734111440617	4131.5378557319
0	10029	487099.340641500124	11276.043133509
0	10038	488220.621162445602	9419.7612454252
0	10079	489287.857417417252	4061.6581199661
0	10088	489505.526674687422	4032.9843826571
0	10093	490193.244874056388	1821.7982644206
0	10099	490497.947736205467	3871.2161959339
0	10107	490697.411531889058	3090.4072369374
0	10124	491744.521899494168	3109.059553354
0	10134	493016.276302866507	4737.4669516994
0	10159	494292.047031851087	951.19555180929
0	10171	495015.897317419736	12362.713193769
0	10205	496349.151446111814	2901.4431520907
0	10229	498054.071964809091	2043.3642195986
0	10253	498903.667107853138	2726.7341331553
0	10269	499482.806049510712	4458.6741162563
0	10281	499751.612784296957	2682.0933340937
0	10293	501107.326446534515	9655.7056342956
0	10307	501838.734640787182	4240.5287540787
0	10312	501906.397328989828	4647.2663740405
0	10321	502851.382494899228	8030.5647271184
0	10373	507870.206200915302	8958.0846589748
0	10378	508114.118613548413	2355.501814837
0	10387	508403.352557585077	1719.7012713371
0	10400	509080.121472428936	2463.9421607575
0	10417	509555.642175860727	1333.2369978357
0	10426	510492.834832591802	3694.6228948062
0	10453	512826.614518381365	13062.969076747
0	10522	516358.327472547683	5416.4311908517
0	10530	516559.244164403864	7223.6288380146
0	10538	516637.534632482261	2050.8276299503
0	10548	516713.411630993359	1389.6102091577
0	10560	517337.402174806208	5533.4650462298
0	10579	517933.781232964523	2993.7004906055
0	10602	518927.470847376218	3175.2890375038
0	10610	519203.192708059893	2002.8668940425
0	10627	519907.516865491531	3297.4484010882
0	10701	523680.813628819953	6431.308642592
0	10720	524652.551245960831	11436.989828075
0	10730	524823.668838941	6594.5222816279
0	10735	524841.454361447322	4332.4649330783
0	10743	524966.205955518002	5411.2489583858
0	10748	524970.888746444149	9411.4791822702
0	10753	525011.776849338124	3106.2701691564
0	10761	525277.707069656318	5599.4546698346
0	10766	525303.88049007391	6299.2913980284
0	10775	525484.411211899651	3986.15091896
0	10788	525603.312883275228	2545.4956169106
0	10813	527068.453335347264	5937.9379480601
0	10822	527180.138116541221	2815.8011700057
0	10840	529053.819214609899	3623.1644222712
0	10866	530781.670859673904	2857.2283451406
0	10874	531274.756771442043	5338.9305020329
0	10883	531790.437296749868	5321.0334323028
0	10910	534822.733697054547	5027.9234887809
0	11038	539570.706159914944	7358.7162421636
0	11043	539626.804988665743	6719.8160958664
0	11048	539699.037210478249	4343.7292245067
0	11056	539977.734013712641	4446.8500361894
0	11062	540358.580427039615	5514.3833892108
0	11074	540889.730247156102	4665.2595193546
0	11079	541185.597865667007	5701.910963818
0	11104	542847.094828233618	13017.853524685
0	11148	544669.206197457375	8280.0814490465
0	11153	544688.485994595035	7921.9945527566
0	11158	544725.648290865688	7951.7944116911
0	11163	544730.520937308578	7012.6059864908
0	11168	544901.419170443256	7384.1221456697
0	11177	545836.225280165721	7128.9905206421
0	11182	545865.433354676385	3636.857437339
0	11188	546544.136430011456	2970.3597352374
0	11200	546987.748311048052	4493.3273212825
0	11214	547381.597974056984	5935.8210178945
0	11247	549281.316831831957	5658.2422296429
0	11290	551187.868316592979	14850.2278082
0	11324	552454.960983693048	2578.7306997255
0	11337	552786.128541962918	5618.5479255261
0	11342	552832.060385911144	1383.0764726043
0	11348	552914.571448110413	5889.7416102664
0	11357	554304.090143614315	3704.3511004442
0	11369	554813.073182355344	3101.8326603371
0	11406	556585.286876896133	8001.4350208845
0	11411	556601.792653132286	1286.051490055
0	11416	556729.95168856887	9478.6658937589
0	11431	557195.613146195322	7603.9385697866
0	11450	558277.291854244106	6028.4157377567
0	11469	558651.093359777052	2974.5841596134
0	11489	559141.949550765736	2030.5648321418
0	11494	559142.645582239782	9844.5998233621
0	11499	559166.372187456441	1206.8807749074
0	11570	562444.314071280674	4151.7487798104
0	11609	563375.85799255294	4748.4032485952
0	11614	563837.256745181648	1943.4004391389
0	11619	563919.454230373198	2313.1800813187
0	11628	564052.933263521458	1274.9244060847
0	11642	564304.20064696355	2323.570518162
0	11653	564847.343657821062	4691.3908613119
0	11687	566513.483489483361	6396.203541935
0	11709	567000.40528785879	5258.4671038235
0	11721	567632.227616266449	3097.4270214045
0	11731	567850.89872010023	3039.125024815
0	11736	567934.673630929106	7694.267883074
0	11744	568294.373141218657	13575.132156761
0	11759	568693.372312417159	2507.5874333558
0	11778	569290.787820065801	4136.5902502284
0	11783	569339.421663572631	6326.2554052685
0	11800	570144.11641901981	4107.1209888389
0	11811	570565.408466341895	2202.0548356583
0	11816	570671.024669987353	3579.4094106416
0	11861	572076.639110974397	2578.0765423204
0	11872	572506.557630769232	1730.9415237305
0	11886	572851.050015401954	13661.592966625
0	11891	573078.146813161504	2364.3637644573
0	11900	573577.827879046152	4986.1932731038
0	11948	575157.348407327657	2734.6473412437
0	11953	575525.345492002953	4524.0265318341
0	11962	576255.626345829587	4822.6712700854
0	11967	576314.961857198613	2350.6935556255
0	11983	576769.8841921625	2573.2820238408
0	11992	577273.358921439477	2567.9887066231
0	12027	580141.192510250429	1434.1451102515
0	12036	580675.592995410373	3070.1144460557
0	12045	581278.727128865396	7319.9840939708
0	12071	583536.932424639357	1571.4531047472
0	12097	584942.302868715154	8385.2949353537
0	12105	585230.097847996766	1521.442392544
0	12122	585718.639591251842	3106.1545227607
0	12131	586374.956916307357	2255.77163876
0	12172	587925.151625215354	8697.60734472
0	12198	589443.887908996105	2721.2195666067
0	12206	589653.425610509719	2868.4601104658
0	12218	590011.653569140963	3413.7783994288
0	12223	590351.07128077585	5076.3166242166
0	12277	592310.936898719925	1840.0255008871
0	12285	592716.10556970246	5969.82526575
0	12290	592768.720166071214	4378.5570023936
0	12301	592923.267415137982	1926.3524323282
0	12321	593698.304810454933	2276.8856330543
0	12338	594514.465778211412	3899.5271987756
0	12393	596142.35357490631	1696.5557498667
0	12401	596426.7150373153	1937.0277551969
0	12410	597303.022641343671	2699.420034397
0	12444	598806.77103374312	3561.5706689122
0	12450	599218.079118321245	7397.2898559369
0	12464	599855.64841049074	11184.34902213
0	12469	599938.480648475424	3438.1148860589
0	12474	599992.329222886301	4748.5205949983
0	12495	601375.556261108873	3317.4982176873
0	12544	603964.917081907563	3620.0165741447
0	12550	604487.751217030131	11142.935176778
0	12555	604547.564556105146	6463.7426638943
0	12560	604615.64282378396	3724.559218211
0	12637	608300.246075486035	13574.9703992
0	12648	608529.44645110967	6345.0880663323
0	12662	609004.83840290335	3952.8891359306
0	12667	609130.92574215192	6426.5783407514
0	12672	609158.176703183881	1509.1712450647
0	12677	609158.706584232655	3480.2445103628
0	12686	609469.43028633378	6707.658359966
0	12700	610051.906262626717	2014.4642611849
0	12705	610206.531772883914	5193.9797163672
0	12711	610535.580804761504	4727.2665254438
0	12719	610970.968799762214	18101.799365856
0	12728	612007.489125018943	5832.8305010661
0	12749	613522.405838788824	5152.7723811639
0	12772	614435.817797241352	2156.456139598
0	12804	615422.065485031477	1558.0392997128
0	12821	616229.910688855428	1815.1606690953
0	12841	617011.109842465523	1472.0300192892
0	12883	618440.791730488709	4207.8357033142
0	12895	619002.454476326209	5654.901068609
0	12900	619033.541866379694	2204.0510644088
0	12905	619103.976682600225	2819.2716414825
0	12920	620216.944940805793	5589.5240102777
0	12938	621464.235892868539	4051.1320890937
0	12954	622219.98858819016	5043.7699642748
0	12986	624245.627367416745	4103.7965893083
0	12991	624292.655407153054	3463.6666912846
0	12999	624745.528631181462	6662.0060820581
0	13020	626234.939500401451	4089.6154028519
0	13025	626275.501173468351	4108.8438181148
0	13055	628909.891812177946	6193.5952430402
0	13078	629681.505908290821	4403.388958982
0	13102	630852.432782080809	2573.9280784033
0	13126	631979.161526358237	2470.3363767768
0	13131	632526.377757778753	3183.8710027183
0	13137	632959.592263923548	2757.6543899268
0	13155	634346.140243535909	6189.2135334267
0	13205	636438.938971342939	1758.3078441918
0	13213	636456.663257341375	1309.6955013839
0	13252	637668.157877435812	4153.6083247187
0	13261	637739.795347413152	1712.7944807216
0	13289	639177.859806030631	2709.5337393286
0	13294	639329.000927988792	4203.2904119282
0	13303	639529.609448964528	8276.6703664953
0	13308	639654.436216694242	4546.7297735119
0	13314	640439.167448561553	2747.7515381065
0	13330	642869.762038671841	5849.4079414663
0	13336	642878.464974882531	6055.7555577237
0	13341	642963.610140144523	14411.222291618
0	13367	645046.719259890148	6852.9311907178
0	13397	647892.048411743858	3544.0282019275
0	13446	650093.160480227767	3748.0473928208
0	13459	650417.623788964098	3411.7448742324
0	13464	650560.732341573229	2955.2051117968
0	13470	650954.123895536849	6702.0685172583
0	13522	653789.173581193434	5354.195165536
0	13532	653910.978754712484	2559.8344200177
0	13538	654193.716702371583	2679.0687703585
0	13584	657320.539556453184	8759.7054865805
0	13589	657339.344020645531	5610.9141874584
0	13630	659800.516784268828	9717.1821361305
0	13642	660520.186991204935	2068.6181945842
0	13659	660924.00356897692	5901.7229268347
0	13664	661206.72778903638	6392.7808058703
0	13679	661865.726831565354	6529.6789605696
0	13689	662076.430685090382	7032.888589422
0	13694	662296.847691990945	3742.5862697609
0	13703	662606.51831104947	10949.839062069
0	13711	662712.448830161121	9019.163221258
0	13723	663504.649239082088	3446.4724423249
0	13733	663936.92800242052	14339.306205326
0	13770	665788.010313537653	4543.5583329289
0	13775	665813.805084002228	2623.2723791162
0	13785	667206.569031919989	1843.0888593233
0	13797	670581.184662695167	5832.6001416324
0	13832	673608.917168243585	14853.539174313
0	13858	675040.582375493988	9459.19746522
0	13873	675736.197063129736	5100.312597208
0	13883	676109.03235162155	3963.1918768766
0	13900	676554.411188283866	2853.3899778028
0	13919	676760.119420469473	6129.4910060915
0	13945	678203.564076824279	2066.4680389656
0	13953	678312.115372062342	2635.088155246
0	13966	678763.49092630648	4454.9632638541
0	13975	679517.417066132711	2937.8759293664
0	13992	680076.083341088076	1790.5261739909
0	14001	681024.780361505714	4211.6012971083
0	14046	682509.096609171663	2867.5047327504
0	14057	682879.747669115035	1394.2737014722
0	14076	683518.483165012952	820.09509820442
0	14096	684200.478126048755	3043.0154995073
0	14123	686109.647142525222	4542.1667333122
0	14137	686630.146622195595	2736.9389835896
0	14142	686646.48228366399	3934.044235228
0	14147	686727.352742350761	5372.9430010683
0	14152	686828.781853125238	2742.0139137991
0	14203	691264.534982172348	14562.183318867
0	14208	691294.757745627208	2281.2833110451
0	14213	691322.571159155601	6264.2826607121
0	14252	694858.757936914951	5486.590908043
0	14258	695404.745102660031	5039.1061659289
0	14268	696979.720172008786	7517.6239989863
0	14282	697656.410753386243	5108.5959767288
0	14302	699266.377508035247	4976.9826333242
0	14311	699602.170232360778	5778.3043361847
0	14323	700789.920650591171	3189.0657912767
0	14349	704966.452580946415	4407.515416977
0	14382	707553.526827798949	1718.5117216582
0	14474	711719.590266194587	14065.26446181
0	14483	712375.538009501909	4966.8413672189
0	14497	713496.005083878892	5048.9875591913
0	14503	714324.698225014836	5669.810835512
0	14508	714580.844569635265	11766.356926223
0	14513	714785.746578185131	5515.7481715214
0	14529	716105.464757776267	6715.3473898862
0	14548	716672.025321629248	9292.6612933861
0	14553	716711.232578840146	8857.9000556806
0	14561	716929.281744539088	10269.216242887
0	14566	717023.332587448325	6638.4901124716
0	14574	717129.597854339079	1587.1741818242
0	14588	717473.545875420657	5541.8348687426
0	14632	721687.06898257957	5906.6862525026
0	14650	722863.886142990951	3472.0295325714
0	14658	723116.762688469067	3118.3785931953
0	14685	725179.876419655706	8060.3710034262
0	14701	725974.211998197572	8413.6666857185
0	14727	727410.005941477417	3567.1797106586
0	14735	727571.772099874863	9485.5776255718
0	14744	727827.883530147697	2646.2559608297
0	14788	731511.37789094309	3305.2842826067
0	14831	733011.844182621618	6442.2039215944
0	14845	733941.635806468828	3987.9791320914
0	14856	734052.278994992979	4533.2721133489
0	14873	734951.692735395274	2709.8477359334
0	14892	735812.362486153083	13256.707061954
0	14910	736908.450148272681	3994.6071642611
0	14949	738790.283642579326	6743.7268740723
0	14960	739017.957115928346	4982.927975418
0	14974	739520.621293368378	12770.55680913
0	15031	741048.990692669833	3938.3085292928
0	15037	741562.969644381904	6844.1132167901
0	15045	741754.556127786756	10914.330555915
0	15059	742477.960295817236	6530.1835253986
0	15064	742627.717629179138	4049.8074728513
0	15072	743032.440825860943	8244.0746938575
0	15078	743203.624199834993	6556.188397278
0	15083	743409.333478355242	4048.8420674175
0	15091	743933.515823876297	6474.8324853813
0	15100	744165.27288398753	19462.496314537
0	15110	744210.768078694793	12589.485807318
0	15115	744532.585494385374	5080.7521371633
0	15130	745255.419974776345	5978.2108029865
0	15147	746041.804271764032	5381.3422706836
0	15157	746405.70998466757	4815.1290485008
0	15166	746734.705118761815	1688.5198920055
0	15199	748269.337611346814	535.19905534737
0	15221	750023.705947204426	5932.3051760199
0	15238	751181.489032564323	3431.9707718263
0	15243	751461.428675179928	4574.3904708598
0	15261	752685.093355415258	6786.5863107771
0	15333	755145.646416620069	2939.4680233056
0	15339	755242.74935640035	5431.7417574843
0	15344	755355.689026775161	2598.0235994251
0	15365	756915.705876557894	4087.1258142851
0	15370	756943.943259458887	3690.1386391877
0	15378	757031.850095888374	3023.5112186917
0	15386	757694.956107422106	4785.5799634929
0	15395	757857.607402692485	4044.1121102075
0	15422	761013.424904712702	11853.438901023
0	15441	762182.811196661594	6557.6715314638
0	15463	763030.550256578855	8814.5768872207
0	15468	763032.512465552997	3477.6788819014
0	15473	763322.477974138659	3763.5316295735
0	15491	765346.688990460494	3997.1487135052
0	15509	766977.814225203175	4724.1179580904
0	15550	769204.579381852229	5842.8823507076
0	15584	771038.200255981089	3746.9838268802
0	15590	771495.286007737926	3439.8963553361
0	15595	771680.665958475722	2545.4077039241
0	15612	772556.112760394677	5831.8832415888
0	15623	772838.173708992962	3551.9310158106
0	15628	772896.097402417637	2538.1949892739
0	15658	775192.489939177602	6759.3432998651
0	15680	775912.44892041649	2305.4234960236
0	15716	779656.867345857708	7504.3770191819
0	15728	780028.767990008415	4753.9689487332
0	15733	780322.879074463981	3059.5873985052
0	15741	780515.581518873664	5747.6746431543
0	15759	782260.359771663288	9221.3183065209
0	15789	784986.778816755226	3733.5331347839
0	15803	785840.332769488326	7861.6998801104
0	15879	789474.454323229275	5409.9260073322
0	15884	789797.645590569214	6944.0793999066
0	15889	789864.676224339439	3441.7039290201
0	15900	790093.975882401331	3697.557714437
0	15918	791876.70616222402	7134.8347154938
0	15932	792102.742126790145	5439.3301845565
0	15942	792283.95399280779	15898.255785728
0	15950	792466.331489903353	3615.9471701136
0	15974	792865.772135287651	3000.6622853646
0	15980	792988.689441685135	4588.4354574643
0	15988	793216.969410424861	5850.9103617803
0	15997	793730.907340446854	1775.0260310861
0	16028	794674.904815799136	2190.1899480628
0	16038	794926.103435700448	2553.8130992991
0	16050	795537.393480222201	1504.8335671182
0	16083	799316.108564820918	4803.3965012882
0	16095	800327.408135557391	6594.0656784858
0	16108	800498.894953464968	5026.3504687074
0	16117	800914.646985840809	3492.333934988
0	16128	801235.170998298482	3479.304610803
0	16133	801355.018263923751	9858.3090860414
0	16159	802552.178781194991	883.52643165237
0	16197	804903.581123888468	2197.179762743
0	16202	804933.150775322752	2946.3327037766
0	16260	808463.363350889574	4887.1762356536
0	16265	808704.174064687002	4806.3378031384
0	16270	808734.455261007408	3213.6133639176
0	16318	812271.285327179955	5932.2233234261
0	16347	813610.860232429772	7517.4467308432
0	16365	814457.11299265366	8060.5304106644
0	16388	814798.271338667167	14519.606124023
0	16393	814897.500858983089	5660.0211644508
0	16401	815028.973584324858	6197.0776575484
0	16412	815352.744243440943	5757.6028069837
0	16420	815700.486312849012	4116.5417101532
0	16443	816534.97755299571	9274.136498164
0	16515	819269.356925965933	6526.4436504685
0	16520	819425.455228804433	4444.3482017269
0	16529	819745.977312724815	3471.4912257043
0	16534	819817.438058563649	2891.7077822675
0	16542	820126.075227640122	4608.8312357244
0	16547	820165.727081503215	3522.1295064681
0	16559	820367.3389512642	6481.1118148933
0	16572	820690.412765448115	6205.8000753473
0	16589	821572.158830483983	7718.9023441683
0	16601	822143.871511360583	1799.028042362
0	16660	825464.058765266801	9224.266214559
0	16673	825919.148007623629	9749.534573171
0	16684	826506.281332857567	9147.0839407676
0	16689	826521.563725074541	5105.6361404139
0	16694	826600.317980524288	8105.2000029978
0	16699	827104.57179048575	5036.520611205
0	16717	828570.275494220185	3806.380333509
0	16729	828990.023407975575	6633.7803545488
0	16751	830280.420488548268	2583.2002575809
0	16763	831336.510198666715	14135.341656377
0	16769	831569.073129296332	9054.9983912257
0	16786	832476.98276995776	3281.3916261138
0	16812	834019.654988149513	9957.1156477904
0	16821	834897.447276440043	9090.2674929523
0	16840	835516.096203484461	2367.8920564336
0	16862	836479.27629347293	4787.6321538534
0	16886	837625.702550345953	2296.7887858429
0	16894	837864.292487026855	4808.9692955155
0	16905	838090.599251798966	9282.6368870368
0	16929	838566.432999018204	2372.2733434051
0	16961	840590.339775941094	5529.3162247239
0	16975	841085.527674258998	2410.7123302806
0	16983	841422.075586602131	3364.3810541821
0	16992	842253.158466984017	5124.0865393014
0	17015	842708.363560818697	4753.3036004472
0	17023	842841.65241789848	4561.6260348201
0	17038	844306.981876133381	5053.6134062503
0	17043	844536.93095182939	4220.3948535778
0	17048	844789.424529859508	2857.5702805161
0	17083	847428.427749406136	2252.0237031557
0	17092	847871.776689105558	2406.0333796581
0	17111	850512.062571507933	7722.089271026
0	17151	852052.350007575579	5209.507756869
0	17181	852880.442223588018	1915.4275035376
0	17199	854117.319362151872	2673.6425091245
0	17232	855208.85693944202	3357.8401403764
0	17249	855724.968997960446	3686.0161357002
0	17285	858423.066896921285	6261.0118126499
0	17302	859188.757860367381	5964.4590278359
0	17308	859812.137241100916	6237.1594088491
0	17320	860950.373031100533	6623.6623072065
0	17336	861644.00537941391	6342.8898051282
0	17341	861687.950283949136	9681.6515149349
0	17349	861924.175206861513	13468.470965151
0	17396	863796.216026639355	8833.0630980822
0	17414	864549.754970046488	8684.4897081917
0	17455	865569.282636289239	3872.9039490331
0	17461	865965.594774212803	3592.7373031277
0	17469	866068.815135094056	7851.5194823812
0	17481	867016.87843457098	4969.0381001625
0	17486	867161.78223273064	7088.6509162967
0	17495	868086.568967470947	7419.2310448682
0	17501	868373.66767470278	6350.8619706683
0	17506	868515.237838990502	5825.1584346785
0	17511	868619.638906969879	3968.3304585949
0	17516	868682.719313702633	3842.9114376365
0	17525	869726.632573044039	5677.6019721779
0	17570	874866.904296880918	9892.0104224165
0	17605	876106.128374306394	4104.7002917304
0	17613	876405.340834965759	1847.4836376903
0	17627	876835.487188914927	3953.679097178
0	17648	878149.628894978228	3527.8779225895
0	17675	878655.884630143679	1052.5635215238
0	17688	879021.914540982431	1598.1464101808
0	17701	880332.675601149428	3837.1668119237
0	17710	881249.324439394263	7271.3770926994
0	17715	881348.51363452039	3647.6846803401
0	17767	884794.024058546883	10044.659744902
0	17775	884950.690934729621	2165.8620454167
0	17783	885066.369018419514	6545.4458029103
0	17791	885260.40618763503	2871.5337520395
0	17799	885340.048399767759	2483.5182426093
0	17834	887224.331956796406	12373.166273996
0	17842	887486.600897846883	3879.5914263667
0	17855	889006.145623428756	3606.5586133371
0	17868	889519.018621086985	5752.3417731351
0	17886	890596.010385044473	4898.5621103513
0	17911	891658.971204042941	5255.702206481
0	17940	893495.724788122971	3524.588200664
0	17966	895710.722378820478	5050.6019566855
0	17988	896412.455162752094	5729.7091681458
0	17997	896659.10046804752	3312.5387944495
0	18005	896779.086166038741	1982.0909980751
0	18020	897766.502535804657	8893.464944985
0	18033	897836.137315920242	4620.380973962
0	18038	897846.0216700145	2330.7808740758
0	18047	898326.944768665492	2080.874006195
0	18086	902203.153877425407	931.49173751233
0	18140	904385.485288544452	6847.4001850557
0	18154	905458.433407291191	3556.3295468146
0	18159	905575.985819755394	6570.8383160939
0	18170	905814.089059784559	2949.8598173988
0	18184	906656.973595036766	3896.5099543881
0	18196	907282.907761856863	4083.1627999639
0	18201	907544.397011699222	15176.666888797
0	18219	908728.766089526906	5018.5020397242
0	18247	912798.134318038438	11265.614030905
0	18264	913279.949699941764	1420.6052071185
0	18282	914728.701294905325	10488.338763543
0	18313	915751.862863506831	1532.4486673371
0	18363	917744.077684360713	12040.546493546
0	18368	917955.465874793258	5258.1881765973
0	18377	918273.508171841029	2728.8989766248
0	18388	918744.977654872789	2568.0473934784
0	18422	920510.769602118195	4714.0460306265
0	18427	920513.062925146487	7656.1871265381
0	18436	920638.305170861834	5789.2467060022
0	18457	921192.399979028095	1070.3288787689
0	18475	922029.115303594887	5230.0143703391
0	18519	923588.496587012734	2057.3402949191
0	18527	923809.097579527089	5082.1174431567
0	18561	924358.806150411931	1876.2452992908
0	18571	924724.346876085507	3090.5827380173
0	18577	925124.582024840081	3127.6658673763
0	18582	925169.846601698155	8460.9608367452
0	18593	925575.637660730625	17355.739131068
0	18602	925787.512127993486	10769.061664607
0	18618	926152.297836339499	5378.3142652161
0	18626	926296.595391609704	2524.8736032761
0	18631	926326.940714601183	5689.989353113
0	18648	926873.6347542676	8022.4961041448
0	18657	927504.233149866848	3212.492036974
0	18665	927856.875301877324	4781.8026906379
0	18695	930042.635192816269	6232.5303375631
0	18700	930405.757996453337	4650.9822503282
0	18712	931323.105506926039	4797.3176902247
0	18729	934032.050683246023	5067.5163362645
0	18762	935197.940495016379	3078.4066781317
0	18773	935640.201666736303	2326.8717436908
0	18817	939269.213409949316	5111.5883918224
0	18833	940700.031144412244	11689.937189455
0	18847	941598.375959140907	5982.8287015283
0	18852	941833.887585014942	8394.3125406204
0	18860	941979.474073982596	5663.3954879596
0	18869	942097.046753083999	4409.6222899471
0	18886	942999.810541441412	2552.4728050672
0	18899	943234.227448106644	1201.3139353467
0	18908	944088.224111332688	7745.1578162805
0	19009	949239.223647903488	6271.0147515531
0	19014	949426.013468694006	5098.6459963636
0	19019	949500.867982853167	3756.9441202183
0	19024	949593.217355183849	4091.6426220369
0	19033	949849.276748539551	1982.7556998091
1	1808	80266.543720346704	331.75760301374
1	1813	80567.811287780869	490.61102076063
1	1850	82407.008605414024	238.7711004889
1	1874	83985.597712652191	35.457827359567
1	1911	85771.825910027374	578.0740295733
1	1916	85845.296475225226	177.49966508642
1	1965	87910.570266186581	299.25120888519
1	1979	88301.597263937201	0
1	2004	89642.875287380998	0
1	2013	90040.379502926986	0
1	2021	90791.606682275519	0
1	2030	91151.877924635354	167.62786674921
1	2058	92170.348708236473	97.570220690877
1	2077	92343.565288623755	96.998834692175
1	2082	92484.274095116674	222.88668627636
1	2096	92689.092001198389	0
1	2129	94537.435555483469	1778.2717763521
1	2135	95190.42207607246	1850.7280469838
1	2143	95347.101850014	1131.7388547099
1	2151	95360.615437306455	88.14389685672
1	2186	96802.52060816956	194.54499852015
1	2198	97078.610966608835	136.98042958417
1	2224	98115.383958791794	40.665555446561
1	2264	99676.098882292671	0
1	2272	100078.899669283715	147.21107599171
1	2281	100514.990120332423	22.774899709958
1	2289	100627.77835903791	98.696513258905
1	2320	102541.831423073081	1211.1668987333
1	2325	102678.927585579382	1075.8388117739
1	2337	103219.219951001781	1611.8070745794
1	2348	103622.527212845023	1204.596581145
1	2357	103786.039509222659	1341.9597838949
1	2362	104028.004662732222	816.98056304306
1	2373	104307.914327550254	705.94257789183
1	2385	105149.463434527585	1536.6730523509
1	2390	105160.623803283992	1507.0250632501
1	2395	105224.412854913266	145.14246354338
1	2422	106631.600131577336	679.57473298057
1	2430	106840.325746417499	188.71574925068
1	2438	107136.224795742815	152.69521004551
1	2511	109945.64139576972	740.14790449447
1	2516	110015.499814492258	383.66036003725
1	2521	110509.691780024651	630.65786836626
1	2593	113695.261831468611	176.94288388557
1	2626	115555.201885585744	0
1	2647	119985.163925477761	0
1	2674	121874.789367486974	0
1	2683	122606.367301277258	0
1	2692	123837.443908129944	0
1	2702	125194.328342285532	0
1	2724	125976.589825527991	215.34961907334
1	2746	126735.283046826819	313.1359519709
1	2768	127619.559666885566	0
1	2778	128615.375665685793	0
1	2789	129411.370455304025	359.79390597264
1	2803	130184.922009828191	0
1	2821	131404.764657367047	882.73013288206
1	2829	131606.636918760617	117.89696354176
1	2850	132248.222911109954	512.74763082858
1	2864	132855.784164608595	919.39501754796
1	2870	133059.166559195658	1082.6404368232
1	2875	133461.246506055695	1157.1594899662
1	2908	134476.804752899663	182.60544700792
1	2917	134763.490862438492	130.51694747037
1	2950	135884.393916087235	561.8246741268
1	2956	136433.276773553187	837.90752647308
1	2964	136548.839783995015	2.916245691433
1	3005	138409.81881027193	0
1	3013	138714.026876267131	0
1	3031	139863.229249959081	0
1	3062	140789.452005641394	77.653834988971
1	3070	141021.719896406739	53.832002671182
1	3079	141709.343293598152	11.025315406128
1	3106	142742.639188271916	0
1	3114	142838.872932793765	0
1	3141	143835.377835916643	897.4885555727
1	3147	144123.977149197146	1024.4435340824
1	3152	144492.252181124876	1346.7618314675
1	3160	144618.362143092038	1462.9822829717
1	3165	144761.17096740937	1066.6343520042
1	3192	145626.506872899098	221.59127421913
1	3205	146962.886971327405	476.31098905113
1	3278	152698.533878043521	0
1	3289	153088.341379009543	389.44404019317
1	3303	154211.695024811629	0
1	3312	154347.067780053801	0
1	3320	155105.89285686438	0
1	3330	156056.735709714834	0
1	3381	159259.558160606003	0
1	3390	159752.384898928816	0
1	3398	160003.467559424072	0
1	3406	160255.303498037096	57.49905534099
1	3444	162293.769199725049	226.99723397703
1	3452	162775.897950283253	539.83239008012
1	3458	163203.78548796616	703.62662837122
1	3495	167195.943396065221	0
1	3503	167472.985140829637	0
1	3511	167744.137632356305	229.07431728442
1	3537	168971.887157003108	0
1	3561	169499.389739143872	61.862435570984
1	3569	169571.773231162211	31.489465835331
1	3578	170023.217810607104	0
1	3605	171481.864349118794	311.58094188436
1	3610	171584.851434250347	331.39054143818
1	3628	171772.962680613985	0
1	3636	172192.893033034918	0
1	3661	173045.24427099803	0
1	3687	174780.957654097667	331.72926963849
1	3722	177304.051265845144	0
1	3731	177591.01019713862	0
1	3757	179776.314695822172	394.26808876686
1	3774	180339.222122433821	0
1	3791	181251.777992809596	0
1	3799	181548.810493944885	242.66973903431
1	3808	181965.261770432946	0
1	3820	182582.39329631879	425.92266962448
1	3842	183716.663159234373	0
1	3850	184114.281594300397	0
1	3867	184734.412229310944	45.365181012046
1	3883	184951.782760742233	0
1	3892	185497.26259931132	393.6417178194
1	3900	185851.655277391659	261.25406417949
1	3912	186268.705276674584	81.245562426977
1	3926	186622.164807016682	149.03435479905
1	3931	186754.896672635284	262.21944048865
1	3946	187490.48535646657	354.91430798031
1	3957	187715.881636003089	77.370142185913
1	4014	190320.95744954349	556.30855001451
1	4019	190862.581862744199	985.94976519563
1	4046	191661.549742122823	100.12092721124
1	4069	193419.007799163927	0
1	4081	193723.894322708056	15.434328065562
1	4089	193960.558037010804	240.35633571582
1	4100	194183.906497092658	77.789349892786
1	4120	194657.117878176953	156.23701341289
1	4148	196252.857759776826	684.33174345417
1	4154	196408.979037159575	602.73844014821
1	4162	196942.272047876992	1042.548603795
1	4167	197049.311158439466	923.1857033102
1	4191	198096.288295066192	433.2607516905
1	4196	198402.785213881686	587.41666636641
1	4214	199687.540030369047	438.46407225919
1	4242	201263.559884834394	1010.6207871247
1	4263	202001.705901328165	1542.2207619674
1	4268	202013.016483174191	1301.4318128375
1	4273	202029.474213599232	1109.4004341145
1	4281	202061.420395258614	606.03120607649
1	4293	202814.482392978643	1294.1109306421
1	4298	202826.74742802531	1033.2641255848
1	4310	203171.441704446929	1366.8071267596
1	4315	203292.457590369354	1483.1047146537
1	4320	203307.23919965733	1274.9775251912
1	4331	203895.850068875148	391.3847977062
1	4337	204042.521274696246	458.16648658462
1	4438	208115.457022714984	3.284197809747
1	4468	210320.21083128151	1312.9024851034
1	4508	211838.888217309469	366.93637186562
1	4559	216002.749511052965	0
1	4570	217870.324073667843	0
1	4578	218373.696116785341	0
1	4596	219641.250955171433	0
1	4611	221129.562963806373	239.7576062514
1	4634	222041.00137704657	402.57558081601
1	4658	222808.447148639475	126.26318034722
1	4672	223422.391259060812	21.411924791717
1	4691	225438.714355079256	385.11336911536
1	4699	225731.809752687294	237.40286658394
1	4711	226467.045940399883	346.05971758411
1	4723	227323.570572938211	984.35528094867
1	4728	227365.445435915442	455.01659494582
1	4746	228521.624286180194	1048.3528701207
1	4754	228572.202225194742	42.472769100227
1	4783	229632.842855807537	0
1	4793	230622.512350105827	0
1	4804	231051.428253430825	366.7016269148
1	4839	232982.176234422289	786.04549691643
1	4845	233288.145324145334	655.49791394282
1	4858	233674.917231444572	169.72234564466
1	4875	234420.10540797499	20.964983942752
1	4883	234550.26133439033	34.86503712046
1	4895	235016.482593771213	210.17571800404
1	4944	237382.483405039169	251.16642880687
1	4954	239135.032657898875	0
1	4963	239775.774675480812	0
1	4989	241660.508998691066	0
1	5038	243899.683845073906	418.04300051009
1	5043	243948.108351709686	438.04067120218
1	5051	244089.107420786817	98.006462000192
1	5083	246359.002926112791	0
1	5095	246953.554541830141	153.10369115385
1	5111	247647.669728265464	113.06002728999
1	5125	248271.37728527685	0
1	5133	248554.635620386032	0
1	5145	248974.565770936914	382.58195764182
1	5150	249161.440110435811	289.981889212
1	5159	250095.939758202724	0
1	5210	252158.449999310436	0
1	5236	254125.988214633769	62.189820488611
1	5244	254530.892316680966	0
1	5270	255622.364229287229	64.345314020576
1	5290	256374.502203370889	229.84956538779
1	5296	257176.718511761735	1001.9414353982
1	5313	258207.759817281871	0
1	5333	259225.262178996	56.17074927663
1	5356	261191.565915061675	49.539898926737
1	5365	261955.920412886193	0
1	5374	262847.995015348822	0
1	5409	265494.399604031935	0
1	5424	265781.329901277798	179.55915776601
1	5432	266376.646201658982	653.07588827549
1	5440	266534.963854634329	790.85183296941
1	5446	266949.55003846695	1161.967889741
1	5459	268297.666350205315	1801.5732011716
1	5464	268485.482351413421	1399.123518451
1	5469	268661.55828352785	491.41596378892
1	5520	271118.212000686014	0
1	5544	273033.003061907888	218.98168671268
1	5552	273147.699486075741	104.81543289232
1	5579	273983.740978902077	175.55713993787
1	5596	274604.131826231668	192.34089363722
1	5605	275644.799198424423	0
1	5617	276282.510403415449	151.12772701001
1	5631	276956.104277847182	156.18012776097
1	5639	277251.638045448661	152.11706762797
1	5650	277342.92839387227	31.828532261442
1	5661	277432.729926018175	106.76448460434
1	5679	277522.537799790735	0
1	5708	278689.131742321799	21.654837762939
1	5739	280849.105281470679	0
1	5766	282077.920212176225	264.56841713045
1	5774	282463.421049436466	111.76096982753
1	5796	283359.696161704904	62.26035728608
1	5812	284703.64403764244	1201.8332182051
1	5817	285145.711044920304	714.17263962406
1	5858	286881.197944733871	0
1	5884	288771.273258875667	0
1	5893	289447.689947484339	10.16621020917
1	5920	292158.751787966002	0
1	5929	292659.129627318575	0
1	5955	294025.634865028412	169.63054360796
1	5963	294445.883688662841	0
1	5972	295077.99190173065	0
1	5988	295693.286888132971	0
1	6007	296971.955265699249	1012.3786042107
1	6013	297802.846288201103	1736.1229316514
1	6040	299883.946082181506	1716.1854950295
1	6052	300346.883112938246	1972.539924645
1	6057	300392.790641515823	994.38081011676
1	6062	300587.992280266543	517.67353329496
1	6093	302601.513398208608	1477.0580281693
1	6101	302797.836912990384	934.67312972502
1	6109	303108.119598072529	857.38907445802
1	6115	303552.537673514588	473.23709764306
1	6128	304084.370174605424	301.03364393619
1	6157	305354.599976057194	53.751248121812
1	6173	305828.942254404969	261.9638213158
1	6187	306423.609755932828	234.6648037348
1	6200	307878.520236318186	610.01446227706
1	6232	309456.846682666206	1092.6688319976
1	6237	309476.612455681183	1039.9940452958
1	6242	309509.738743293797	286.85178469544
1	6258	310024.012192197167	282.20037601198
1	6273	310604.071782440869	526.98095079639
1	6278	310610.90359190532	283.86454338249
1	6326	313304.360198564977	369.84989861094
1	6337	313636.395889654576	393.68665510294
1	6349	314193.7729320751	560.16594341955
1	6357	314300.963383248534	617.88384393842
1	6417	316415.13328458981	107.02919171761
1	6450	317207.01259862323	306.77884919229
1	6455	317233.530813540665	108.91262101886
1	6463	317319.525219155663	145.08905393636
1	6468	317383.431615621209	71.628616202675
1	6481	317659.744283758969	0.62139598872
1	6489	317692.111130628259	24.224135735347
1	6505	317804.198564350154	30.219264229305
1	6548	319452.459263662373	309.32145777553
1	6558	320584.406318025092	1359.0783715555
1	6563	320643.306007549359	1277.7919271421
1	6599	322360.274950662036	653.38437905705
1	6604	323031.227042783129	1008.9395384638
1	6624	323657.850161154945	357.38419806107
1	6655	325513.352408593803	0
1	6673	326004.216416140539	380.08668009169
1	6678	326029.386821575836	385.76673996024
1	6689	326162.113220789981	513.43725165657
1	6694	326184.410777795604	312.59533695167
1	6714	326718.068816159607	98.456492275554
1	6750	327436.447533171468	173.94668568949
1	6763	327871.211991035505	417.83123898752
1	6780	328371.156960158848	411.03829522348
1	6785	328784.845262431505	773.09597743983
1	6813	330385.872014183718	53.073526348492
1	6851	332055.881450302748	1064.5325608741
1	6866	332686.515242367584	1538.1650089241
1	6871	332799.973645125522	1024.8655714225
1	6879	332964.066231572422	1035.3660045819
1	6884	333144.583494407954	1128.3781701727
1	6892	333395.820949812986	1110.2837658739
1	6898	333492.994529674026	1200.6501503188
1	6948	336055.067614592103	769.97338427663
1	6953	336079.388262487575	706.55420217964
1	6961	336293.701843002129	799.98894449595
1	6972	336764.493205950252	1163.2844870173
1	6978	337006.525687707294	1038.752619574
1	6983	337016.678097939237	540.18554718566
1	7010	338449.496916466734	1001.5876885864
1	7016	338854.725960564176	625.85800085817
1	7103	343893.788919646819	482.7043973848
1	7108	343977.858483718269	546.04581769315
1	7113	344045.978504474756	477.47715210729
1	7133	344765.988246526321	35.205466698369
1	7145	345703.065101298829	685.92225892287
1	7153	345984.585778176963	423.71890461421
1	7158	345999.339130358316	41.691303211324
1	7185	346581.187934585866	52.252548644378
1	7196	347023.124632092784	382.89066387078
1	7235	349541.048533050071	0
1	7243	349601.69673115958	0
1	7282	350234.315666582937	53.12245773102
1	7291	350941.452094891977	738.97344352436
1	7296	351049.194636210752	509.43493998509
1	7335	352159.869389788653	512.52456184895
1	7340	352192.139992481472	285.47752103844
1	7352	352870.712819362091	958.61614640726
1	7357	352893.850644072342	676.8910012731
1	7366	353325.889749347519	773.6312391366
1	7371	353526.665130265185	605.47351193949
1	7383	354243.026830854681	487.71357105981
1	7394	354768.387686071267	75.542577239532
1	7402	354835.46888155886	28.842888014646
1	7459	356092.545126689446	0
1	7484	357209.9466610904	0
1	7513	359079.528200128468	80.962892296578
1	7537	360289.027278092287	549.31378725313
1	7551	360933.38060298482	211.76052357124
1	7569	361499.018541746247	0
1	7595	363099.82394557479	0
1	7612	363546.574081492073	0
1	7620	363674.363342855205	55.893027246222
1	7628	364120.725841070985	0
1	7645	364933.462079063081	318.88219146785
1	7681	368535.877158673244	0
1	7699	369673.919106038514	274.30620862014
1	7709	371361.37590291497	0
1	7743	372993.42638091057	0
1	7752	373738.005431521297	0
1	7768	374537.859137402108	371.70919427277
1	7795	376657.816690137823	0
1	7803	377077.739692014299	0
1	7820	377684.79787643726	151.07945480026
1	7829	378035.539461466816	0
1	7863	380110.508416757557	0
1	7871	380439.933153413442	183.62973727283
1	7888	380978.001230026192	0
1	7908	382094.640701206039	147.05031984031
1	7913	382138.702263110016	55.404391494342
1	7922	382450.543937755402	0
1	7939	383174.075597238915	0
1	7947	383459.706790942213	0
1	7980	384545.055157204987	0
1	7997	385237.436293367446	213.64060969247
1	8014	385758.276733826213	109.18711733941
1	8033	386316.909048034625	26.321204238926
1	8047	387356.131836867911	0
1	8067	388267.014209429659	516.02745454504
1	8087	388975.035945402239	477.11527552107
1	8115	390747.678491515143	0
1	8127	391271.303654260237	303.19867019755
1	8132	391572.016358989763	442.77187796426
1	8150	392921.789781738447	291.55239546957
1	8165	393619.871447003619	539.25217797077
1	8170	393645.40994787834	415.23900072015
1	8181	394137.826621715693	333.05337310407
1	8189	394218.555209942401	64.845488496395
1	8206	394939.222252534785	518.42318738041
1	8245	395998.182662578486	114.03247207209
1	8265	397500.008026262487	523.86011299811
1	8293	399016.447530811965	0
1	8301	399089.418738195628	0
1	8335	400777.749068111936	0
1	8344	401796.856660787843	0
1	8353	402208.552546897911	0
1	8362	403677.406831576655	0
1	8374	404173.795807312701	398.30289481754
1	8379	404437.369192651155	514.10163941534
1	8388	404637.205541421874	193.12552704579
1	8433	406335.086369345884	169.36841012937
1	8448	407734.680377096264	1081.7404297636
1	8453	407841.203106044521	361.74929915275
1	8501	410086.90330000919	714.76359597476
1	8509	410514.020221134592	512.33420809515
1	8524	411521.344587325057	0
1	8569	413638.867884288995	488.10764191123
1	8574	413718.222762066074	325.26246299588
1	8582	413880.028256122961	0
1	8603	414758.897211532611	655.28012492556
1	8612	415233.951698708054	1066.0952320524
1	8618	415887.147732137572	1171.1375360134
1	8629	416206.758825475283	1459.6618420188
1	8634	416377.141640063362	488.11100323799
1	8642	416521.305019674427	620.18745291039
1	8651	416650.641275855394	31.124120928866
1	8676	417660.974635661341	339.15049142076
1	8698	418759.747464149889	317.62025203305
1	8716	419526.364851677934	159.30700393453
1	8742	420871.724125897212	123.23876354753
1	8764	422007.784655762762	532.34002897736
1	8782	423869.54602228784	953.63146351748
1	8796	424440.896215889124	393.30324289244
1	8836	425827.363691957758	0
1	8852	427161.511724250418	655.20634678085
1	8866	427391.550901966776	628.41998009112
1	8872	428059.29429509603	1019.3616665148
1	8877	428414.218216180556	1246.5792142107
1	8889	428788.292026035099	1406.7802645197
1	8902	429234.645763084729	15.032551558421
1	8939	431419.921291992034	0
1	8956	432300.553210577028	0
1	8965	432977.832938627279	143.88050527763
1	8976	433687.098140383658	397.71779261649
1	9016	435442.075256635019	0
1	9042	437774.255751848949	0
1	9062	440244.229273006092	1188.2272088987
1	9071	440983.038752256072	1906.3607288841
1	9092	441810.768129065092	1769.2641298514
1	9097	441881.20295968401	1479.0722811123
1	9103	442988.017832241017	1921.3259902731
1	9111	443069.391245261085	1942.9365899983
1	9119	443091.675956763241	1646.6463844675
1	9125	443297.558671701988	226.58705326918
1	9168	444861.530231890941	333.57072623662
1	9187	446049.12182869423	1484.703255928
1	9192	446089.002386729936	854.94752968971
1	9206	446446.291511760257	170.31899887665
1	9253	448334.537782885024	190.12657137907
1	9272	448893.061882789819	304.91861509201
1	9280	449054.865335144122	391.39627384547
1	9289	449170.60152605694	424.04788399069
1	9294	449218.799363278542	316.99360431655
1	9302	449633.033591258252	567.06551023562
1	9338	450634.261224994102	19.32153496749
1	9382	452247.532901328929	50.813323215018
1	9391	452915.817359542947	82.262525795904
1	9404	453411.180080539648	0
1	9414	454487.769191600668	0
1	9433	456349.796515061665	1158.8858489948
1	9438	456374.667086541992	976.17572204532
1	9453	457067.863825624338	1041.7674508647
1	9461	457413.522628637779	765.72755129693
1	9466	457561.122533352076	868.7982386683
1	9542	461796.651865135288	0
1	9551	462138.442721122351	0
1	9577	463878.475823974272	0
1	9586	465030.068497568061	0
1	9595	465660.698016903214	18.069982834681
1	9603	465882.940790055785	0
1	9611	466239.563022169823	338.05855683392
1	9637	467829.610448734986	607.02909328358
1	9663	469693.373392745654	68.284642382195
1	9675	469907.662594052771	81.903005552489
1	9683	470470.515333303255	98.080063008795
1	9692	470621.399603320366	105.23216236728
1	9705	471037.15468332561	0
1	9720	471707.987252552094	33.433343959838
1	9743	473010.561178462044	1005.6654000885
1	9752	473433.824387461063	683.81403754619
1	9768	473959.929057386508	383.40399627086
1	9774	474540.032677604028	704.71889420166
1	9789	475211.907874554184	477.81980627609
1	9829	475935.785842682371	112.48833469108
1	9857	477438.132594468712	0
1	9892	479372.85562932664	729.50164259953
1	9898	480304.765040320857	1503.9051233005
1	9927	482795.51344821122	142.32932456095
1	9935	482931.196255708756	0
1	9952	483883.415881307508	0
1	9961	484482.262032844959	0
1	9982	486020.355207883103	794.15591043196
1	9987	486068.761272342125	596.21898031182
1	10012	486722.545857737446	95.814317465913
1	10040	488220.621162445602	613.61686749397
1	10048	488288.880550433572	10.071199266428
1	10059	488569.038649234007	197.59203959819
1	10068	488665.571137343962	30.108791203759
1	10113	491451.620812238899	0
1	10139	493340.8514800418	0
1	10147	493521.572441164985	73.86414714383
1	10173	495015.897317419736	195.07954963887
1	10181	495139.072109687029	114.94017643261
1	10190	496010.707745210471	0
1	10207	496349.151446111814	172.21847141397
1	10231	498054.071964809091	984.55251460582
1	10236	498531.933659871533	1272.8027049222
1	10241	498541.578096250144	943.37220954167
1	10258	498912.12154194053	0
1	10295	501107.326446534515	1343.6810049005
1	10330	505758.616798711447	0
1	10339	506616.17931167144	0
1	10350	506689.614192056121	5.962905808132
1	10361	507416.090875660727	617.87893787513
1	10389	508403.352557585077	180.94737956005
1	10406	509335.615326389272	0
1	10432	510941.896281695957	0
1	10441	511803.937128576382	0
1	10458	513215.561417885845	0
1	10468	514586.707002531912	0
1	10482	514986.774823086355	46.694080727295
1	10497	516001.657750669453	677.85632883383
1	10506	516092.91149321614	533.50192904223
1	10511	516160.360578631562	408.17876875916
1	10540	516637.534632482261	27.466168078923
1	10562	517337.402174806208	137.07636078879
1	10567	517686.964645176045	437.45965894809
1	10584	518229.14655731309	0
1	10612	519203.192708059893	198.60361601435
1	10629	519907.516865491531	352.55986835932
1	10634	520054.83642499735	376.58402517562
1	10643	520508.989428369023	0
1	10658	521580.180341796134	449.66495450898
1	10669	521926.679276151303	428.41898321161
1	10681	522789.163181365122	883.65650118337
1	10693	523233.719773949706	175.90250758505
1	10722	524652.551245960831	288.21429942529
1	10777	525484.411211899651	53.756419560988
1	10793	525935.826269409168	0
1	10805	526563.960025088347	94.556160641284
1	10827	527924.442514533294	0
1	10846	529794.810208273685	0
1	10854	529989.990645254699	160.74934170585
1	10888	532211.989917751326	0
1	10897	532906.988892799371	0
1	10915	534844.197037828841	0
1	10924	535355.307985971549	0
1	10938	535632.76828389043	149.08138204139
1	10943	535720.405217130992	189.52123960772
1	10961	536509.353385057713	284.88265725621
1	10973	537181.440488448653	843.79998005533
1	10984	537335.122019857048	945.99727144619
1	11003	538392.91313673959	1626.4216949012
1	11008	538534.634940563509	1760.781061389
1	11013	538537.623829688088	1020.3268049145
1	11024	538850.003090115094	1132.0881392973
1	11029	539078.322709183601	371.08794965995
1	11106	542847.094828233618	1401.3178720712
1	11111	543223.776572228064	995.20065489072
1	11116	543305.365048125806	810.94405836026
1	11131	543702.611171568159	128.83447679407
1	11136	543987.230189016782	364.15558682777
1	11216	547381.597974056984	356.76813621297
1	11221	547447.523705720077	279.94308928323
1	11226	547544.118320700944	292.83252589099
1	11236	548583.851856011631	0
1	11252	549298.045758877707	0
1	11261	549591.67457640875	0
1	11269	549876.230283967524	0
1	11281	550847.553436741549	247.8143935714
1	11295	551448.98391330681	0
1	11303	551756.541658286209	45.301136267943
1	11326	552454.960983693048	206.0848672056
1	11371	554813.073182355344	93.832197897705
1	11379	555315.741163077238	0
1	11388	555676.509200163672	0
1	11433	557195.613146195322	84.22842757136
1	11442	558088.698965224633	129.20755267561
1	11455	558292.565291470317	0
1	11471	558651.093359777052	23.638615819324
1	11504	559189.457048776941	0
1	11513	560117.279947548326	0
1	11524	560396.365331154861	240.41253464572
1	11530	560847.860910629943	607.45516277487
1	11539	561606.274149054484	0
1	11547	561741.938184035324	0
1	11558	561908.824026305614	14.96772026285
1	11572	562444.314071280674	463.68394247909
1	11580	562778.008857436764	0
1	11595	563204.154583826931	190.98832552284
1	11655	564847.343657821062	312.54306295913
1	11661	565090.147481536656	278.37378625147
1	11669	565403.078250861955	248.88068102452
1	11689	566513.483489483361	476.48805930248
1	11694	566524.630068614566	338.84518955321
1	11723	567632.227616266449	540.6123569207
1	11761	568693.372312417159	330.01868173351
1	11766	568763.664956001182	172.03035005881
1	11788	569498.562568653959	0
1	11821	570713.783048704206	0
1	11833	571287.653870042599	512.03776300382
1	11841	571478.871171387902	477.55221121907
1	11849	571681.61861930445	248.66354356028
1	11874	572506.557630769232	83.856564685296
1	11905	573958.743034894633	0
1	11913	574037.313574267945	73.045272694866
1	11921	574196.602168321719	0
1	11930	574705.370214816365	0
1	11972	576557.007933361444	0
1	11997	577605.478549354646	0
1	12007	578707.047399998942	0
1	12015	579227.544280495357	0
1	12050	581965.479319892188	0
1	12059	582612.48506849113	0
1	12076	583708.655455452793	0
1	12085	584119.185277547386	0
1	12110	585274.754656559251	0
1	12136	586597.875169712126	0
1	12147	586781.321492975997	58.653150586573
1	12159	587213.056047467569	466.7757435151
1	12164	587487.177429128637	702.21192908472
1	12178	588390.163163677564	0
1	12186	588831.500116644585	160.2007282834
1	12228	590470.911397832825	0
1	12237	590651.75122228132	36.812642845483
1	12245	590996.914982809811	0
1	12253	591421.419177400682	0
1	12268	591918.941734985208	98.152472600887
1	12303	592923.267415137982	54.097981231471
1	12323	593698.304810454933	353.48877020231
1	12340	594514.465778211412	68.667953171777
1	12345	594517.038246710786	27.350964592383
1	12353	594661.410174939985	57.807567993359
1	12361	594825.225078719738	99.949402433557
1	12370	595243.808627887985	0
1	12381	595296.733083484993	51.532718654092
1	12412	597303.022641343671	802.65687892716
1	12421	598058.058043421562	0
1	12432	598142.990750893861	59.168858683029
1	12480	600344.900507762828	0
1	12497	601375.556261108873	484.47265553591
1	12507	602659.69864050988	475.34025573249
1	12518	602733.406932528753	29.059531128247
1	12526	602829.196556779568	67.424630411823
1	12565	605012.552056516738	0
1	12574	605219.515204205483	167.56593723276
1	12582	605678.462073869883	0
1	12597	606712.488841374403	904.17456205665
1	12603	606956.776822907082	782.11819895427
1	12618	607793.253306553565	144.24784843443
1	12629	608227.163537227697	189.72153578587
1	12650	608529.44645110967	159.81299348474
1	12734	612279.361657643315	0
1	12751	613522.405838788824	174.85243107166
1	12774	614435.817797241352	571.79161192268
1	12779	614567.680831946579	334.72480477203
1	12788	614654.239867726301	239.48984796614
1	12796	614823.194029734969	195.7730992069
1	12810	615539.079823176367	0
1	12826	616284.705041117703	0
1	12843	617011.109842465523	181.61904049461
1	12861	617474.144816476005	297.92619256063
1	12870	618178.430363801319	765.32656002646
1	12875	618311.411234809562	227.8886856862
1	12922	620216.944940805793	75.114162697356
1	12940	621464.235892868539	635.24717700013
1	12956	622219.98858819016	74.66449064059
1	12969	623406.775450843065	1240.1180954895
1	12977	623651.514560287304	935.21799114957
1	13005	625278.11694930886	0
1	13032	628156.926710109197	0
1	13044	628312.86999534293	34.365291665379
1	13057	628909.891812177946	357.50396365151
1	13080	629681.505908290821	338.99915323039
1	13089	630573.921011424608	1065.0958618432
1	13094	630711.58663532038	509.64876132362
1	13108	631252.939082469179	0
1	13143	633514.549552717098	0
1	13160	634680.631127151153	0
1	13168	635107.706443182293	0
1	13180	635231.607380690248	105.89686462963
1	13188	635664.610559389327	517.64280343181
1	13197	636280.071672685422	253.07080599389
1	13218	636468.326066702027	0
1	13226	636822.709417158877	0
1	13238	637237.620282526109	217.26618532053
1	13263	637739.795347413152	48.379436958097
1	13281	638785.733612454324	591.94554328195
1	13347	644252.055378278538	0
1	13355	644348.020209816312	0
1	13374	646345.113087406934	0
1	13382	647005.878914731664	0
1	13399	647892.048411743858	286.52118196739
1	13408	648470.06985671856	35.091441061134
1	13417	648937.435403262753	376.60133339004
1	13425	649597.621797094324	0
1	13448	650093.160480227767	9.825832089483
1	13475	651351.144334694762	0
1	13493	652059.512539405554	544.86460739248
1	13499	652305.180578288678	648.50132930806
1	13508	653396.906160554768	1668.4763273676
1	13524	653789.173581193434	95.887972290306
1	13543	654813.946983166095	0
1	13552	655022.280642142179	0
1	13567	655944.223442079655	900.68134641131
1	13572	656282.315880936812	946.26800994102
1	13596	658451.568796620712	0
1	13607	658802.444428646053	248.18300641597
1	13612	658856.065701580725	100.68770764994
1	13644	660520.186991204935	462.01019444777
1	13681	661865.726831565354	621.2748509566
1	13725	663504.649239082088	314.11653419602
1	13739	664748.584521062721	0
1	13748	665363.480172596718	0
1	13762	665602.197819379817	20.812909105879
1	13802	670630.628414377942	0
1	13810	670872.956369369513	237.07190344779
1	13820	672145.840474744978	0
1	13837	673701.021210481056	0
1	13850	674743.450213565631	434.92255111327
1	13875	675736.197063129736	59.169846313424
1	13888	676137.096037858718	0
1	13905	676579.541136766336	0
1	13921	676760.119420469473	57.767757164544
1	13933	677529.224403496883	716.04533909947
1	13955	678312.115372062342	26.558204965131
1	13980	679641.591876421309	0
1	14006	681157.462626541408	0
1	14014	681354.409741282459	0
1	14029	681993.754279575452	508.28031193259
1	14034	682090.007317554658	522.52690834164
1	14059	682879.747669115035	181.3596023065
1	14064	682972.052365253522	259.61431681758
1	14081	683893.207638606005	0
1	14098	684200.478126048755	113.71018672266
1	14125	686109.647142525222	1051.3586440817
1	14159	689013.474434582092	0
1	14174	689597.668189324342	225.50116045241
1	14183	690543.968489806523	1081.872316784
1	14188	690676.799196349072	311.16025961793
1	14219	692547.814776657463	0
1	14229	693823.865896176035	0
1	14244	694567.694498573946	278.29962386287
1	14284	697656.410753386243	55.555894071788
1	14289	697691.947517694737	37.62171331053
1	14325	700789.920650591171	230.9834866218
1	14335	702814.487643412438	0
1	14355	705835.015106140794	0
1	14364	706660.06550165205	0
1	14384	707553.526827798949	174.16279955585
1	14392	707859.889787816688	451.19314553365
1	14397	707864.190059435603	10.85753627602
1	14416	709340.222667211975	893.20514252435
1	14424	709703.092053957845	1048.204664455
1	14430	709854.931304954745	584.93289829102
1	14441	710022.23281631293	632.11544842289
1	14453	710601.885584616233	217.04310963948
1	14485	712375.538009501909	443.82700282388
1	14531	716105.464757776267	563.04108526142
1	14536	716273.512682551668	493.12995247468
1	14576	717129.597854339079	10.092438109541
1	14593	717560.545312479109	0
1	14601	718086.19447430307	0
1	14611	719391.85661041956	0
1	14619	719998.384095273722	0
1	14638	722555.655424198633	0
1	14664	723842.826230818848	0
1	14673	724702.776569450511	0
1	14690	725181.627569318018	0
1	14707	726569.64026102719	0
1	14715	726848.033218052065	97.968733813635
1	14749	728206.093608336384	0
1	14759	729519.006881644115	0
1	14767	729953.656674377407	0
1	14776	730840.225571871442	0
1	14793	731621.282271377263	0
1	14808	732125.276212716973	78.719444209933
1	14816	732295.650294219734	53.805294757873
1	14833	733011.844182621618	98.001198610072
1	14858	734052.278994992979	17.249854482628
1	14875	734951.692735395274	232.83630780349
1	14883	735242.105946003764	453.73981400032
1	14912	736908.450148272681	960.67337785402
1	14927	737544.239287990957	896.80348543401
1	14932	737708.928116841226	598.24595346418
1	14938	738055.388739514243	596.70540101924
1	14951	738790.283642579326	212.37348625148
1	14976	739520.621293368378	243.41212157853
1	14988	740332.19289306482	971.70148212708
1	15006	740678.379419986512	1226.5460627644
1	15011	740798.102230651062	137.64022957065
1	15047	741754.556127786756	163.97519161999
1	15102	744165.27288398753	73.87211280298
1	15132	745255.419974776345	209.23474802
1	15149	746041.804271764032	143.29722712585
1	15171	746887.038204320093	0
1	15180	747734.138555999442	0
1	15188	748017.18015990423	267.66189916623
1	15206	749159.986003689447	0
1	15223	750023.705947204426	212.69834828833
1	15249	752206.178393314501	0
1	15266	752757.665427350036	0
1	15274	752882.106338503046	53.526276230258
1	15282	753161.273903619158	251.89775968999
1	15290	753343.886979140422	90.082358869233
1	15299	753813.495292485025	0
1	15307	754209.531337026003	201.19245982934
1	15315	754225.454184439412	9.480815081226
1	15349	755625.139665197765	0
1	15402	759554.833583651598	0
1	15413	759752.560473766864	193.6141292017
1	15443	762182.811196661594	833.27091970634
1	15451	762542.368176627452	288.67190951463
1	15478	763361.697031144585	0
1	15498	766724.229518805887	0
1	15515	767291.216429100928	0
1	15524	768055.389652401816	0
1	15532	768624.152223698172	191.00558438564
1	15552	769204.579381852229	69.321127300559
1	15564	770194.514951911974	908.27225872964
1	15573	770798.058466069888	440.15605292613
1	15600	772152.49032667585	0
1	15633	773039.041465142345	0
1	15642	773746.566604198881	139.54117980597
1	15660	775192.489939177602	424.58306345824
1	15668	775524.02193871589	249.22289744071
1	15685	776385.698207079496	0
1	15694	777263.291675958828	0
1	15703	777978.632889377954	0
1	15747	781253.245681971324	0
1	15765	782853.566190662569	0
1	15774	784064.528315897116	0
1	15791	784986.778816755226	244.90737002503
1	15809	786396.418167964331	0
1	15820	786846.961076059547	423.9887807402
1	15836	788160.24525475058	1496.833312517
1	15841	788304.00046176376	937.94141311922
1	15856	788630.209251625264	229.95526740444
1	15867	788999.454628013973	149.07030822418
1	15902	790093.975882401331	228.86603247826
1	15920	791876.70616222402	379.99698434163
1	15934	792102.742126790145	146.86081742937
1	15952	792466.331489903353	94.041153502017
1	15966	792648.793709273971	164.07884153763
1	16002	793733.34245707162	0
1	16010	794032.559913104012	0
1	16030	794674.904815799136	162.19275226639
1	16052	795537.393480222201	64.848995464677
1	16062	797422.313050852797	0
1	16071	798471.232984141916	715.36659664647
1	16097	800327.408135557391	48.742920913308
1	16139	801668.652349542622	0
1	16147	801986.818071546188	0
1	16164	802706.401361145478	0
1	16173	803576.187115235951	0
1	16181	803897.836261548587	0
1	16207	805520.841897089791	0
1	16216	806093.413501586524	0
1	16228	806752.010573415941	412.9485696621
1	16239	807264.007850289717	867.42526830048
1	16245	807503.557930849888	242.71687601822
1	16275	808831.895926776409	0
1	16300	810373.369579546435	1135.8898850142
1	16306	810998.509239073318	1403.3678026161
1	16320	812271.285327179955	687.34072448416
1	16332	813439.549729634909	696.63645413744
1	16367	814457.11299265366	603.85650633793
1	16375	814545.864028938447	659.63689256755
1	16380	814606.15273632608	121.54004622523
1	16403	815028.973584324858	47.866557247368
1	16422	815700.486312849012	183.24232093332
1	16445	816534.97755299571	365.36411854305
1	16450	816623.658782090146	383.86623138236
1	16459	816924.523036341531	650.03694932099
1	16476	817442.742506501964	799.14493146686
1	16481	817725.593584686228	799.86330839005
1	16493	818499.464054331152	1298.2955120412
1	16498	818532.056137966106	1172.8587458761
1	16504	818686.720794232669	191.60281670617
1	16561	820367.3389512642	22.495482265614
1	16578	821415.927584660656	0
1	16603	822143.871511360583	75.82033207983
1	16625	823825.325781208569	1469.0827277818
1	16630	823967.579896904962	1453.5051588343
1	16641	824374.143722821955	311.60438246281
1	16662	825464.058765266801	700.16360455565
1	16675	825919.148007623629	111.96822413591
1	16705	827697.220230967407	0
1	16731	828990.023407975575	182.06104321342
1	16739	829195.591143844004	0
1	16774	831691.644139619546	0
1	16791	833055.323191511328	0
[...]
7	13326	642820.62899389169	0
7	13350	644289.613072609312	1
7	13358	644633.745437398534	0
7	13362	644875.863510067916	1
7	13377	646369.364314861197	2
7	13386	647487.216692972442	3
7	13388	647601.590335620777	2
7	13406	648470.06985671856	3
7	13415	648937.435403262753	4
7	13420	649228.561981712342	5
7	13427	649724.523335777	4
7	13432	649752.335254809204	5
7	13436	649894.580357551701	4
7	13439	649984.885399101541	3
7	13450	650127.505731587282	2
7	13454	650375.437695574291	3
7	13481	651585.323976556714	2
7	13491	652059.512539405554	3
7	13497	652305.180578288678	4
7	13501	653085.061846266868	3
7	13506	653396.906160554768	4
7	13510	653481.549757874363	3
7	13514	653572.808630877774	4
7	13527	653879.895798787773	5
7	13546	654821.195736321952	6
7	13561	655740.9739011719	5
7	13565	655944.223442079655	6
7	13570	656282.315880936812	7
7	13576	656904.579665947909	8
7	13580	657175.849578414216	7
7	13605	658802.444428646053	8
7	13610	658856.065701580725	9
7	13616	659202.985205002066	10
7	13618	659305.85688835827	9
7	13623	659617.517062300102	8
7	13626	659646.017207603538	7
7	13634	659974.605757578614	6
7	13646	660577.761543571989	5
7	13650	660758.657767891202	6
7	13654	660841.879641612479	5
7	13671	661402.418604544558	4
7	13674	661682.229452528114	3
7	13684	661920.342334254413	4
7	13698	662436.287973559536	3
7	13707	662629.730739724924	2
7	13715	662732.060870814119	1
7	13728	663618.34943877141	2
7	13743	665247.369918864213	3
7	13750	665482.091898680699	2
7	13753	665523.124158327498	1
7	13760	665602.197819379817	2
7	13765	665637.623281226293	3
7	13778	666692.306171752875	2
7	13791	670464.467290844699	1
7	13808	670872.956369369513	2
7	13814	671159.411979875098	3
7	13823	673064.12067843927	2
7	13827	673365.177946772723	3
7	13840	674086.394948560182	2
7	13848	674743.450213565631	3
7	13853	674969.355028285384	4
7	13861	675619.182958418125	3
7	13869	675679.717677990989	2
7	13878	676086.500557368081	3
7	13891	676230.182545916317	4
7	13894	676541.631257147935	3
7	13908	676623.74622783213	4
7	13910	676671.288902575328	3
7	13927	677249.541783984443	2
7	13931	677529.224403496883	3
7	13935	677531.559052370917	2
7	13940	678128.787177992872	3
7	13957	678497.296217567702	2
7	13961	678686.628242377723	3
7	13969	679055.757194404869	2
7	13983	679646.468059257257	3
7	13986	679921.657389762389	2
7	13995	680743.823683820225	1
7	14009	681244.859912244634	2
7	14023	681745.089587180236	1
7	14027	681993.754279575452	2
7	14032	682090.007317554658	3
7	14038	682445.128713290305	4
7	14042	682498.459263569639	3
7	14062	682972.052365253522	4
7	14068	683255.292054388354	5
7	14070	683509.732139724583	4
7	14085	684036.615498245403	5
7	14087	684041.103415681587	4
7	14101	684563.736677565944	5
7	14104	684996.753723049296	4
7	14112	685132.13466060137	3
7	14115	685527.356672723796	2
7	14119	686013.721741417778	1
7	14128	686110.492427970551	2
7	14133	686620.77120841387	1
7	14161	689073.640005453534	0
7	14172	689597.668189324342	1
7	14181	690543.968489806523	2
7	14186	690676.799196349072	3
7	14192	690972.855493196914	4
7	14196	691041.552332053335	3
7	14199	691060.710384590554	2
7	14223	692585.590796801707	3
7	14231	694284.73112533621	2
7	14238	694464.637811731309	1
7	14242	694567.694498573946	2
7	14247	694739.842151529945	3
7	14262	696915.666389448738	2
7	14270	697377.694813697873	1
7	14287	697691.947517694737	2
7	14293	697827.916629488774	3
7	14295	698100.930106497795	2
7	14304	699288.830350081403	1
7	14313	699996.150268051222	0
7	14328	700911.147683963879	1
7	14339	703059.92785148291	2
7	14343	704882.931171776842	1
7	14358	705860.780049328815	2
7	14368	707227.674563689616	3
7	14370	707253.950239499618	2
7	14390	707859.889787816688	3
7	14395	707864.190059435603	4
7	14400	708364.824119722433	3
7	14414	709340.222667211975	4
7	14422	709703.092053957845	5
7	14428	709854.931304954745	6
7	14432	709955.170263460559	5
7	14435	709995.849836619392	4
7	14439	710022.23281631293	5
7	14446	710412.344372542191	4
7	14451	710601.885584616233	5
7	14456	710811.773257007382	6
7	14460	711044.074734532267	5
7	14463	711062.0809923801	4
7	14466	711188.850660709222	3
7	14470	711709.816079314179	2
7	14488	712623.505208278106	3
7	14492	712695.675764505354	2
7	14518	715126.685926601202	1
7	14534	716273.512682551668	2
7	14539	716299.593521492687	3
7	14543	716402.6509814773	2
7	14557	716924.646369138021	1
7	14578	717188.64464396315	0
7	14582	717221.04149263246	1
7	14596	717622.936168340858	2
7	14605	718737.930466421893	3
7	14614	719464.06841799888	4
7	14622	720642.646896257452	3
7	14627	720918.710506542545	4
7	14642	722626.824526241969	5
7	14644	722808.706119409422	4
7	14652	722954.330753942355	3
7	14667	724063.367137900271	4
7	14676	724856.010797711046	5
7	14678	725095.80301398975	4
7	14693	725230.10033875456	5
7	14695	725858.454155892709	4
7	14713	726848.033218052065	5
7	14719	727044.364048742413	6
7	14721	727124.647636510039	5
7	14729	727541.782092202586	4
7	14738	727804.866383287474	3
7	14752	728509.978529949134	4
7	14762	729759.444806946852	5
7	14770	730155.54790008069	6
7	14779	731078.051081084528	7
7	14782	731494.017456509606	6
7	14795	731748.282977792767	5
7	14798	731833.621628062814	4
7	14806	732125.276212716973	5
7	14814	732295.650294219734	6
7	14818	732296.795977435187	5
7	14822	732668.533814453787	6
7	14836	733484.62826555669	7
7	14841	733939.938335296978	6
7	14849	733951.817651974609	5
7	14861	734104.276977366025	6
7	14877	734961.700682390631	5
7	14881	735242.105946003764	6
7	14886	735366.002868103332	7
7	14896	735924.107770845153	6
7	14903	736468.547686417742	5
7	14918	737158.893628708158	4
7	14925	737544.239287990957	5
7	14930	737708.928116841226	6
7	14936	738055.388739514243	7
7	14941	738117.852158385631	8
7	14954	738791.526940550323	9
7	14979	740160.634636709285	8
7	14982	740186.25795521286	7
7	14986	740332.19289306482	8
7	14990	740343.362337223611	7
7	14993	740491.162448276137	6
7	14997	740631.553928786998	5
7	15004	740678.379419986512	6
7	15009	740798.102230651062	7
7	15014	740864.617409960099	8
7	15018	740894.637108664638	7
7	15021	740982.026973755007	6
7	15024	741008.441917985726	5
7	15027	741021.231621892522	4
7	15050	741823.467478916075	5
7	15054	741964.666436087448	4
7	15068	742630.867407152998	3
7	15087	743429.021053147625	2
7	15105	744171.08896542131	3
7	15117	744867.205615027703	2
7	15123	745039.688840119703	1
7	15135	745467.778747254946	2
7	15139	745490.459906010999	1
7	15152	746095.185017592083	2
7	15159	746416.697054250882	1
7	15174	747265.925170246548	2
7	15186	748017.18015990423	3
7	15191	748146.547451856659	4
7	15193	748176.478078881144	3
7	15208	749465.900362672574	2
7	15212	749572.807000121311	3
7	15226	750313.673686830074	4
7	15228	750779.518939306454	3
7	15234	751126.275891496475	2
7	15252	752227.862603412776	3
7	15254	752305.043228676724	2
7	15272	752882.106338503046	3
7	15280	753161.273903619158	4
7	15288	753343.886979140422	5
7	15294	753461.648409940846	6
7	15305	754209.531337026003	7
7	15313	754225.454184439412	8
7	15318	754313.580110630906	7
7	15321	754330.98482819816	6
7	15324	754760.575972802445	5
7	15328	755067.486203463031	6
7	15353	756056.378150614918	7
7	15355	756409.882725397652	6
7	15360	756429.628961038949	5
7	15372	757021.946633070836	4
7	15380	757573.52848404876	3
7	15389	757796.538523691086	2
7	15407	759672.9437622436	1
7	15411	759752.560473766864	2
7	15416	760220.845261986039	3
7	15424	761121.468266960699	2
7	15433	761504.115203554172	1
7	15436	761661.377485262015	0
7	15449	762542.368176627452	1
7	15453	762700.53033466339	0
7	15458	762877.879418014832	1
7	15481	763589.846335761815	2
7	15485	764726.779446909116	1
7	15501	766811.432475252945	2
7	15503	766964.589808214718	1
7	15518	767453.829450422122	2
7	15530	768624.152223698172	3
7	15534	768744.727461803925	2
7	15539	768992.265029921179	3
7	15543	769084.665819148967	2
7	15557	769387.792392485607	1
7	15562	770194.514951911974	2
7	15571	770798.058466069888	3
7	15575	770850.068423811744	2
7	15579	771027.887219057314	3
7	15602	772176.392053493872	2
7	15607	772553.284766703654	3
7	15614	772613.684133229765	2
7	15619	772798.941731661395	1
7	15640	773746.566604198881	2
7	15645	774014.638480701186	3
7	15648	774758.470338815658	2
7	15666	775524.02193871589	3
7	15671	775572.511294143847	4
7	15674	775802.854676615242	3
7	15688	776392.132136282125	4
7	15697	777269.282139312182	5
7	15706	777991.271636543786	6
7	15710	779347.233160468853	5
7	15718	779955.177418130892	4
7	15723	780010.843279890347	3
7	15735	780357.619285417615	2
7	15750	781263.529114124587	3
7	15753	782045.140215651208	2
7	15768	783189.942253452989	3
7	15777	784199.464153752012	4
7	15780	784504.961786439524	3
7	15795	785499.577173454746	4
7	15797	785732.145082435855	3
7	15818	786846.961076059547	4
7	15823	786970.389543443199	3
7	15830	788073.954581164285	2
7	15834	788160.24525475058	3
7	15839	788304.00046176376	4
7	15846	788450.342577499129	3
7	15849	788533.792112703588	2
7	15854	788630.209251625264	3
7	15861	788935.994235160067	2
7	15865	788999.454628013973	3
7	15870	789324.799936051383	4
7	15874	789381.953898403778	3
7	15896	789971.032395432418	2
7	15907	791324.676853666559	3
7	15914	791804.507522632505	2
7	15923	791904.030070873847	3
7	15937	792109.71140925255	4
7	15957	792621.289710412475	3
7	15960	792627.936410349129	2
7	15964	792648.793709273971	3
7	15969	792747.41490877361	4
7	15982	793099.727554312211	3
7	15990	793321.148772567351	2
7	16005	793839.554253338535	3
7	16012	794173.452061659014	2
7	16016	794273.637278829305	3
7	16020	794435.034449408682	2
7	16033	794820.532507313513	3
7	16040	795038.26913162242	2
7	16055	796075.144634981747	3
7	16069	798471.232984141916	4
7	16073	798533.174414443835	3
7	16077	798711.224389315305	4
7	16086	800036.175556213239	3
7	16100	800486.239547217286	4
7	16102	800488.75865741211	3
7	16111	800908.41582789294	2
7	16119	801174.703429359104	1
7	16124	801202.18500069948	0
7	16142	801672.144816561407	1
7	16150	802036.578029564806	2
7	16152	802139.400016113444	1
7	16167	802990.285484236323	2
7	16176	803643.795499360731	3
7	16185	804486.353460186562	4
7	16187	804633.472041655489	3
7	16192	804698.688200733917	2
7	16211	806089.33462455361	3
7	16226	806752.010573415941	4
7	16230	807202.605196387711	3
7	16237	807264.007850289717	4
7	16243	807503.557930849888	5
7	16248	807805.994051098684	6
7	16252	807966.95767372142	5
7	16256	808370.890676624968	4
7	16281	809446.943317760175	3
7	16287	809629.601087487592	2
7	16291	810092.591433313674	1
7	16294	810323.779074914797	0
7	16298	810373.369579546435	1
7	16304	810998.509239073318	2
7	16309	811092.225945694948	3
7	16326	812932.744453698236	2
7	16330	813439.549729634909	3
7	16335	813488.227692535574	2
7	16339	813494.94853680419	3
7	16343	813559.604992665499	2
7	16351	813661.675799342636	1
7	16354	813674.978793820223	0
7	16373	814545.864028938447	1
7	16378	814606.15273632608	2
7	16383	814638.514567892823	3
7	16406	815113.462899339811	4
7	16424	815852.802428138253	3
7	16429	816101.776805584855	4
7	16448	816623.658782090146	5
7	16457	816924.523036341531	6
7	16464	816983.489086612741	5
7	16474	817442.742506501964	6
7	16479	817725.593584686228	7
7	16484	818236.032009088926	6
7	16491	818499.464054331152	7
7	16496	818532.056137966106	8
7	16502	818686.720794232669	9
7	16506	818698.064548218142	8
7	16510	819217.43990772274	9
7	16525	819737.481530408966	8
7	16538	820054.617966103353	7
7	16549	820274.851847817959	6
7	16563	820538.058062887479	5
7	16567	820601.477215946541	6
7	16580	821472.689277199046	5
7	16584	821532.372763680694	6
7	16591	821666.632034349392	5
7	16611	822804.822305062638	4
7	16615	822899.491851446133	3
7	16618	823201.461179451413	2
7	16623	823825.325781208569	3
7	16628	823967.579896904962	4
7	16635	824373.966822484373	3
7	16639	824374.143722821955	4
7	16644	824481.643714071893	5
7	16652	825194.979960662167	4
7	16655	825442.545374489217	3
7	16665	825591.012153401421	4
7	16679	826431.302143426218	5
7	16708	827729.785814360336	6
7	16711	828361.114618918437	5
7	16719	828684.5594449278	4
7	16734	829094.180759578663	5
7	16742	829481.25339439565	6
7	16745	830198.562146759066	5
7	16754	830643.565934772281	4
7	16759	830771.915671205237	3
7	16777	832108.835717210098	4
7	16780	832474.139303905431	3
7	16798	833218.126203019873	4
7	16803	833654.246511911503	5
7	16805	833746.434034721055	4
7	16814	834141.30664621691	3
7	16829	835123.526198320879	4
7	16831	835211.481789518487	3
7	16846	836189.892893758066	4
7	16853	836369.405042872686	3
7	16857	836432.253312457111	4
7	16871	837141.645218721181	5
7	16873	837146.233544812644	4
7	16878	837173.29258166589	3
7	16882	837529.40833157831	2
7	16890	837764.507361530192	1
7	16910	838258.037732938425	2
7	16919	838358.595292621429	3
7	16924	838470.237111574473	4
7	16937	838780.777373185667	5
7	16946	839758.813177569625	6
7	16949	840204.055482868723	5
7	16954	840242.852620843579	4
7	16966	840617.496446157537	5
7	16970	840809.414500554572	4
7	16979	841280.779122127012	3
7	16997	842363.781504390717	4
7	16999	842430.865313904632	3
7	17004	842519.5047448656	2
7	17008	842614.71353641099	1
7	17011	842698.600706137834	0
7	17029	844111.244503192152	1
7	17033	844188.408385045796	0
7	17057	845452.282868850797	1
7	17065	845849.096861228741	2
7	17075	847346.356190267427	3
7	17077	847369.482021233298	2
7	17085	847446.202500929043	1
7	17101	848832.098028068203	2
7	17105	850395.847099048983	1
7	17119	850991.047791446233	2
7	17128	851596.507695584905	3
7	17136	851934.066936099861	4
7	17138	851977.407666629614	3
7	17159	852224.291440131115	4
7	17164	852402.458953329909	5
7	17168	852619.256451028113	4
7	17172	852764.176146076214	5
7	17177	852875.887877884064	4
7	17188	853565.887176351854	3
7	17194	853613.258737479736	2
7	17204	854122.836708335058	3
7	17213	854660.251254153118	4
7	17217	854701.277944625402	3
7	17221	854705.752907643262	4
7	17225	854745.703351319452	3
7	17237	855218.165033013061	4
7	17244	855438.965271133043	3
7	17257	856274.554333889257	4
7	17263	856401.549877415844	5
7	17267	856890.809515622353	4
7	17270	856923.635506309904	3
7	17273	857097.066452689829	2
7	17277	857192.353628366587	1
7	17290	858949.212401500575	0
7	17294	859009.843673421293	1
7	17298	859176.879383459153	0
7	17326	861591.823853338376	1
7	17331	861641.102410876877	2
7	17357	862047.702059366783	3
7	17365	862111.866421422918	4
7	17376	862693.196145876675	3
7	17381	863201.911541882478	4
7	17386	863462.482422223264	5
7	17391	863753.350263355868	6
7	17404	864304.505160792863	5
7	17407	864359.910005654194	4
7	17410	864549.442404961009	3
7	17422	864729.319804634793	4
7	17430	864904.941906382062	3
7	17436	865233.105984234058	2
7	17440	865281.112403973037	3
7	17445	865305.723769969402	4
7	17450	865363.445665733041	5
7	17465	866039.819850933894	4
7	17473	866503.688991250388	3
7	17477	866605.95002480012	2
7	17490	867386.757333667447	1
7	17518	869017.834385667073	0
7	17540	872978.260446965075	1
7	17545	873275.627201727963	2
7	17548	873638.36596579972	1
7	17575	874942.784929527664	2
7	17580	874976.011605832171	3
7	17585	875110.712222288805	4
7	17591	875217.022110848838	5
7	17596	875276.615034637441	6
7	17598	875531.640076639976	5
7	17607	876156.474152048702	4
7	17615	876440.987186800192	3
7	17623	876700.863905318267	2
7	17633	876901.072905578872	3
7	17653	878156.744204440298	4
7	17658	878326.575789323863	5
7	17663	878392.69377862138	6
7	17665	878515.291227774888	5
7	17679	878686.670557617944	4
7	17683	878967.63746746523	5
7	17691	879643.549861604108	4
7	17696	879814.046595761111	3
7	17706	881165.783941317931	2
7	17724	882633.623552343953	3
7	17735	882892.229909159153	2
7	17739	883212.578630372155	3
7	17751	884079.70152283909	4
7	17756	884241.36952834909	5
7	17762	884644.451436133603	6
7	17769	884876.053810129512	5
7	17777	884993.806026254597	4
7	17785	885259.510308679889	3
7	17793	885327.895821069121	2
7	17808	885464.179088212423	3
7	17816	885842.096378979013	4
7	17825	886555.31897025688	5
7	17828	887177.689389373842	4
7	17836	887439.316058406574	3
7	17845	888629.247953981391	2
7	17860	889407.15693521269	3
7	17862	889488.208592751571	2
7	17877	890167.749791110565	3
7	17880	890593.941601054022	2
7	17897	890992.240998491297	3
7	17902	891187.727412485271	4
7	17905	891658.362596975041	3
7	17920	893047.951752219182	4
7	17929	893236.129377456632	5
7	17931	893327.875968020623	4
7	17946	894369.65797107534	5
7	17955	895017.275617797427	6
7	17957	895365.998612459828	5
7	17972	895957.339307175754	6
7	17979	896312.086113424452	5
7	17983	896366.794277135884	6
7	17990	896448.850739213252	5
7	17999	896693.249995907432	4
7	18007	896911.053696087123	3
7	18013	897486.436601516161	2
7	18024	897785.250931028443	1
7	18028	897795.944866118583	2
7	18040	898133.865110335121	1
7	18055	899015.7925274644	2
7	18066	901454.503296931944	3
7	18075	901741.742685674606	4
7	18077	901827.966207272312	3
7	18091	902348.804554838118	4
7	18102	903154.266000487807	3
7	18110	903503.054605121577	4
7	18118	903878.992444464227	5
7	18123	904007.934491352938	6
7	18128	904218.115585593532	7
7	18136	904379.218123493302	6
7	18144	904455.796858027417	5
7	18149	905332.941108888904	6
7	18161	905641.837723085165	5
7	18175	905861.50459056175	6
7	18178	906271.110278726216	5
7	18187	906923.431139330096	4
7	18192	907169.182452779628	3
7	18209	908339.565290990142	2
7	18213	908584.985613235344	3
7	18230	912174.730555460346	2
7	18237	912739.008831392515	3
7	18242	912794.762878282653	4
7	18255	913109.358784265399	3
7	18259	913159.924085647768	4
7	18272	914423.212401897016	3
7	18276	914547.707091737592	4
7	18293	915218.041530003702	5
7	18297	915244.79914867547	4
7	18301	915288.331983693967	5
7	18305	915432.467005572986	4
7	18321	916069.168795599824	5
7	18330	916418.483756204574	6
7	18341	917147.830684905938	7
7	18347	917443.633662845449	8
7	18351	917476.945033582655	7
7	18355	917483.066473205107	8
7	18359	917669.603765298823	7
7	18373	918037.84383071019	6
7	18381	918436.192570763815	5
7	18396	918879.699634936888	4
7	18399	918950.261662883302	3
7	18407	920124.211779124097	4
7	18412	920179.724356607683	5
7	18417	920212.796633529847	6
7	18444	920834.390203333184	7
7	18448	921017.067278941841	6
7	18452	921064.748724703066	7
7	18459	921211.58987716271	6
7	18484	922749.073298703705	7
7	18489	922980.849872772746	8
7	18497	923118.267900725769	9
7	18502	923168.966929724748	8
7	18505	923352.410192348358	7
7	18509	923424.291492483298	8
7	18514	923445.813792470202	9
7	18535	923937.654610383292	10
7	18540	923979.18909441776	11
7	18543	924064.206256455045	10
7	18548	924154.70316420453	9
7	18551	924216.247257412004	8
7	18554	924279.263912906517	7
7	18566	924486.613009345997	8
7	18584	925346.086623775979	7
7	18589	925422.481474673108	6
7	18606	925867.575532190557	5
7	18609	925942.1917008039	4
7	18613	926058.055444445861	5
7	18622	926200.231276102928	4
7	18639	926525.925977874434	5
7	18642	926744.775475927959	4
7	18651	927459.069237327803	3
7	18659	927822.048404496459	2
7	18677	929114.664300779847	3
7	18683	929184.295196758848	4
7	18685	929826.698183841157	3
7	18690	929959.8868116144	2
7	18702	930494.695737169092	1
7	18707	930626.897223079066	0
7	18737	934179.694529952579	1
7	18743	934519.113691045396	2
7	18747	934555.554959764278	1
7	18751	934965.862169117834	2
7	18756	935090.326687902385	3
7	18764	935562.970889705532	2
7	18779	936076.777483170644	3
7	18790	936725.273213870813	4
7	18794	936808.559574225849	3
7	18802	938280.704003329366	2
7	18807	938706.96639905533	3
7	18812	938733.165512300433	4
7	18822	939558.246446197854	3
7	18825	939573.454579250825	2
7	18839	941333.301163960563	3
7	18843	941561.248070525511	2
7	18856	941966.008451407566	1
7	18874	942393.940025412567	2
7	18877	942954.707783008171	1
7	18891	943093.613771101481	2
7	18893	943140.70960533909	1
7	18902	943891.001769289487	0
7	18917	944716.073517873043	1
7	18929	945964.290122105574	2
7	18937	946033.886981697876	3
7	18942	946431.733908822013	2
7	18949	946749.583611025412	3
7	18960	947321.376184650615	2
7	18963	947475.833954287758	1
7	18970	948011.986148541928	2
7	18979	948178.706403354067	3
7	18984	948251.095457234642	4
7	18989	948556.375122819245	5
7	18993	948559.235821900872	4
7	18997	948860.63163119399	5
7	19002	948999.493100091131	4
7	19005	949179.934849071012	3
7	19041	950324.163672939968	4
