version 2
run QueueMeasurement-108-20170109-14:15:13-6082
attr configname QueueMeasurement
attr datetime 20170109-14:15:13
attr experiment QueueMeasurement
attr inifile queueStudy.ini
attr iterationvars ""
attr iterationvars2 $repetition=108
attr measurement ""
attr network controltower.SimNetwork
attr processid 6082
attr repetition 108
attr replication #108
attr resultdir results
attr runnumber 108
attr seedset 108
param SimNetwork.a.parkingLot.parkingDelay exponential(45min)
param SimNetwork.a.runway.landingTime exponential(5min)
param SimNetwork.a.runway.takeoffTime exponential(5min)
param SimNetwork.a.runway.throughputCheckInterval 14.286min
param SimNetwork.wg.interArrivalTime exponential(14.286min)

statistic SimNetwork.wg 	responseTime:stats
field count 997
field mean 5197.3313879395
field stddev 2893.4270642198
field sum 5181739.3937757
field sqrsum 35269649290.648
field min 606.43645998819
field max 20388.846020827
attr source  responseTimeSignal
scalar SimNetwork.a.landingQueue 	queueLength:timeavg 	0.29294786181094
attr source  queueLengthSignal
statistic SimNetwork.a.landingQueue 	queueLength:stats
field count 1994
field mean 0.76579739217653
field stddev 0.76803532796397
field sum 1527
field sqrsum 2345
field min 0
field max 4
attr source  queueLengthSignal
statistic SimNetwork.a.landingQueue 	queueTime:stats
field count 997
field mean 255.91089963781
field stddev 336.28170094587
field sum 255143.1669389
field sqrsum 177926958.24926
field min 0
field max 1918.735457543
attr source  queueTimeSignal
scalar SimNetwork.a.takeoffQueue 	queueLength:timeavg 	0.94399293010809
attr source  queueLengthSignal
statistic SimNetwork.a.takeoffQueue 	queueLength:stats
field count 1994
field mean 1.5010030090271
field stddev 1.8752485025465
field sum 2993
field sqrsum 11501
field min 0
field max 12
attr source  queueLengthSignal
statistic SimNetwork.a.takeoffQueue 	queueTime:stats
field count 997
field mean 824.20566471971
field stddev 1134.4199204553
field sum 821733.04772555
field sqrsum 1959037954.5249
field min 0
field max 5911.1430452122
attr source  queueTimeSignal
scalar SimNetwork.a.parkingLot 	parkingOccupancy:timeavg 	3.0314678468823
attr source  parkingOccupancy
statistic SimNetwork.a.parkingLot 	parkingOccupancy:stats
field count 1994
field mean 3.5541624874624
field stddev 1.8981400106227
field sum 7087
field sqrsum 32369
field min 0
field max 11
attr source  parkingOccupancy
