version 2
run QueueMeasurement-76-20170109-14:14:53-6050
attr configname QueueMeasurement
attr datetime 20170109-14:14:53
attr experiment QueueMeasurement
attr inifile queueStudy.ini
attr iterationvars ""
attr iterationvars2 $repetition=76
attr measurement ""
attr network controltower.SimNetwork
attr processid 6050
attr repetition 76
attr replication #76
attr resultdir results
attr runnumber 76
attr seedset 76
param SimNetwork.a.parkingLot.parkingDelay exponential(45min)
param SimNetwork.a.runway.landingTime exponential(5min)
param SimNetwork.a.runway.takeoffTime exponential(5min)
param SimNetwork.a.runway.throughputCheckInterval 14.286min
param SimNetwork.wg.interArrivalTime exponential(14.286min)

vector 0  SimNetwork.wg  responseTime:vector  ETV
attr source  responseTimeSignal
vector 2  SimNetwork.a.landingQueue  queueLength:vector  ETV
attr source  queueLengthSignal
vector 1  SimNetwork.a.landingQueue  queueTime:vector  ETV
attr source  queueTimeSignal
vector 7  SimNetwork.a.parkingLot  parkingOccupancy:vector  ETV
attr source  parkingOccupancy
vector 4  SimNetwork.a.takeoffQueue  queueLength:vector  ETV
attr source  queueLengthSignal
vector 5  SimNetwork.a.runway  landedThroughput:vector  ETV
attr source  landedThroughputSignal
vector 6  SimNetwork.a.runway  tookoffThroughput:vector  ETV
attr source  tookoffThroughputSignal
vector 3  SimNetwork.a.takeoffQueue  queueTime:vector  ETV
attr source  queueTimeSignal
0	1563	79223.220213005908	832.08167964642
0	1588	80041.550069530654	2878.1210606601
0	1597	80705.292622151499	6208.1474286902
0	1634	81544.749178338235	2145.6183913635
0	1664	82383.736634980762	4877.6464708151
0	1681	83546.716378433033	8507.3924439962
0	1696	84035.648024625926	2669.0440844228
0	1712	84680.972677477335	5344.8992369898
0	1717	84725.398130617428	16764.028764788
0	1732	85299.999777901565	4509.1035332652
0	1742	85376.86186893764	3880.5518384282
0	1750	85476.748920330524	8203.9187751715
0	1761	85865.685629462841	4346.0908059407
0	1766	86027.310768783448	5263.3181221375
0	1771	86030.095798133455	3690.9310577543
0	1797	87458.749405769391	3712.0853973136
0	1805	87728.090306857497	2309.1417851411
0	1813	88126.782016161939	9362.0653112358
0	1848	89857.616029580772	3536.1994324271
0	1872	90469.236038237067	721.00324880655
0	1883	90837.329579444902	2398.1051231001
0	1907	92097.657124037062	5881.7921318849
0	1928	92331.732094141537	7266.8555597295
0	1933	92407.746673868952	2735.536189514
0	1939	92875.131771969753	4220.1225415302
0	1960	94843.011301266754	5008.6638640658
0	1974	95383.892659935148	3636.9970913124
0	1999	96743.104838516266	5927.123143846
0	2022	99485.895693479652	3953.486200103
0	2035	99716.891197992058	1214.5016045302
0	2046	100154.486063147382	6635.1350066636
0	2052	100409.374124385985	8743.3787498604
0	2117	103523.167671279847	4252.3872697263
0	2129	104079.969515982845	9833.8851264162
0	2142	104378.520295092044	2065.7015744282
0	2148	104621.510959432575	2989.212164048
0	2165	105154.153402585256	9155.2179725046
0	2216	108001.596082784995	5180.3378834659
0	2236	108754.598989546075	6899.201872325
0	2244	108772.949398525568	8099.909969468
0	2250	109198.206231636862	5655.4916763025
0	2258	109623.379773623759	4599.860110235
0	2263	109705.866599022469	2737.7987956925
0	2269	109746.512826640333	8511.0598787798
0	2274	109754.984528276501	3325.4503038167
0	2279	110290.709473218698	5627.1792599843
0	2296	111287.229155630341	3581.6411413628
0	2326	113435.63990072446	8464.3195282621
0	2339	113567.414057649817	1617.6206312557
0	2365	114941.520995679968	1531.5858614408
0	2390	115861.149613302427	3541.027331927
0	2409	116199.762554274767	1047.291108023
0	2430	117808.714514944608	6807.7904408106
0	2446	118179.886488314573	4146.0584706982
0	2457	118308.135047472545	2380.1217520577
0	2465	118341.393484754179	4567.1059215024
0	2480	119285.400840336555	3192.0469776904
0	2494	120022.543036385246	2354.9789055515
0	2509	120878.993425766309	5625.3712431836
0	2545	122377.035581691352	3245.1717804784
0	2573	123551.590034315057	3070.1873200732
0	2584	124146.204431145508	6223.7880715708
0	2651	126506.737720428611	5878.9379373406
0	2659	126849.752480519445	4558.9997556059
0	2668	127076.974668088034	4642.8878650945
0	2679	127654.718708395232	6077.7333845831
0	2696	127809.823068974773	4000.4961594057
0	2701	127855.590994360678	2660.554471802
0	2709	127997.115603048754	4184.1147887271
0	2720	128398.253070564154	3225.7368005503
0	2731	129208.155562678459	2879.0882842467
0	2736	129300.265723156205	3645.8145788191
0	2742	129472.903975871932	4740.004773143
0	2751	130648.59831744597	9991.7720105094
0	2788	134688.007298094823	7431.3851904658
0	2804	134949.304864508052	6943.1448677537
0	2813	135691.685672030827	2266.1839403423
0	2851	138539.199744159337	4372.3011143658
0	2856	138748.363995966046	5105.1686212269
0	2910	140536.405213502746	5790.1402831761
0	2921	141303.843493255368	4834.4212277849
0	2927	141758.04943020432	4203.7816319879
0	2935	141842.939875751912	2851.6535694856
0	2940	142070.45014983955	1951.1646636346
0	2953	143545.409232472542	4728.3299442278
0	2965	144135.181662031117	4310.0766908677
0	2979	145477.072164036951	9157.1203846823
0	3014	147169.621796550102	3126.6658409844
0	3129	151706.469855762257	11434.648484177
0	3135	151717.986213618438	6703.424844349
0	3152	152379.558338337198	5566.9349258864
0	3167	152555.555474578571	4878.295778097
0	3173	152784.434622083239	6859.3988596334
0	3184	152990.559102692014	4528.3896570155
0	3209	153880.801890258488	7567.0749522755
0	3224	154323.993857402683	6797.0831400572
0	3239	155134.430044788472	4918.8521946639
0	3245	155282.074809697263	5627.2954656644
0	3263	156316.510334233977	5846.4999891772
0	3273	156530.928266778549	3732.3909646994
0	3291	157025.096355071698	5266.2740166979
0	3340	158162.903726938625	7490.6938885077
0	3345	158251.007901051487	5909.9627437889
0	3350	158366.341871454454	4435.5417289693
0	3355	158417.216018273506	4941.9775032998
0	3361	158715.611270150001	3257.459049631
0	3366	158780.564047616226	9035.1794392557
0	3374	158875.399712296215	4926.4690673199
0	3380	159517.053265700357	13926.642064297
0	3391	159812.631265613278	10526.49055629
0	3403	160458.540313483757	3035.8606181061
0	3421	160846.022833845153	3922.3265530796
0	3426	161001.176888498031	3327.8546540779
0	3435	161266.164346790465	1258.4487968693
0	3446	161976.003366546541	5030.749495588
0	3467	163563.457396209397	3204.5057647346
0	3587	169023.594814242328	12348.657669406
0	3592	169110.013309257177	7411.8308785646
0	3597	169200.957147730585	5466.4708504786
0	3602	169303.02053324244	4809.274055842
0	3613	169350.819912230099	5812.5880642713
0	3632	169741.074495710015	5521.6899076207
0	3640	169848.555320926236	6308.4099127261
0	3671	171410.077142145141	5675.4625246024
0	3677	171444.220065664622	3444.7601139226
0	3682	171581.075426877804	6659.2225274586
0	3690	171817.410767784772	3297.0677705107
0	3695	172275.370064602762	5318.8313375838
0	3719	173241.980047960293	3429.9241339296
0	3729	173374.859937557642	3021.9028225097
0	3738	174202.852991106251	4853.5495147045
0	3762	175903.91379514963	6599.7447233791
0	3775	176324.954552891753	3943.588220718
0	3807	177905.224405748851	10648.723733329
0	3844	179528.806946978652	4972.5526817326
0	3849	179570.488787426602	11813.404374904
0	3854	179754.757910547002	4186.6837904872
0	3859	179781.46119535916	1787.7253647775
0	3864	179867.284479543473	2085.486883273
0	3902	183649.256044608525	4821.2732578679
0	3929	184359.085373967002	11332.164076811
0	3934	184366.182385005966	8069.9257448453
0	3965	185376.145180643064	2452.2322603703
0	3976	186179.766838739723	5174.0045907351
0	3998	186733.468292791072	2072.5090091148
0	4015	187441.967493790281	3959.798169898
0	4032	187871.662158874267	4061.2917047263
0	4049	188556.259827008937	2174.0969055684
0	4088	190355.598001972878	13761.957724143
0	4093	190566.345877347153	3935.338963384
0	4124	191221.844820414877	6318.91012393
0	4129	191315.433899055719	3376.7232451346
0	4134	191360.325228101764	3370.5892615863
0	4207	193448.696209743723	2720.1550363027
0	4216	194052.288109751792	5857.4609866749
0	4221	194362.642344382356	3655.395835858
0	4233	194588.196548614843	7547.5004683783
0	4265	197520.531376971474	12297.730743097
0	4273	197595.844191815645	5938.5940795734
0	4284	197829.657062878599	5928.9651196871
0	4289	197833.721806764566	6471.6760118903
0	4301	198827.001857086211	18401.985888348
0	4326	199695.502432659595	9635.8815941045
0	4332	200033.431312281238	5125.779537197
0	4340	200487.552217957202	8278.3640336289
0	4345	200544.671043808747	5957.1573194379
0	4357	200676.52241763256	9114.6935609819
0	4370	201167.801788893688	8264.2078904655
0	4409	202990.185833087724	4250.7621005474
0	4414	202997.660306041134	13198.424830167
0	4419	203028.272879578619	2131.258384301
0	4427	203143.424402111144	1312.6469208627
0	4445	204070.690372157738	8776.235905384
0	4468	205252.977755079896	3573.3349159239
0	4473	205353.034043528326	4706.5264605518
0	4482	205954.429586455137	2532.2957916461
0	4487	206080.345297609443	3484.6608719357
0	4505	207697.934735520442	3042.1495047713
0	4566	211563.612481152455	12694.458091736
0	4591	212049.5748456968	4791.7080266253
0	4596	212402.496190193476	4214.8217800168
0	4601	212438.729754561678	3057.1840906454
0	4610	212678.738329900557	4634.2646386426
0	4632	214244.287841903272	2855.3415825332
0	4644	214839.995396759857	6557.7172313234
0	4668	216197.247661461122	6185.72505337
0	4686	216442.100755776398	4599.8941728948
0	4700	217071.783461291506	4493.9635915985
0	4715	218376.015877018014	2974.1722142886
0	4751	219984.68131797104	7080.7903294478
0	4768	220556.98491625189	2858.9143733221
0	4800	223641.534824773464	4968.1002701652
0	4835	225613.108918207199	9543.7059789861
0	4854	226821.630921315271	10561.088073917
0	4863	227147.449101548469	8395.6345253666
0	4882	227696.097873613406	12986.961334348
0	4938	229272.675126693299	6487.3900661578
0	4946	229419.566635111763	9285.0595563082
0	4960	229834.79031009984	7165.5275644118
0	4970	229956.720936642173	4985.7117485502
0	4978	230146.14576803963	5372.0161765758
0	4992	230679.106006913827	3061.1183201842
0	5022	232033.364489736424	14422.378191145
0	5122	235425.216108996952	11985.759133021
0	5133	235677.711661444421	8337.8793419515
0	5139	236042.386998283034	6756.7590100753
0	5144	236145.646934398768	6311.5654998582
0	5152	236254.972291438077	7948.6717044782
0	5157	236453.50066452061	9548.7432629084
0	5162	236471.41254099388	5503.633887947
0	5171	236648.278829496244	5660.8053755886
0	5191	237959.538309449537	7028.854716258
0	5208	238790.763446021756	6797.9177407251
0	5233	239767.196905865126	7903.2152413021
0	5238	239779.055118620107	11755.077579774
0	5244	240289.199127117276	9145.444820732
0	5249	240295.121938509259	7202.6634154578
0	5254	240373.088368686435	10373.809669942
0	5263	241191.642364525921	6643.8597013702
0	5276	241616.427729570661	8726.3504573241
0	5281	241633.344258101665	5119.5162476115
0	5293	242486.103472757059	14650.705999334
0	5308	243771.331285276835	6604.280434572
0	5330	244453.625161010481	11433.537592086
0	5338	244593.54920799192	11671.463408602
0	5358	245523.544913619007	7423.6015870949
0	5363	245824.938858760924	6767.7416176602
0	5375	246506.689770476431	5968.3073907961
0	5402	247398.030918791296	3335.5264366398
0	5410	247608.249595283387	5567.4318900378
0	5433	248547.221333220113	4853.5742212114
0	5532	252233.632553411675	6378.7210774545
0	5537	252304.961669339539	6130.4864220762
0	5542	252387.62791486667	7919.1518255625
0	5557	252907.142995948612	6377.4274251556
0	5562	253177.471686152929	4298.925188553
0	5567	253281.940208229792	4841.5472879758
0	5576	253739.55345913307	4309.4718552956
0	5584	253910.633924332178	4366.3120034503
0	5592	254212.612850402858	4439.4879129737
0	5597	254314.522801074329	3781.1544749016
0	5602	254526.820618095123	4668.667830862
0	5615	255506.542818489949	6113.5502657434
0	5625	255663.201964071824	6010.8313278884
0	5633	256220.878193111803	8808.130132426
0	5679	258063.818225803972	2899.6430275519
0	5704	258926.06859341569	1698.3447595176
0	5709	258938.422014071992	7735.7290220441
0	5717	259240.6929728683	2452.727945116
0	5726	259734.656130902422	2349.5619973561
0	5780	263003.69905425381	1745.7062830512
0	5800	263792.807582297085	1728.8506491777
0	5805	263998.86544779	3650.1240032647
0	5827	265388.896222112524	5484.2275457446
0	5912	268773.803894526378	10877.173557448
0	5917	268881.441195265362	6675.6520133829
0	5929	269744.967914400157	12342.743708489
0	5949	270197.571023782105	11845.299342464
0	6082	274311.268933244333	9763.3886301248
0	6094	275267.301603111842	10631.281566601
0	6124	276677.257324685258	13895.19647587
0	6129	276691.30362486131	11452.01379947
0	6135	276994.672860480541	10556.876523924
0	6140	277410.129109953268	10529.244885821
0	6151	277575.71590233989	9277.498375023
0	6165	277871.225237788614	10980.112329352
0	6170	277903.69958162885	7423.1129400654
0	6175	277955.822808043547	7774.3692258412
0	6183	278165.47089461598	7366.1074508795
0	6188	278423.593071200851	7430.3652520337
0	6197	278751.694352530244	7311.3987709622
0	6202	278794.889023984107	8559.0911947209
0	6210	279290.61516024879	10059.66173656
0	6221	279724.878456604703	9316.6513753346
0	6232	280025.036210892919	10008.044727792
0	6249	281699.88307011373	9797.3976992792
0	6264	282076.687017321424	9741.5305023005
0	6288	282692.067930239749	14882.585863214
0	6294	283052.296878709667	11655.923224981
0	6299	283143.317977099872	11527.351576024
0	6304	283183.000713327631	7511.2382871841
0	6309	283227.588235787666	8559.6511370959
0	6314	283316.700055306413	5742.4446458539
0	6322	283718.689942221904	8811.8069837385
0	6375	286383.79259642427	4438.580313184
0	6388	286905.305737145719	6940.0380353564
0	6398	286946.115299245	7879.670315445
0	6403	287062.208895208781	7209.1929679516
0	6409	287167.991541610975	3791.8606927398
0	6417	287178.315250706237	5059.8147627491
0	6430	287698.262602746259	2979.8460341317
0	6439	288110.915180979949	4182.7477899466
0	6447	288397.220549286132	3809.8194345609
0	6455	288533.854019461179	2322.2068171883
0	6492	292622.662104121726	5450.6639079523
0	6500	293052.870727278508	2075.190687885
0	6526	294369.378580588947	3630.9382063644
0	6558	296105.905977164953	9286.9850483202
0	6586	297443.400857028459	3842.1413927696
0	6594	297767.410601499301	2280.2539456744
0	6612	298552.476144821993	6563.3690713317
0	6622	298891.7033790442	4018.2905456915
0	6628	299524.959586370188	4501.4242363255
0	6637	300783.562187843644	3728.1629381486
0	6654	301571.846455746233	7815.2750908964
0	6678	303176.373411358126	2110.1033223138
0	6703	303836.065286444237	1695.482587932
0	6750	305859.081548923296	2456.0094120921
0	6756	306117.470156951852	3262.4742524811
0	6785	308571.674052868072	3453.3911100496
0	6799	308617.419957484832	1535.8821571022
0	6827	309829.720906297064	11277.278337079
0	6839	310777.958821969255	3370.3865504137
0	6850	311054.79916472787	6038.1179685168
0	6870	311627.204314557485	16161.140950605
0	6878	311774.439853590464	3234.1511205491
0	6959	314152.425345389799	5349.7088677393
0	6967	314213.457863387457	9121.4034990749
0	6972	314348.171519216923	11432.567302044
0	6980	314418.122155897919	5280.4880372734
0	7025	316209.774019821861	4534.3607314337
0	7037	316896.257158237939	13114.114994511
0	7054	317548.481616472258	5752.0808625036
0	7063	318378.685292087549	5701.268376296
0	7068	318445.458291198434	5586.2766028073
0	7073	318698.215062616127	6745.3853476308
0	7078	318766.723749502107	6946.1690966248
0	7084	319111.935185518385	5626.7952432079
0	7096	319916.191066600295	5057.2047545884
0	7109	320511.022748786738	6152.0675540165
0	7115	320817.560329200274	9835.094565907
0	7123	321223.65822038538	6108.9346654158
0	7140	321772.846415768998	9427.5888433286
0	7145	321941.968451536921	5301.7653373371
0	7153	322128.719504907029	7495.5921471914
0	7159	322361.456144048447	2992.7015189031
0	7177	324353.091056319868	3230.832626205
0	7195	326034.030371802275	2486.3516772919
0	7229	328196.701083771353	1636.4425956805
0	7259	330034.60921484532	2668.9431560382
0	7264	330077.933969208258	4917.5967616422
0	7280	330167.434444201693	1676.0199250081
0	7309	331853.255733225267	1594.6782447873
0	7314	331968.017192638123	3064.9625114628
0	7343	334076.093892907393	3979.4470732335
0	7351	334178.803194851836	1914.7426975478
0	7356	334191.429616777625	6159.682474777
0	7402	338602.9819927052	5205.3769819677
0	7413	339069.089335305398	2469.7549794339
0	7424	339434.450150804334	3289.1839997735
0	7430	339490.182638102758	8798.9484343731
0	7435	339499.37030124183	3884.9955238642
0	7469	341261.534627789165	2740.9622262662
0	7485	341845.492318503658	2053.4221462654
0	7538	343153.802813782563	2152.3118595916
0	7543	343329.122567128895	1388.085190417
0	7564	344670.822006147147	2006.5710976031
0	7577	344762.872159074107	2888.140318873
0	7589	345665.024140410321	5358.1247873881
0	7600	345993.123311995547	4560.8375622168
0	7610	346048.365967614194	3503.6330481414
0	7627	348134.365300004471	4087.6563319778
0	7637	348577.748570976612	5872.1736963119
0	7701	351497.17333470455	6986.7206367549
0	7706	351735.95691297687	2581.9822242457
0	7711	351737.575593172363	2145.5153010492
0	7719	351769.045902389669	2172.2335861833
0	7729	352007.719525637814	1836.0676833699
0	7739	353798.361077774362	5716.6442956031
0	7769	355947.888087397263	10216.313029593
0	7824	357700.433592570905	1978.5760321374
0	7835	357932.274858217652	6173.0500061142
0	7847	358567.751452616152	3681.8456183648
0	7879	360208.478120750048	9826.2911138066
0	7892	360714.900585774938	3610.1974237153
0	7906	361499.497490944445	7365.1451607736
0	7915	361850.746873709144	5587.883829391
0	7920	362078.651094259592	2019.7290692394
0	7929	362792.530886131498	4328.236343552
0	7935	363638.682187291827	7088.8782144437
0	7946	364021.844287433309	7766.1672442823
0	7951	364272.657232775787	6139.2065112119
0	7971	367025.571101782664	10166.06011712
0	7988	367833.75591949955	7296.3458183535
0	8006	369461.196802962785	3367.3617685606
0	8015	371126.624282931775	3699.8485024045
0	8083	376173.005283817581	7256.409888991
0	8089	376353.942800674487	3804.8007769463
0	8097	376701.613854252964	5431.5636333486
0	8105	376854.745563805123	2671.9007933233
0	8128	378786.389516621555	3656.7195473767
0	8145	379084.4449833682	4220.290333561
0	8162	379987.695084274634	3189.5548336026
0	8199	381679.249616703739	2864.6566972503
0	8207	382028.108407072477	1109.9478488836
0	8222	382973.249283126894	2677.3047650389
0	8242	384182.545310538666	6201.8899793209
0	8247	384192.46799397642	3103.3608493139
0	8271	386208.076281370591	3994.423032166
0	8280	386622.37027448914	3704.6698587818
0	8288	386864.914473497236	12391.91004636
0	8298	386962.395243972652	7639.4730342131
0	8319	388821.413880632605	2105.430910971
0	8333	389153.690081034491	982.59602557715
0	8354	390868.251937884957	6478.2683628409
0	8359	391063.987696462894	2419.3911627267
0	8402	393775.28575091373	1825.794945824
0	8416	394262.26732329394	2039.4647848117
0	8430	394924.56273207214	2928.6991736721
0	8439	395390.038975252966	5249.3631543779
0	8445	396011.929320175227	3372.8218899176
0	8470	397247.686159936349	845.71816421065
0	8493	398166.812054666553	4099.2967490915
0	8536	399375.674479796567	1992.1796612993
0	8548	399984.499725180876	3411.3633700803
0	8553	399993.510980498487	1897.0645069703
0	8571	401364.402166881739	3164.2710617389
0	8579	401590.175795573843	3599.6279940955
0	8628	406308.455923334241	7516.7478117345
0	8636	407135.254479100806	8297.9551454229
0	8645	407363.041933176293	3657.866134037
0	8785	413645.210867976053	11182.650042488
0	8793	413701.256331594237	9181.3900520734
0	8798	413896.219498621733	13049.768043156
0	8810	414122.607740524173	5389.6792645984
0	8827	414961.799588022069	6648.042839877
0	8832	414986.256580767996	5681.9152130081
0	8837	415135.410947801457	6033.9254345555
0	8853	416706.216064930487	8372.4013803303
0	8863	417134.055931329964	8670.4677067217
0	8875	417704.140444897187	7284.9155774681
0	8888	418119.062778791994	8396.8034527112
0	8893	418217.530056857664	10569.336162074
0	8902	418496.239305784668	7335.93995363
0	8919	419518.071851383353	7926.6132782428
0	8943	420280.522278686712	15429.612274152
0	8955	420902.511750436137	13559.050591122
0	8960	421490.757376763642	5794.6190541889
0	8965	421647.763441743535	3352.5036115956
0	8974	421881.484111497227	2851.7741433582
0	8988	422781.477120079874	8811.0131736484
0	8996	423023.607226697129	4141.1568852992
0	9025	425079.561846312945	5288.6931124101
0	9051	426141.29804363577	4300.1316540691
0	9056	426180.663698372942	16639.233511527
0	9073	427400.022353534039	2415.3205077878
0	9085	428385.482005624301	11111.110934144
0	9090	428412.027252799426	4245.0599614534
0	9111	429748.465500953079	4526.011639675
0	9142	431171.714804550789	1299.7870328403
0	9150	431448.365044565998	7863.9004907569
0	9162	432427.289780494544	3631.2650183767
0	9185	434158.30939420521	2173.8145709092
0	9256	438978.220230039046	6376.9804348868
0	9261	439023.602945778287	9511.3490649802
0	9272	439201.457499967736	4459.7486438946
0	9294	440424.868303578354	14122.4664327
0	9303	440583.809877461855	2971.8814508931
0	9320	441207.615314574542	5362.2436213191
0	9350	441990.79448960013	5717.0154891188
0	9359	442534.471632166305	6322.9944108993
0	9364	442559.500551301645	5460.7640716377
0	9372	442841.987509033639	2058.6832025652
0	9382	443065.378010768579	3878.443768337
0	9387	443140.562950568013	4073.1251460522
0	9398	445048.230938442644	3851.586123066
0	9416	447277.063210592597	6492.9053139622
0	9425	447829.234854189804	5060.5177874787
0	9445	448869.531708353594	2038.7852692098
0	9451	449352.98667110778	19419.019617035
0	9479	450846.153219655567	2640.2567618312
0	9504	451636.396131417622	1802.291110829
0	9527	452822.822634334091	1231.9956508261
0	9539	453645.972175929556	2931.1991595158
0	9547	454193.529144259282	3570.6192118265
0	9581	455375.246461027802	4115.7886714633
0	9586	455399.079189098741	1348.5639853486
0	9598	456646.205364750738	4581.0606261657
0	9615	460104.674469823719	5559.14104071
0	9624	460524.264865670559	6145.582821763
0	9657	463184.141870788163	2075.4788715843
0	9667	463589.136702614605	7146.1249690589
0	9699	465233.145348274973	1257.968422747
0	9709	465408.380530887996	3677.2612794445
0	9739	467491.004644608595	4457.7507733732
0	9749	468896.154369184889	2632.5721531805
0	9754	469087.773966194712	3909.5920557777
0	9841	472193.075501268477	7610.3329080795
0	9858	472708.486939001146	6434.4859587948
0	9883	473486.164481262873	3258.8483698015
0	9891	473835.390321915547	4259.926445
0	9896	473941.555108012615	3078.10774207
0	9902	474132.62438993285	3320.3288919303
0	9907	474365.641941578692	4838.2641629282
0	9915	474411.386971662484	3012.5096836827
0	9932	475696.552174804375	3517.2780626284
0	9950	476599.092059093799	3842.9784869114
0	9956	477726.376373569843	5379.8023349144
0	9980	478209.549388131957	8240.6999131399
0	9988	478243.92664193864	2661.8351230598
0	9997	478792.414817093085	4417.934240248
0	10043	480670.389602342628	2714.2506442029
0	10059	481375.832405577122	2482.6176759301
0	10064	481491.566516888736	11115.063039529
0	10085	482997.621715422528	5228.2896278442
0	10099	483440.843027211427	2838.2831967797
0	10115	484164.212243288154	4906.2491003578
0	10125	485883.996829844017	2896.7079097277
0	10135	486950.111324152028	7150.789629451
0	10258	493117.387347937194	4921.7575118536
0	10288	495023.15848287333	14696.453136018
0	10293	495118.871740980707	11610.797573383
0	10298	495419.632555965754	6540.9299944208
0	10304	495553.271540933016	13877.895742596
0	10309	495934.154728244579	6590.6069831568
0	10320	496097.257713589724	5658.599605297
0	10347	496645.45380008136	6903.226223387
0	10352	496844.88669752814	6896.9086908736
0	10357	496912.944817134664	4300.6727202367
0	10369	497453.124386179793	4691.8817304081
0	10388	497864.412318387414	1804.0916549874
0	10402	498380.027481811099	7303.6270875901
0	10407	498433.869922501705	7615.0428991925
0	10415	498763.992055628295	2530.3744694796
0	10420	498836.504900341819	1629.8301253866
0	10458	501243.390635618322	8239.1453468475
0	10467	501495.433253779896	11385.393718303
0	10472	501645.918251220128	1762.7396578633
0	10480	501933.25650614983	5838.549226012
0	10500	503145.40883649513	2632.4205031617
0	10506	503240.831541300051	5393.9434203661
0	10531	504243.655341219521	636.04464240585
0	10575	507832.767675220748	3137.5857034769
0	10583	507859.190176028251	15155.987167536
0	10651	510679.512146647399	10085.184654317
0	10656	510788.138047059716	5783.9003333782
0	10668	510976.448520792647	7201.6151571584
0	10681	511385.446276596485	2577.7484135835
0	10686	511526.300489813337	9280.6717130174
0	10694	511597.405942486076	6607.7075727054
0	10699	511675.836181966937	1585.3321249403
0	10708	512146.475000672694	2740.9353673617
0	10737	513452.407437279737	4524.7290724045
0	10756	514039.360533065645	3099.1803330655
0	10766	514282.637133450526	4518.1783069642
0	10787	515478.414737066996	2498.8588281802
0	10803	515976.065380844753	3815.8310708757
0	10827	517418.417007521247	4753.3855616317
0	10840	517657.646245739869	3066.3863231887
0	10846	517835.647310234566	3863.3943081891
0	10854	517963.870908616616	8109.4086864973
0	10862	518153.936639583968	13426.924925037
0	10892	519065.673127277582	3217.4637574688
0	10940	520679.355271813406	3626.6831048773
0	10949	521204.153936548601	5725.7533607465
0	10954	521204.532941207437	2254.167805431
0	10959	521341.587585712188	1878.901456099
0	10967	521849.064454534805	3850.8843719247
0	10992	522529.517921578829	2404.9397167253
0	11009	523163.66718360747	4090.3069009321
0	11026	523842.406456957897	1640.8593895288
0	11034	524082.092104435826	1453.0486375985
0	11052	526039.854914227966	6954.03008904
0	11071	528016.112802779531	2990.4757376683
0	11079	528363.630655827329	4978.1125981706
0	11091	529460.87036348003	7514.7217588895
0	11108	530371.854765953771	3891.4126030035
0	11178	534083.962900141667	3986.0822961511
0	11204	535503.451477671263	4577.715038529
0	11244	536822.922783325271	17947.947346122
0	11264	537213.068062288267	6117.6089040287
0	11270	537865.643417128854	8483.4069478404
0	11276	538504.199254146015	6537.9175989681
0	11287	539031.066633594423	7522.6087978714
0	11295	539131.254480490795	5139.3367307507
0	11346	541177.869890823047	8080.7066135313
0	11354	541688.543536340678	6570.1599849207
0	11359	541716.234473700055	6244.8078086801
0	11369	542718.816470926135	6339.0942834622
0	11382	543234.454009403668	4065.8796485112
0	11387	543372.939878388221	6948.5062831261
0	11396	543463.439213544495	7069.4015983477
0	11409	543868.229917293127	8127.2677236816
0	11421	544496.069032776937	3812.8038363454
0	11433	545459.16608950554	5223.6384475691
0	11443	545619.016595689033	6034.1455094428
0	11451	545959.082965734556	2502.0329965158
0	11460	546243.81103007846	7136.4625515973
0	11472	547513.407591475051	5169.571831848
0	11495	548905.167134922138	2220.7436217596
0	11520	550206.82427349549	1199.3351382554
0	11533	551888.85307981352	6877.0775867495
0	11539	552176.808999736748	4018.0456183975
0	11593	555142.886805714113	1877.6496514697
0	11598	555224.662647809934	517.72571301267
0	11617	557532.711476516055	3717.2925747469
0	11633	557693.487455673009	2748.7273790626
0	11641	557869.880212318091	5062.1293734262
0	11676	560181.041206254111	4567.2447900837
0	11691	561233.652761028276	1382.7414111867
0	11702	561462.930435348213	12243.943764125
0	11728	563528.99719808321	3638.8108138781
0	11740	564434.336530959044	3364.360341235
0	11753	564670.914241568711	6403.8869839469
0	11778	565114.639567417894	2500.2458224951
0	11793	566256.843582388777	1580.9857318197
0	11823	567362.532594041381	9802.2520274947
0	11832	567690.369169779038	1484.2694238854
0	11841	568598.200055083279	3011.2543111515
0	11863	569794.223680356429	5037.6271501891
0	11871	569948.33613360275	1717.2685871907
0	11884	570885.737522293225	6498.72111158
0	11900	571518.096690513229	4688.0552443108
0	11926	573351.625654669143	2483.9051569461
0	11931	573376.507584315513	1982.0844314031
0	11951	574104.327324240398	11668.420927501
0	11965	575012.712421465344	5901.7739130596
0	11974	575686.511462831269	2004.3686922512
0	12000	577334.792037755044	5684.6234845166
0	12018	578622.28899475194	2306.8910480949
0	12032	579135.081914101484	5121.085561161
0	12049	579461.270804125674	3398.0084344912
0	12071	581040.554035469295	2060.196437772
0	12107	583734.499926476339	4291.4524246389
0	12112	584557.271215534114	3881.7096965073
0	12121	584863.579070733378	6888.9321154338
0	12130	585539.33470231346	3732.5136690054
0	12166	589691.982815863979	999.43421141964
0	12175	589845.431784572992	6980.6279964947
0	12204	591626.627722692459	2652.1171671339
0	12209	591852.000865260453	12490.418480683
0	12260	594763.185297740035	4895.3249386289
0	12277	595673.543241901305	2836.814733236
0	12286	596315.445442454676	3558.0676500501
0	12294	596397.13091063257	10740.175394374
0	12311	596678.023993696981	3286.0533266096
0	12319	597021.643865168103	2145.2305813418
0	12337	598621.672810935161	4963.8068024434
0	12370	601117.279819502363	11240.769985658
0	12396	601544.459033967956	8939.5782258813
0	12411	602445.123480512263	1520.8034331502
0	12433	602825.078110827578	3000.1024043601
0	12444	603269.794852342799	4239.356476979
0	12450	603500.766264922908	6037.0564790429
0	12455	603698.144166197516	7261.051226467
0	12463	604253.169525398874	3373.2782914796
0	12472	604617.964259086681	3447.1660606644
0	12481	605972.120721223517	3648.8417704438
0	12519	608227.500102166208	667.68361054467
0	12648	613949.171631867204	7799.8170640383
0	12674	614826.766354507106	12421.612585364
0	12684	615015.902757443854	6581.0819342718
0	12689	615083.032294462585	5368.8118588314
0	12697	615409.243339534928	6913.1813431697
0	12706	615714.362247257291	7811.7440511011
0	12711	615803.492029481281	6129.5054413965
0	12716	616204.765599946785	7841.2024690123
0	12724	616250.657194594662	3430.0998314418
0	12735	616411.122585316433	4650.7614595964
0	12740	616597.064085699279	3620.6180883022
0	12751	617137.022608083226	9500.3672097255
0	12771	618451.914072680931	6782.4934015564
0	12782	618848.74510116467	7263.4082102547
0	12804	619368.860221331619	2623.4605870611
0	12812	619473.955575178907	4952.572549369
0	12837	620237.126297448435	3406.5337962641
0	12842	620377.644481819329	1633.3275583733
0	12851	620801.437125100114	10066.272369449
0	12862	621373.149061505038	2872.5438885601
0	12871	621517.678435782369	5304.6454852227
0	12876	621810.79607421123	7945.3780148743
0	12941	624733.871611987779	1936.757987793
0	12954	625777.50668739764	2321.8075865779
0	12972	626000.998964280165	3812.9997651807
0	12977	626383.672298136547	3705.3853535985
0	12997	627261.916621357784	1769.2251338917
0	13012	627621.502288075183	8173.8905507519
0	13036	628565.372371253782	5892.2157487282
0	13053	629728.397064762012	4197.7254863176
0	13062	630346.771226428598	3016.0576382175
0	13071	631309.94520000482	3563.7987288392
0	13080	631983.175799814543	5544.1834941282
0	13101	633780.688769804764	9697.7873708218
0	13110	634391.8569001452	5805.4805870308
0	13149	636600.501129607729	2484.5414843444
0	13170	637741.468961999259	5342.7373607069
0	13186	638146.346157083544	644.36545567563
0	13201	639072.350190657043	19460.534527799
0	13211	639324.236783263413	3867.0112346847
0	13223	639883.767125851702	12353.382701004
0	13243	641761.185717108797	6781.4491889256
0	13267	643245.058378098492	3628.9295960987
0	13332	645701.985070989607	3514.4968395243
0	13340	646282.128862133179	8100.3627304154
0	13349	646424.936668473209	3805.6343629324
0	13359	646867.303611504499	12022.803943412
0	13367	647152.418797742136	4185.7479111313
0	13376	647210.677839348831	2724.2027163352
0	13384	647404.255990458381	7680.8331050491
0	13392	647617.926000761244	3430.7214174715
0	13404	648715.554114028416	4144.9541434974
0	13420	648896.939804739778	11201.180763402
0	13437	650297.032665884862	3935.7559218237
0	13473	652867.468980953796	2933.1173777765
0	13481	652955.757189366264	4622.4234160148
0	13487	653181.657448551615	8086.0826706658
0	13492	653343.481885618745	4673.9080175521
0	13497	653560.871606487205	2674.8069169356
0	13544	656915.330764314773	2173.0604261554
0	13552	657260.212372454185	2234.711517634
0	13575	658363.972086858455	6797.4256017864
0	13584	659584.769208532998	4386.3530871898
0	13614	661991.363374509928	610.8324293264
0	13644	662841.086964809409	6692.4081299648
0	13655	663174.283918480769	1656.9437864826
0	13697	664834.391554904547	2845.6435584569
0	13702	664936.55271862581	1639.8234263893
0	13711	665302.630147849389	8194.7596632691
0	13749	667143.563322234273	4196.6969078806
0	13781	668128.923513329632	4655.8758255611
0	13792	668380.942084157668	1661.9358403927
0	13797	668420.354493926701	1568.7979174876
0	13803	668738.881699059977	2010.5059059276
0	13865	670872.279716218871	1922.0443363568
0	13871	671165.142746151442	9012.0352429477
0	13876	671571.870722707256	9488.6702327668
0	13888	672278.05342462339	8393.1972900418
0	13893	672286.653391592618	5272.3143256175
0	13898	672723.903790178161	3117.2188264018
0	13903	672746.027819563672	6699.8622684375
0	13912	673101.328636014321	15505.178420849
0	13920	673412.111186820086	3284.3100465622
0	13929	674005.127781111106	4496.2526452643
0	13963	675776.736008282699	782.08827463262
0	13980	676858.801125400569	2790.7263432831
0	13997	677396.422342742949	2231.0864742176
0	14005	677467.121444676294	6957.7603053387
0	14033	678565.203909824589	1277.4448996748
0	14047	679016.945054507851	13144.099665176
0	14074	681114.137372021943	2641.9621605706
0	14104	681881.182239628875	4065.3307994292
0	14109	682245.715885888492	4646.2053609197
0	14114	682246.066985037182	1442.0864728778
0	14126	682425.518395595291	1557.2879778173
0	14146	683296.030626606787	7170.0466954472
0	14173	684117.673388298857	2977.792258287
0	14181	684259.337758121529	1883.2768216422
0	14317	690389.787150053073	6986.7504248327
0	14336	691451.734663019323	12428.994397098
0	14342	691794.599874766836	9102.218990228
0	14369	693104.894433064909	8652.9437644698
0	14401	694082.922458097227	9115.4450370262
0	14406	694191.446126582288	8589.8470691365
0	14418	694501.389355395674	10054.862089487
0	14434	695488.56485585482	9058.9833842813
0	14442	695630.69990112305	8384.4318315328
0	14478	696070.798984543728	12402.772257304
0	14486	696166.818307417977	8084.4069166763
0	14494	696416.686710424868	7188.999871252
0	14519	697897.744340559176	7986.9630712459
0	14605	700697.026799017755	12106.817700036
0	14620	700972.591906171225	12168.623507487
0	14632	701418.200112692308	9051.8585559427
0	14700	704815.930960315454	12375.343523572
0	14722	706108.291992467745	11709.862018132
0	14734	707046.905807136593	17033.304775639
0	14745	707881.801532698712	12339.817431287
0	14754	708269.914594138884	12448.577789354
0	14765	708547.357439597467	14063.286695429
0	14789	709523.827023666694	16850.129736912
0	14801	710029.484859593464	17090.801854415
0	14818	710911.983776128316	13356.977312683
0	14823	711015.470639730997	14304.551146394
0	14828	711065.503852385752	14516.959061619
0	14843	711511.967482476042	11327.351664747
0	14854	712346.751077602011	13454.186929014
0	14862	712466.030498497504	13934.59453401
0	14875	712841.49120206774	13283.93582928
0	14886	713226.482173541355	12083.752863498
0	14891	713456.918185041372	15817.663797539
0	14896	713870.155398888328	17942.036259928
0	14911	714194.551521108588	14642.959788819
0	14941	715619.854830440116	15269.137632222
0	14966	716786.954358031653	14597.53773793
0	15041	719325.820230335479	18047.260801044
0	15052	719437.528943967621	20589.057578331
0	15070	719712.269413781069	16264.458284145
0	15090	720786.673885247969	16067.065737374
0	15095	720819.499745483888	12468.200724858
0	15104	721416.830932401076	12332.725939573
0	15109	721470.494010257918	36022.240491744
0	15118	722085.957645015952	13585.05286064
0	15141	722831.089386760577	12980.997091364
0	15146	723006.850839194619	10572.161570285
0	15151	723205.228121875491	9296.5485771681
0	15160	723790.206140738705	12683.647182648
0	15169	724757.010070741981	19116.137033626
0	15187	726027.503289989624	11209.606875306
0	15220	727298.614768651766	10970.465456478
0	15225	727461.189448664912	13380.478766993
0	15230	727639.701160837603	11937.929807815
0	15236	727932.563773606706	21100.376366075
0	15247	728453.599348359287	12117.522720137
0	15258	728618.009047663032	9286.8813990588
0	15263	728643.138942446113	15809.490258649
0	15268	728742.237784193833	9368.0243197071
0	15273	728833.130892285194	11462.127898996
0	15279	729493.389088433244	13042.587883886
0	15284	729577.906592370904	11764.510934998
0	15295	729997.39931200682	10322.580544613
0	15306	730447.828076304946	12953.467085544
0	15311	730569.995453658219	14655.573344572
0	15316	730572.464734253872	9027.5768559576
0	15331	731333.843008877311	5998.0593478
0	15384	732729.644453266596	8201.8554203159
0	15450	736415.500455032397	10800.691169385
0	15455	736444.341510926914	8025.126737536
0	15466	736610.635089248606	10557.046962858
0	15479	736984.285597383853	7045.9375773554
0	15485	737361.826568508217	5860.8322264221
0	15490	737423.014027059667	6110.8025353276
0	15495	737738.250464670853	6756.5465078857
0	15504	738205.009906875507	5828.5579469435
0	15509	738290.245980822753	6712.068639719
0	15514	738654.276234566866	5639.7335297609
0	15520	738963.328325827725	6090.2277491454
0	15525	739134.050733708783	6627.834158392
0	15544	739722.045498018861	4207.2391935812
0	15564	740302.175751835407	5040.147897063
0	15581	740687.673537898624	4100.9107731505
0	15589	740920.621682696213	8267.5798811982
0	15611	741706.231411051908	2025.8049415569
0	15634	743528.08157885365	2808.2597509899
0	15651	744770.97109373099	3779.0096091323
0	15683	745858.657291795118	6502.5243939233
0	15695	746605.028114376224	4930.7665795307
0	15700	746983.227694495342	3113.755603738
0	15705	747088.377958817665	2298.0177630658
0	15710	747224.005901330086	7336.5108727822
0	15737	749346.561062064964	4467.1315772862
0	15745	749705.673539212262	1894.6910834891
0	15803	751453.200722062351	451.4595048535
0	15820	752158.941801510331	10155.49249377
0	15832	752865.731002761818	2460.2084016914
0	15853	753757.687329571531	2835.5710611309
0	15908	755575.01508459804	7069.0035342721
0	15918	755833.207412075721	4956.1727680367
0	15924	756047.766949620826	1671.7573748969
0	15932	756513.416080970863	6703.2568958566
0	15954	757128.855051265141	3559.0929742006
0	15962	757483.806082060574	6428.9476124604
0	15997	758896.565056358814	5377.7515258478
0	16012	758980.21711033413	2287.7003281821
0	16033	759555.841357091669	1707.626112477
0	16038	759812.595591916484	4279.1577862318
0	16043	759846.089130371202	6601.5471077617
0	16048	759851.611597593415	1748.1314766795
0	16053	759949.002157851326	8077.8074040465
0	16068	760775.753282315446	4422.0552580586
0	16145	764388.528323138913	11413.037586071
0	16156	765306.207609395077	6740.564191038
0	16165	765457.173626435958	10735.431861744
0	16199	766887.939872733449	8163.338293916
0	16209	767030.437233038401	6295.3229485331
0	16224	767639.373090226141	6037.5683441211
0	16270	769313.166146964112	7413.3589240686
0	16301	770313.017236025485	8356.3885457553
0	16333	771419.527278641347	6086.6679590348
0	16338	771419.660216507104	7622.0888009123
0	16343	771430.037603294929	9851.4002450562
0	16355	772297.900494479832	9108.9024821322
0	16366	772647.689391698014	8808.0464281739
0	16374	773039.970939966321	6838.5565805653
0	16380	773203.850387277787	5991.6455351101
0	16385	773556.266460092352	5453.4986982432
0	16390	773578.343635647196	4601.9683611327
0	16398	773841.549423152551	3655.0515049126
0	16404	774098.379371651222	3900.0223124889
0	16409	774377.763849052259	7566.2611863996
0	16417	774492.725890624184	7296.5587627847
0	16434	775344.982341383927	6040.332644766
0	16443	776142.70287679378	5839.1507112508
0	16476	778303.195015531977	6302.5884081618
0	16534	780125.995152235651	4064.71329431
0	16539	780346.589242737305	5902.3219621246
0	16547	780534.641308854991	9630.385565647
0	16552	780554.87015808905	3641.6328877158
0	16558	780954.980302617849	3424.0116876281
0	16566	781723.639737010022	2729.7547728416
0	16575	782314.020120454652	3901.0034166372
0	16585	783808.529653488526	4609.9581603343
0	16597	784876.024747575007	6726.2320480215
0	16638	788125.316470748838	8681.0356641481
0	16657	789546.849652346781	4890.869799122
0	16690	790519.497274644518	2814.0595598803
0	16725	791723.440548582549	2303.1142844471
0	16733	791889.861990654361	1404.5052379428
0	16757	792996.856037028317	3532.4952672696
0	16762	793124.420695226294	6440.3191838872
0	16767	793145.988021386469	3733.1689767534
0	16772	793229.437244433617	2913.5133629231
0	16781	794128.861599014138	3499.2898331673
0	16807	795791.403695647549	5155.199982114
0	16824	796626.004137142187	9355.0740727099
0	16832	796800.199963113869	4961.9287463564
0	16841	797204.667727666011	2106.7300071509
0	16982	804469.108569288187	6827.5043799022
0	17000	805344.143545369986	9321.9804545201
0	17016	806094.743819387187	8023.4547863816
0	17021	806483.616316688901	7706.6669820092
0	17026	806538.297704084392	10951.21950598
0	17031	806562.351986110789	8012.5037962569
0	17037	807395.937731726314	8042.3809434778
0	17043	807539.849502316674	8157.4447619939
0	17048	807549.4425692347	5642.5382390172
0	17053	807564.098126735204	6509.9484178716
0	17071	808695.266457547958	7688.1672177877
0	17098	809501.186876026422	6851.7936599936
0	17103	809553.906737314534	10016.323071542
0	17114	809924.100040022021	1502.6500468102
0	17119	809958.485292255489	8828.8619732032
0	17128	810417.417284295003	5564.0496486518
0	17137	811340.861001280179	7908.1434936929
0	17146	812436.38625751202	3626.262257411
0	17167	813671.174096608793	4842.4124399508
0	17188	814045.782573775175	1360.2280754189
0	17209	815595.865286578671	2044.9824649068
0	17235	817649.949986830837	12874.535181607
0	17244	817969.671387507381	4156.1560195977
0	17257	818201.282973893751	3367.1116119846
0	17265	818439.109779141482	2498.7767727998
0	17285	819038.380519302573	3569.5685528534
0	17301	821344.963508047551	3589.2141122681
0	17309	821885.536697228581	3411.0225131383
0	17330	825548.66442430074	6595.5741815661
0	17347	826859.066085550084	4781.433482668
0	17401	831632.486706215857	4657.8829694572
0	17412	832036.209985214298	5615.8723991372
0	17417	832186.792914706788	4243.7256089966
0	17435	833282.447067240147	2169.7956080407
0	17487	835922.744806670953	3094.0479586121
0	17497	836429.013794514844	6576.1932857934
0	17510	837445.793374388243	2759.6509761222
0	17566	840848.441461585739	11386.364104627
0	17578	841405.950592445181	7259.0824176969
0	17591	841647.183106846653	6912.8129346494
0	17597	841786.503703727315	2613.3143918668
0	17605	841899.607072280248	3006.6157752769
0	17625	842864.492208823393	2577.3742094668
0	17676	844697.640526252335	7311.2982653927
0	17698	845218.017647374249	10872.414759417
0	17706	845352.488754430625	4457.865738289
0	17720	845968.447571414114	3469.6277855224
0	17734	846131.698025239204	2121.0218056166
0	17739	846293.381736268863	4194.8663564398
0	17750	846489.767575236916	10727.008421436
0	17755	846508.708909446377	2987.1748105235
0	17760	846786.852205911434	3535.4004807088
0	17769	847109.055342051869	8680.569864844
0	17785	847510.703664799628	9846.9702599167
0	17790	847716.928427101613	3227.206305485
0	17796	847793.612449072132	3265.9013415097
0	17813	848611.117743963341	2723.3909740743
0	17855	852398.161899763956	5344.4487620314
0	17874	853306.822712845612	3040.5430650687
0	17894	854308.001967835267	3761.7294305307
0	17899	854325.748189582805	2226.4166064974
0	17911	855309.359963028189	3582.9790027027
0	17951	857433.000584756073	2574.1757318642
0	17962	857911.841125539822	2144.9406186998
0	17976	858552.220643088071	10748.042048214
0	18011	860654.076126415547	4452.6292647814
0	18035	861862.363673686702	6256.991485043
0	18068	863694.927375971658	5831.2826041849
0	18073	863719.434589764173	4315.6970459195
0	18085	864178.786306371933	14737.612215188
0	18095	864476.150505706541	2663.2568865844
0	18104	865005.295921331421	3700.1993200488
0	18144	866980.254940793703	8182.7818565639
0	18154	867072.549599246162	5790.4884188452
0	18174	868001.512594378793	2093.2378002011
0	18179	868138.13942447528	1254.009044728
0	18191	868724.326327022239	9010.6765649806
0	18203	869271.918893084216	4259.5850972901
0	18211	869680.400187852373	5931.4360464114
0	18216	869682.963790964398	7800.1710721285
0	18224	869834.332749154603	4140.5184159554
0	18233	870853.891610231317	17170.512283092
0	18282	873552.656563408208	3480.2599094628
0	18293	874186.608632397684	2824.0761035607
0	18307	874672.968616926317	1381.425760498
0	18319	875973.784019164398	3342.9708429866
0	18337	876996.215410919173	4933.9104246082
0	18342	877047.230843280419	9759.559682655
0	18350	877194.922745640097	3097.1518122675
0	18385	879615.259756785845	2006.4635745453
0	18393	879743.685130011156	4157.2943135135
0	18435	881734.168959366269	2555.0220438099
0	18446	881759.039236874126	1677.5818899966
0	18451	881804.072009793104	3659.3377083928
0	18474	882761.317192358007	2472.5761481191
0	18480	883303.313755056074	1861.0426994139
0	18485	883313.196980912038	3560.9357133719
0	18535	887051.365672379632	958.89866453609
0	18569	888697.973563158176	6492.2336783335
0	18575	889052.675157693308	2666.5858458593
0	18583	889266.128226972307	2293.5300131103
0	18623	891552.053856052859	6583.7135127933
0	18634	892138.20365472801	2905.2062107471
0	18639	892146.332144372564	2703.8079639172
0	18655	893907.607817512408	6826.9938737112
0	18684	895778.545999120339	5795.3467566657
0	18696	897353.652553147158	7285.5979261868
0	18722	898370.620493072945	11348.510432195
0	18727	898397.545113657242	5222.414236442
0	18735	898796.593949932193	5676.4515275129
0	18744	899290.430926832642	4996.7065038235
0	18791	901824.358541918642	5185.306873992
0	18830	903896.853590688987	18988.522150577
0	18847	905101.753261795122	7722.7863825738
0	18858	905404.67101454862	3694.4373604136
0	18869	905855.481012158318	4280.5967698967
0	18885	906923.010790753728	3831.1506316583
0	18890	907038.881705775697	5297.1267673207
0	18901	907632.761494608678	7407.661478569
0	18932	909179.556673619777	7798.7055525543
0	18937	909349.07494877264	9314.4950020044
0	18942	909373.450056668988	5076.5855860178
0	18951	909481.518615213329	2383.3154001131
0	19057	912951.285347584805	5199.1379340843
0	19065	913317.814013718445	2778.4001767706
0	19076	913664.277973710232	6366.3940712057
0	19093	913888.618453224337	3620.5377743233
0	19098	913930.349510096862	2713.5774628975
0	19103	913980.58624941062	2112.2921033329
0	19114	914333.840015499234	4875.9782192377
0	19134	915233.74491384464	2496.9163304953
0	19139	915411.847470911316	4178.8996523706
0	19151	915895.312390903283	6263.8782748547
0	19181	917125.683737950468	16819.509639386
0	19187	917254.663464354441	5699.2542069743
0	19192	917348.223440233616	5125.5902065796
0	19206	917821.173119036279	4283.8649565969
0	19225	918763.648548916674	9274.2203133114
0	19231	919084.066450903311	3300.3268332325
0	19240	919828.879564366805	5565.6793592459
0	19248	920179.711094267225	4301.4743727652
0	19284	921148.875785206992	837.31252617727
0	19298	921890.137218552286	1111.237919997
0	19307	922307.271339312467	4886.7600939831
0	19330	923485.410596639084	3124.4832901492
0	19355	924246.646800641789	6762.8519490735
0	19379	924790.635625060067	1777.3279429571
0	19390	924967.995995243305	3862.1937508755
0	19401	925226.357694579683	937.32852436196
0	19460	927664.077486451071	4304.1143487826
0	19506	929236.919846152797	6498.5854169867
0	19511	929638.625976091265	5447.0336030108
0	19524	930899.764917052952	6212.4111152927
0	19532	931376.627118246797	5691.1406849865
0	19538	932026.586805087112	6884.3319272097
0	19543	932030.103148853784	6228.9239720728
0	19548	932062.782010748475	4785.8187922052
0	19554	932638.310948609227	5064.4830800349
0	19559	932681.858422690201	5886.0929189023
0	19578	933283.631418797599	6358.2593076095
0	19583	933353.262383316282	5632.1672282656
0	19604	934682.569170291309	8069.9846537779
0	19613	935484.900031845158	18939.133276956
0	19638	936507.97481916503	1309.9023568327
0	19651	936800.711382663886	1017.9609182666
0	19664	938486.918900365061	4833.9942609302
0	19678	939020.922392384993	6254.3999870833
0	19707	941057.471525982721	4563.4677883979
0	19739	942929.487924494441	3340.8234883089
0	19757	944009.182303031941	5878.087432452
0	19768	944954.086995710117	4040.2995806524
0	19776	945002.170745572917	5772.1959882792
0	19820	946227.735613004525	2652.0079115556
0	19825	946258.957109450486	4894.0633430639
0	19834	946761.770768862862	1541.542513772
0	19839	946903.017168023152	1906.2635878081
0	19848	947903.942019472685	2402.2975402008
0	19857	948780.584514444637	6745.2434362091
1	1568	79336.073440487523	0
1	1580	79899.987501554934	500.85671458018
1	1602	80763.992646645912	0
1	1610	80790.896244636413	0
1	1636	81544.749178338235	178.14523813514
1	1644	81876.787454083153	380.47742357367
1	1649	81971.182919628584	451.58809610649
1	1666	82383.736634980762	44.571894601627
1	1698	84035.648024625926	288.9840161701
1	1734	85299.999777901565	235.12324348956
1	1752	85476.748920330524	57.800398614097
1	1776	86215.864992152146	0
1	1784	86368.243552351528	46.826955197852
1	1819	88439.224456344796	0
1	1827	88655.009230439592	0
1	1850	89857.616029580772	185.40554522579
1	1856	90083.69274268344	335.45995325292
1	1861	90102.112275017472	267.76483781652
1	1885	90837.329579444902	21.347884774681
1	1909	92097.657124037062	431.66174951147
1	1917	92138.74891869746	391.85335007476
1	1945	93519.351056483828	0
1	1962	94843.011301266754	596.92691170013
1	1979	95532.409493376638	0
1	1987	95998.935430080646	0
1	2006	98502.389593461904	0
1	2024	99485.895693479652	215.11529192613
1	2057	100673.039429057564	0
1	2069	101713.235682893618	477.78273503304
1	2081	102120.914894822234	488.61609943765
1	2089	102171.517653759928	316.12053653886
1	2097	102445.823616476063	133.00489581224
1	2106	103241.614314116229	420.35611479716
1	2131	104079.969515982845	537.25496064852
1	2167	105154.153402585256	490.62318935085
1	2173	106112.338436868818	1141.0180644065
1	2185	106764.050168107356	1740.5305047186
1	2190	106935.034225508471	505.50000104865
1	2198	107118.758320939993	150.69051761005
1	2218	108001.596082784995	296.00806851742
1	2285	111000.924074133987	0
1	2302	111949.793426394152	0
1	2311	112320.122281375453	0
1	2328	113435.63990072446	25.704766485275
1	2344	113774.287563251784	0
1	2353	114137.307207791211	103.47919017488
1	2370	115152.47144625175	0
1	2378	115253.622182582756	0
1	2395	115928.013295414811	0
1	2411	116199.762554274767	106.4086916286
1	2432	117808.714514944608	141.15038411085
1	2448	118179.886488314573	257.4701287399
1	2482	119285.400840336555	153.53703912364
1	2511	120878.993425766309	397.59071152442
1	2516	120917.168447733041	289.36866464508
1	2521	121037.741450298087	380.91514336156
1	2547	122377.035581691352	800.05025787921
1	2559	123208.484024133535	917.73129921994
1	2564	123393.326535388309	959.23973239482
1	2586	124146.204431145508	336.87752157644
1	2595	124666.169392426203	853.16857810455
1	2616	125396.801931079613	663.90272835064
1	2624	125686.63181607082	514.11554605698
1	2629	125984.225286583736	789.18876402505
1	2638	126439.686062558204	785.23491822105
1	2643	126452.632450503374	123.56517207161
1	2681	127654.718708395232	398.09660076625
1	2722	128398.253070564154	392.09307380979
1	2759	133425.501731688569	0
1	2768	133821.497154225239	178.30177948611
1	2776	134166.898629793543	0
1	2793	134746.264930326617	0
1	2819	136319.951779354613	0
1	2830	136684.594816260904	215.17255079039
1	2842	137585.782704779854	31.514906563419
1	2861	138817.079288244709	0
1	2870	139250.723181879186	259.4368756129
1	2885	140117.597406534809	292.49243537144
1	2893	140152.575600785132	33.290114580165
1	2912	140536.405213502746	264.58384191773
1	2967	144135.181662031117	92.225706465418
1	2981	145477.072164036951	462.51079476752
1	2989	145712.272475402324	121.86127399899
1	3016	147169.621796550102	1244.5860341003
1	3021	147202.459107900347	888.73216991737
1	3026	147358.932576095934	546.3091636451
1	3041	148218.622699090754	691.71198174525
1	3047	148383.399600536075	706.13990405449
1	3058	148730.027602413964	267.85815673744
1	3067	149303.916635096552	17.775925773331
1	3088	150441.604489543255	786.82514551044
1	3103	151065.221277169066	1319.8366688085
1	3108	151139.258554826153	923.68070470154
1	3113	151155.454299434815	685.44395437804
1	3121	151444.476115883419	772.26627745252
1	3154	152379.558338337198	620.73599996338
1	3159	152394.452182965946	53.407025703397
1	3186	152990.559102692014	192.02180061286
1	3198	153626.860973532593	151.62245855893
1	3226	154323.993857402683	393.19371491752
1	3231	154593.209901392164	644.27925641584
1	3265	156316.510334233977	858.35811371494
1	3293	157025.096355071698	350.15921023551
1	3298	157154.978240008933	231.28195924339
1	3319	157861.453804015326	916.19993305678
1	3324	157904.802343358949	482.1226479813
1	3332	158007.346398969741	334.02416454965
1	3405	160458.540313483757	450.82476356257
1	3410	160581.488385448233	222.53675397343
1	3448	161976.003366546541	277.82093585398
1	3469	163563.457396209397	25.225548250614
1	3484	164496.527693085652	956.38228488551
1	3497	165845.898332669571	2111.4120354176
1	3509	166317.055508216328	2097.670920127
1	3514	166816.154923788731	2322.4084463883
1	3526	167167.980141952172	2246.127242533
1	3531	167231.918518120698	1497.303900578
1	3539	167305.391832570986	348.853105552
1	3551	168086.88626036373	830.38558794411
1	3559	168519.498941649345	762.41452912653
1	3567	168553.068402346669	553.6084506046
1	3579	168943.848883065364	423.50588579126
1	3615	169350.819912230099	46.650840459552
1	3620	169638.57760795101	289.27413154923
1	3642	169848.555320926236	36.499406895573
1	3650	170352.957115047924	0
1	3701	172381.366332173762	0
1	3721	173241.980047960293	215.05875080418
1	3743	174556.254265246082	0
1	3764	175903.91379514963	335.83967508987
1	3777	176324.954552891753	28.697912731045
1	3786	176593.640277829787	0
1	3809	177905.224405748851	123.42680947842
1	3818	178629.2000886289	635.46425804723
1	3830	179152.846774412324	324.86398767171
1	3870	180425.015968738179	0
1	3879	181005.762248004634	0
1	3904	183649.256044608525	725.34312433578
1	3912	183840.110120709097	357.94079681679
1	3917	183893.05458515094	82.684131003
1	3939	184660.959283676248	0
1	3950	184946.40655373051	43.471857245627
1	3967	185376.145180643064	153.34454676909
1	3981	186382.162921440549	0
1	4000	186733.468292791072	102.46137882794
1	4017	187441.967493790281	401.27141355377
1	4051	188556.259827008937	617.5491730878
1	4058	189446.206597159325	1456.4706306439
1	4063	189772.848352955774	1578.0212298789
1	4071	189973.439188745485	174.20371287182
1	4079	190240.487758998029	180.86692044292
1	4098	190707.246508524317	0
1	4106	190782.705222601389	54.16404916036
1	4139	191362.045794874302	0
1	4147	191561.828856650665	0
1	4167	191793.131312670831	135.8812004286
1	4179	192080.998379762903	180.30643657138
1	4187	192699.030633031475	489.84244870314
1	4196	193062.373332233401	158.77943380517
1	4235	194588.196548614843	0.682824244037
1	4247	196250.393669056492	1342.7418939723
1	4253	196739.178551607546	1444.7240848338
1	4303	198827.001857086211	87.578124545903
1	4312	199129.187299204582	260.03290978764
1	4359	200676.52241763256	30.014834656021
1	4372	201167.801788893688	270.7872936161
1	4385	202314.8162025603	635.17336340429
1	4393	202659.344249779285	828.56676853081
1	4401	202870.262927538669	274.57850186489
1	4433	203422.13379480905	0
1	4450	204655.785230749139	0
1	4493	207257.866819071476	0
1	4510	208044.473691257957	0
1	4525	208899.973674932149	712.2992647555
1	4537	209601.606063703331	1319.3278982669
1	4546	210254.734470301607	873.18880638535
1	4551	210268.226769910767	256.70416181964
1	4568	211563.612481152455	174.66622178236
1	4580	211852.701300211446	10.494717329891
1	4612	212678.738329900557	100.91846020756
1	4620	212906.706280292426	2.815291769228
1	4646	214839.995396759857	130.85885749464
1	4670	216197.247661461122	795.40399873169
1	4675	216209.556799637577	140.15386041644
1	4688	216442.100755776398	181.5579083783
1	4717	218376.015877018014	765.02957842702
1	4725	218561.862194965808	863.79165203602
1	4737	219391.287234501544	717.85267989326
1	4743	219782.274417931686	1030.4598417499
1	4756	220134.507078803552	0
1	4802	223641.534824773464	972.27207908537
1	4808	223871.474779913199	1086.1897193777
1	4813	224420.562210593295	981.10523461705
1	4837	225613.108918207199	838.97932674337
1	4842	225878.842942713838	907.83375462184
1	4865	227147.449101548469	242.69169993622
1	4884	227696.097873613406	356.2655541205
1	4899	228089.431919277265	471.44423254763
1	4904	228125.605784904991	290.20831148236
1	4912	228327.768324762726	303.79078591635
1	4917	228436.707344340248	130.4067573804
1	4948	229419.566635111763	133.93864690408
1	4962	229834.79031009984	0.708875559303
1	4980	230146.14576803963	146.8670692953
1	5024	232033.364489736424	1102.6808965449
1	5033	232377.510435945585	1409.7317828987
1	5038	232519.7431980607	1532.269744153
1	5043	232742.027654520774	1598.2733481355
1	5064	233401.497827607236	1537.5161630442
1	5072	233692.337645839457	1699.4919405428
1	5077	233855.066547268217	964.98927502168
1	5083	234393.940808879621	1471.8550094895
1	5097	234663.461980218746	1643.3744112947
1	5105	234773.671158779279	1681.2126357278
1	5114	234871.83892768138	324.05626452564
1	5173	236648.278829496244	134.45081900606
1	5193	237959.538309449537	792.48745874475
1	5210	238790.763446021756	690.82011949762
1	5222	239637.390513744794	580.19327264402
1	5265	241191.642364525921	653.25998484559
1	5295	242486.103472757059	445.28576751152
1	5310	243771.331285276835	77.684173268167
1	5322	244370.686055180955	308.18157302942
1	5340	244593.54920799192	125.07311868778
1	5377	246506.689770476431	651.77829451926
1	5388	246612.97836529235	438.50311802899
1	5394	246962.295013525229	432.57944273218
1	5412	247608.249595283387	195.50153459762
1	5435	248547.221333220113	106.82841296608
1	5447	249194.793945726805	316.24744812689
1	5471	249788.976112709222	395.98355996263
1	5479	249959.359804896887	529.27820105938
1	5488	250718.343276651173	1174.0213557693
1	5493	250772.502693342828	1120.1320571594
1	5498	250868.778374778381	1095.6534373492
1	5510	251755.065847153127	1896.91305992
1	5515	251843.04309381677	1309.6747676441
1	5524	252084.330423233404	881.63743120552
1	5617	255506.542818489949	342.36762023787
1	5639	256787.965027752292	0
1	5648	257231.208272960395	3.484439062341
1	5656	257385.094133546318	0
1	5664	257583.667552927252	181.44334701585
1	5681	258063.818225803972	167.18788872552
1	5689	258352.27168131811	0
1	5731	259904.6686763679	0
1	5739	260348.741444525326	0
1	5748	261257.992771202653	0
1	5757	262063.9569331194	0
1	5766	262363.862458668342	158.07327678587
1	5782	263003.69905425381	221.63820543842
1	5829	265388.896222112524	841.01591899301
1	5838	265958.348262720607	1322.3282262097
1	5847	266750.264221984824	1510.974396594
1	5864	266996.84880999043	559.05247343405
1	5869	267207.364555406731	326.48033127407
1	5875	267619.544372928371	728.43146449198
1	5886	268097.759540276315	288.27747325029
1	5898	268372.990546043357	74.773018726418
1	5931	269744.967914400157	514.01449071132
1	5951	270197.571023782105	180.57954068152
1	5959	270315.469256703054	134.01567450072
1	5970	270775.274668189122	539.4768389259
1	5985	271004.297085716476	596.07000444635
1	5999	271637.230665433393	1156.6440238699
1	6004	271685.451812324809	886.08836858833
1	6010	271750.213033173878	756.9852140067
1	6024	272118.260360510235	721.88670678173
1	6032	272138.157177452405	697.86159588434
1	6044	272624.842025062644	1008.8756239869
1	6049	272718.081954014007	815.59658317949
1	6057	273339.068784776008	1003.9122697551
1	6096	275267.301603111842	599.36450442012
1	6101	275271.437936533361	364.55497804992
1	6110	276180.016844860125	508.25441871659
1	6153	277575.71590233989	1.460492887377
1	6212	279290.61516024879	224.17017644878
1	6234	280025.036210892919	172.02028363571
1	6240	280833.957403622306	868.68970183297
1	6266	282076.687017321424	131.47473408118
1	6274	282326.799934912713	208.29944695554
1	6324	283718.689942221904	342.55909335075
1	6346	284967.370378605693	1039.2029875723
1	6351	285097.559148604881	510.15803387968
1	6363	286091.233380319162	1372.8168117046
1	6377	286383.79259642427	172.14539415135
1	6390	286905.305737145719	86.384808300999
1	6419	287178.315250706237	6.317054536826
1	6463	290738.440374224528	0
1	6472	291543.852796617807	566.1727572243
1	6480	291989.10707349027	0
1	6506	293601.259464258881	0
1	6515	294069.567354804197	312.99598995437
1	6532	294873.412833352674	0
1	6540	295023.535350044703	0
1	6560	296105.905977164953	639.84261321277
1	6565	296564.530587151542	1077.3739313266
1	6574	297055.399249695088	0
1	6614	298552.476144821993	0.033575603882
1	6643	301066.270089044372	0
1	6660	302140.582698512191	0
1	6680	303176.373411358126	321.37750688741
1	6685	303242.645303120224	327.04108594696
1	6705	303836.065286444237	432.99314961302
1	6710	304014.646610699439	232.50444697285
1	6719	305016.681196211072	0
1	6731	305778.622944479462	686.56858016692
1	6739	305799.72630789837	681.44336507995
1	6762	307081.537800382638	0
1	6771	308029.143977219509	621.571705664
1	6787	308571.674052868072	31.385319826716
1	6804	308802.71647765045	0
1	6819	309611.453997599835	473.8198789753
1	6852	311054.79916472787	72.333401434574
1	6880	311774.439853590464	99.026565202293
1	6888	311816.132513353314	19.731759384705
1	6896	311873.300424975628	52.745772098313
1	6914	312549.997413854883	597.16769886955
1	6922	312683.326104610124	338.06853216977
1	6934	313084.25808421063	406.8411684191
1	6939	313238.986357920955	379.80466952981
1	6948	314071.172452844752	586.03251053423
1	6982	314418.122155897919	59.166961127722
1	6994	314727.175251421852	94.04789370619
1	7008	315164.235991983151	305.24967997123
1	7013	315169.923533618984	55.199978649398
1	7039	316896.257158237939	256.05404403816
1	7098	319916.191066600295	547.43644145495
1	7125	321223.65822038538	101.39979027055
1	7165	323547.678694510418	0
1	7183	325160.337207566075	0
1	7200	326560.258488090804	0
1	7209	327365.666058807147	0
1	7218	328031.747142000661	0
1	7235	328491.414519193635	0
1	7246	329100.023173955812	196.96849278049
1	7269	330096.646819673893	0
1	7285	330258.577488437971	0
1	7293	330691.234203729661	0
1	7319	332264.060497304015	0
1	7328	333397.605010737537	0
1	7363	335614.374777377659	0
1	7372	336145.266151030881	0
1	7380	336599.334355871493	0
1	7390	338520.572401522963	0
1	7440	339792.070172238238	0
1	7449	340482.434856638999	175.5355036168
1	7457	341001.49095419093	0
1	7474	341432.285749778703	0
1	7490	341874.73184020114	0
1	7498	341941.037376711888	0
1	7507	342544.732919472769	0
1	7515	342664.250908544021	0
1	7523	342705.57487466472	0
1	7549	344046.708968026662	0
1	7566	344670.822006147147	160.36930819746
1	7602	345993.123311995547	261.54825419112
1	7629	348134.365300004471	52.64851783322
1	7643	349153.974688731212	0
1	7651	349592.060292123204	0
1	7666	350236.392100033822	639.57978382743
1	7674	350386.669246213131	215.01740394523
1	7679	350430.391117387442	48.204110443973
1	7721	351769.045902389669	9.821050286185
1	7745	354134.352330170877	0
1	7754	354885.905834251362	0
1	7771	355947.888087397263	226.03052696377
1	7779	356255.677043150964	0
1	7791	356767.984351270502	505.1213069524
1	7802	357042.049609219539	492.2456363714
1	7810	357226.685317224702	367.17433256219
1	7816	357484.208424356928	379.50526229732
1	7849	358567.751452616152	434.30073105224
1	7854	358734.361789513553	270.06724693404
1	7881	360208.478120750048	149.55609572986
1	7894	360714.900585774938	177.49048462886
1	7959	366093.83503440221	0
1	7976	367426.775780527279	0
1	7994	368916.595394826615	0
1	8021	371270.050220904348	0
1	8030	372549.142023728165	0
1	8040	374182.84477048179	0
1	8051	374498.313718262165	25.309291125094
1	8063	375005.470398252731	141.31574844554
1	8071	375332.974901703927	203.3049324591
1	8107	376854.745563805123	56.605313133118
1	8116	377980.655331217799	0
1	8133	378814.592919453445	0
1	8150	379322.922209759567	0
1	8167	380295.944518087989	0
1	8179	381043.899576682433	125.7390184936
1	8188	381529.522917530098	440.4157728676
1	8224	382973.249283126894	759.59603392227
1	8230	383302.652117285562	384.95170157823
1	8252	384389.983575044059	0
1	8290	386864.914473497236	148.93150383559
1	8304	388171.094055457344	0
1	8321	388821.413880632605	176.81734689643
1	8339	390140.675820875071	0
1	8365	391949.490805089748	0
1	8377	392637.652433662066	641.78887526199
1	8385	392910.28524745455	687.48270897229
1	8390	393337.964482661265	698.85705240368
1	8418	394262.26732329394	194.75201771891
1	8450	396401.967995725695	0
1	8458	396735.544261780457	162.40790667985
1	8475	397383.494818497313	0
1	8495	398166.812054666553	176.2642531882
1	8503	398232.841241631144	136.39476810296
1	8508	398503.411727822386	303.28062267959
1	8517	398814.844188930048	23.136077330356
1	8525	398982.824035574275	145.52470189635
1	8559	400846.451455465277	0
1	8585	402462.560825488103	0
1	8594	403705.17579913929	0
1	8607	405110.561222173247	590.69494265241
1	8612	405408.089867528651	557.17986299434
1	8647	407363.041933176293	19.580773861931
1	8662	408141.667829381091	493.47393459717
1	8673	408345.627262741608	31.870514596551
1	8688	409269.043031977541	935.22834737739
1	8706	409940.231054193314	1476.642829585
1	8711	409974.105746793092	1241.1772708673
1	8716	410289.661287072864	1188.1757738269
1	8725	410849.679908265784	1545.3385405059
1	8730	410938.74487813519	1397.3146912894
1	8738	411259.601265120169	1537.3419390394
1	8759	412185.337738063072	1766.112870634
1	8767	412226.420832961366	1066.1214808067
1	8776	413132.437779847909	1540.9792067074
1	8812	414122.607740524173	152.14379409266
1	8855	416706.216064930487	1010.0777423557
1	8877	417704.140444897187	429.76937341689
1	8904	418496.239305784668	200.97947563674
1	8921	419518.071851383353	635.62150998539
1	8926	419570.375621853698	540.66565371465
1	8934	419801.119674473489	10.250940570655
1	8976	421881.484111497227	40.317721930556
1	9002	423584.464553809136	0
1	9010	424166.967291345995	0
1	9027	425079.561846312945	94.860000566663
1	9039	425453.162531844883	230.7086705668
1	9061	426302.401870878506	0
1	9096	428796.024762117872	0
1	9113	429748.465500953079	236.21162015498
1	9121	429871.927771710511	0
1	9130	430606.541239506368	672.57418543372
1	9164	432427.289780494544	442.79495719854
1	9172	432845.611003672702	244.37120852042
1	9191	434741.708856073151	0
1	9200	435845.371693255427	0
1	9218	436773.934002940749	562.45678167375
1	9227	437193.838600962587	920.05960048126
1	9238	437861.300493910953	762.56401424699
1	9244	438392.07246870064	780.1440421319
1	9274	439201.457499967736	134.0196954519
1	9279	439497.460198648744	310.52595621716
1	9322	441207.615314574542	424.31100810612
1	9331	441625.162071269638	841.0041746392
1	9336	441634.038314501374	437.39349912471
1	9374	442841.987509033639	73.27044232249
1	9405	446830.746439143838	0
1	9430	448205.896457824384	0
1	9456	449834.105020588576	0
1	9465	450622.909932432758	0
1	9481	450846.153219655567	131.38020324183
1	9490	451259.45778956455	0
1	9506	451636.396131417622	45.569147909646
1	9515	452065.14473858505	0
1	9549	454193.529144259282	143.01394050916
1	9564	454788.71005853034	410.02801462278
1	9570	455159.625247607646	614.09181849393
1	9600	456646.205364750738	203.19363119501
1	9629	461108.662999203897	0
1	9638	461731.119251443502	0
1	9659	463184.141870788163	150.88799955274
1	9673	463975.176925527928	0
1	9682	464582.742593188974	0
1	9701	465233.145348274973	54.963437858005
1	9715	466263.582216004355	0
1	9724	466407.704294305449	133.70331409907
1	9759	469527.377778650537	0
1	9774	470190.812125558524	615.34824864294
1	9795	470968.604238332238	999.75476334022
1	9800	471048.91031858726	821.59420712587
1	9805	471153.86000835602	777.35653099638
1	9810	471278.778064317959	466.48256631537
1	9818	471427.162235925329	563.71486998271
1	9827	471965.75912568207	566.88183770232
1	9843	472193.075501268477	13.801389092505
1	9860	472708.486939001146	361.91290034574
1	9871	473141.727537916396	385.61396573395
1	9917	474411.386971662484	36.906394817438
1	9934	475696.552174804375	114.46065592555
1	9961	477769.332087578345	0
1	9972	478110.304174496878	154.16521635711
1	10002	478893.21472964701	0
1	10011	479257.963142930363	0
1	10022	479918.716861795039	119.39516709397
1	10045	480670.389602342628	343.6842554875
1	10051	481287.4825130611	684.92268262941
1	10069	481675.375798336684	0
1	10087	482997.621715422528	10.332795306249
1	10104	483508.074167598206	0
1	10141	488195.629836083546	0
1	10150	488878.702561544977	0
1	10158	489435.738904142212	92.191159054399
1	10167	489877.46847303969	135.24089634531
1	10178	490038.601233140159	90.623226485591
1	10189	490273.585009591857	163.54547411457
1	10211	491287.318271209244	848.66016291647
1	10216	491456.485743467505	637.65872015826
1	10221	491593.27908091266	516.87868669169
1	10260	493117.387347937194	505.11525103925
1	10265	493264.635240060249	561.43223156803
1	10270	493292.531710118908	531.28905434717
1	10280	494719.679023258111	1715.4337344873
1	10322	496097.257713589724	36.937050189687
1	10327	496214.411094845874	119.70381470803
1	10336	496473.824685132761	240.20709898408
1	10371	497453.124386179793	246.44961122456
1	10390	497864.412318387414	17.524197453476
1	10427	499883.178593356877	0
1	10435	500512.988333333406	0
1	10447	500891.930541485626	297.60304915553
1	10485	502245.628776795946	0
1	10511	503607.61069881367	0
1	10519	503816.139271281665	41.305907647388
1	10536	504695.181971743898	0
1	10552	506484.70764914755	1757.6959346007
1	10557	506531.65476146918	1541.9563916885
1	10566	506853.813457038623	1849.5757433571
1	10589	508807.697863012935	0
1	10601	509410.110658379287	482.43229350407
1	10615	509846.801951971247	441.2623186603
1	10623	509885.785415126572	121.32658864022
1	10628	509989.508504821954	135.04628270268
1	10643	510630.975052521651	540.470995495
1	10670	510976.448520792647	36.268320792534
1	10713	512160.234309969033	0
1	10725	512913.761466040265	248.73002015075
1	10739	513452.407437279737	472.85152839291
1	10758	514039.360533065645	67.107531020195
1	10772	514591.259922551137	0
1	10789	515478.414737066996	0.014161264934
1	10805	515976.065380844753	127.85601103597
1	10829	517418.417007521247	365.74484058515
1	10864	518153.936639583968	155.75655697384
1	10873	518874.975437203555	0
1	10881	518965.266616065958	14.901480289491
1	10897	519073.360282675374	0
1	10912	519931.241784818002	845.41695963004
1	10917	520013.338950456652	550.65282084351
1	10925	520291.550821111378	166.97261625789
1	10972	521946.148604590496	0
1	10981	522201.547067429122	0
1	10997	522629.043466837329	0
1	11014	523385.518057656756	0
1	11040	525025.637065111278	0
1	11058	526480.442162950237	0
1	11093	529460.87036348003	78.633894191593
1	11110	530371.854765953771	273.97416196322
1	11119	530925.736439142243	0
1	11127	531190.041405869834	94.582247610229
1	11143	533057.648459730627	1549.1906240076
1	11151	533151.622388607024	1185.3407334291
1	11157	533309.538755878185	212.37547858644
1	11180	534083.962900141667	92.045150401545
1	11206	535503.451477671263	385.06792625133
1	11215	535840.524231828006	369.09756680808
1	11220	536072.499143383495	331.53694977193
1	11246	536822.922783325271	443.20059586137
1	11251	536928.89819484657	534.8605796498
1	11256	537019.927647430013	595.49405216789
1	11297	539131.254480490795	23.906002009664
1	11309	539768.738167853815	600.16380696134
1	11321	540566.207838225442	981.33675197926
1	11326	540608.785194111155	373.25755217476
1	11338	540989.146855221977	305.88165879049
1	11371	542718.816470926135	374.98071129908
1	11398	543463.439213544495	6.389244325696
1	11435	545459.16608950554	447.39059644151
1	11474	547513.407591475051	828.98407831253
1	11483	548322.509857674907	163.74647633571
1	11500	549007.489135240049	0
1	11508	549218.986671222833	0
1	11544	552807.750838891861	0
1	11553	553265.237154244373	0
1	11562	553815.418901769137	0
1	11571	554706.936934797266	0
1	11582	554946.023241685441	1.263165074988
1	11604	555613.79641617037	0
1	11622	557560.280566546642	0
1	11647	558267.027257621825	0
1	11657	559850.911349841589	0
1	11668	560113.992100364084	223.80571615899
1	11693	561233.652761028276	163.67657130426
1	11708	562435.906396739721	0
1	11716	562623.506702578783	9.112957656029
1	11742	564434.336530959044	47.320120245828
1	11758	564675.857850569082	0
1	11766	564769.709917231841	13.113387064503
1	11795	566256.843582388777	669.89783845697
1	11800	566440.887552867426	234.78780697382
1	11809	566830.041446202386	0
1	11843	568598.200055083279	367.13250867121
1	11851	569110.938508405735	0
1	11886	570885.737522293225	18.017024570227
1	11902	571518.096690513229	123.67353760082
1	11910	571650.168553238409	0
1	11937	573682.142770580043	0
1	11953	574104.327324240398	90.330971299956
1	11980	576063.262369634486	0
1	11992	576920.802153854904	605.40420719783
1	12006	577974.646955299536	0
1	12034	579135.081914101484	154.72431640423
1	12051	579461.270804125674	99.688419547808
1	12056	579616.385872719968	173.33837088253
1	12073	581040.554035469295	364.99251644249
1	12082	581806.821033308094	0
1	12091	582864.803788078271	0
1	12135	585656.955516258704	0
1	12146	588692.548604444337	0
1	12155	589060.437036609588	85.926481050992
1	12180	589867.860359111111	0
1	12188	590128.292837035673	251.78300319179
1	12215	592604.88080808667	0
1	12226	592895.619987273543	138.24219486896
1	12232	593186.450366536765	349.72185787146
1	12240	593391.970667087392	0
1	12248	593668.247901312021	10.381892820258
1	12266	594876.413283826304	0
1	12299	596437.09293973049	0
1	12325	597463.709785880029	0
1	12342	599030.438375363769	0
1	12351	599824.975706467464	0
1	12372	601117.279819502363	237.38858558307
1	12380	601194.827128428188	270.50708106613
1	12388	601511.710470495705	340.91227207346
1	12413	602445.123480512263	121.84452973259
1	12418	602516.716320352126	111.56255120941
1	12487	606149.354567828935	0
1	12496	607559.816491621541	0
1	12504	607636.655398357745	0
1	12521	608227.500102166208	324.88190601002
1	12529	608363.563130934498	0
1	12541	609146.150262332099	711.32943916006
1	12547	609464.05343021182	967.99143384654
1	12555	609673.986588084754	0
1	12563	609887.795317470537	173.57488183931
1	12572	610735.164755651287	0
1	12593	611805.399587018371	220.0626961084
1	12599	612191.187222455854	521.76655133129
1	12623	613091.205989582738	1330.8448638628
1	12628	613218.746560711089	398.18919755827
1	12633	613436.816688598646	460.37069120154
1	12650	613949.171631867204	83.753572530248
1	12676	614826.766354507106	305.38332869721
1	12726	616250.657194594662	37.624244035014
1	12753	617137.022608083226	391.62297381274
1	12762	617644.547705740194	813.95520455585
1	12784	618848.74510116467	348.13992821974
1	12793	619056.846048225857	312.52912477981
1	12814	619473.955575178907	26.34383785565
1	12825	619682.466955247169	70.65129238928
1	12881	622187.999199099437	0
1	12890	622673.156622525621	0
1	12901	622950.753838059233	272.46689352121
1	12906	622972.014694830728	174.90107063592
1	12915	623455.699100819702	0
1	12924	624082.901398982946	0
1	12956	625777.50668739764	284.8151999316
1	12961	625781.081074490909	250.40949604649
1	12982	626438.992305686324	0
1	13014	627621.502288075183	290.78869986412
1	13022	627785.215232116024	254.83080726832
1	13027	627843.349266960018	97.202795794409
1	13041	628586.376313114355	0
1	13085	632398.731601292378	0
1	13112	634391.8569001452	275.89725488184
1	13120	634844.499668092392	0
1	13128	635009.755262725446	30.018734542269
1	13137	635837.970693605444	380.74514502678
1	13155	637501.980701407916	0
1	13172	637741.468961999259	45.709920661696
1	13203	639072.350190657043	890.58405893928
1	13225	639883.767125851702	267.63834385186
1	13234	640549.299226382294	825.87634097302
1	13249	642187.488231465276	0
1	13269	643245.058378098492	625.7560725577
1	13274	643476.328939007913	509.65805239712
1	13286	644406.078403859032	218.87382056926
1	13301	644816.345966566563	329.87084355293
1	13315	645435.123079405122	864.52310887412
1	13321	645482.109490915764	386.53471302992
1	13351	646424.936668473209	63.659924412042
1	13406	648715.554114028416	382.22034067693
1	13411	648804.943513492362	135.36964542576
1	13426	649934.351603177308	0
1	13443	650886.064689551615	0
1	13452	651569.688243797655	3.141758725622
1	13503	654742.270338159345	0
1	13512	655025.500854820187	0
1	13520	655324.148009989226	125.73188864602
1	13529	656332.756583141286	184.07774829669
1	13554	657260.212372454185	152.34188787392
1	13566	658166.126350578849	569.97613541368
1	13591	661380.530945183523	0
1	13599	661517.340131998207	0
1	13616	661991.363374509928	2.615378062243
1	13627	662304.730566304731	221.53007636427
1	13635	662351.384765689262	198.27726248556
1	13657	663174.283918480769	227.41750412711
1	13665	663296.729292236513	0
1	13674	663473.047687768527	0
1	13685	664019.455157241253	134.59902265965
1	13716	665872.845389332154	0
1	13725	666046.738729401022	0.573178274892
1	13751	667143.563322234273	424.55707846933
1	13760	667912.333510340461	1183.9577172081
1	13765	667929.376376765629	1077.8198003265
1	13770	667988.821288819165	974.48222284404
1	13808	668950.235379862038	0
1	13817	669508.875135846797	0
1	13825	669606.68496377634	0
1	13846	670512.550328495961	384.74918823811
1	13854	670688.335229653428	178.97409031583
1	13934	674068.074782117462	0
1	13943	674994.647733650083	0
1	13951	675165.335868525357	0
1	13968	676125.983931159584	0
1	13986	677287.759010149786	0
1	14010	677599.510524968841	0
1	14018	677815.851440199707	0
1	14035	678565.203909824589	93.028698373237
1	14052	679022.740265921393	0
1	14076	681114.137372021943	310.15685986258
1	14084	681398.693817486273	530.46339970824
1	14093	681521.768843210948	381.88771319912
1	14128	682425.518395595291	49.457459115995
1	14148	683296.030626606787	603.64974206791
1	14156	683609.312046283589	206.27532106322
1	14164	683931.849679702367	263.8229524622
1	14186	684446.527265908537	0
1	14201	685181.504039107328	729.55337051218
1	14213	685939.444877638337	971.96745656731
1	14221	686424.829719136088	976.5762006226
1	14240	688038.985948747772	2437.386891302
1	14249	688394.011304185428	1964.4298326119
1	14260	688609.871427053809	1363.6033574636
1	14265	688683.553203296267	601.14181255462
1	14270	688714.959736945012	124.75063796338
1	14281	688935.228457568362	131.26005888391
1	14296	689686.531669193899	458.84483002106
1	14319	690389.787150053073	479.00588073981
1	14324	690665.04264692878	651.4416154311
1	14371	693104.894433064909	738.55287631534
1	14376	693386.547958567346	945.96052182433
1	14385	693576.649724954958	902.95243820031
1	14393	693660.529800865904	721.84679568789
1	14420	694501.389355395674	102.95938106011
1	14425	694670.321734116362	186.25098994826
1	14444	695630.69990112305	88.715799711634
1	14455	695924.082226461439	102.74542167702
1	14469	695982.284077894022	54.164938933421
1	14521	697897.744340559176	1349.1995497924
1	14529	698243.951054395532	1533.031561059
1	14538	698604.595114816547	1049.5886513715
1	14549	698946.766607696269	1307.512220194
1	14554	699233.150542197694	701.71457770979
1	14563	699545.40181197128	696.93044633454
1	14571	699552.892460930303	660.32831234234
1	14579	699753.398703394826	201.80697110505
1	14584	699804.372427508564	246.81705472066
1	14607	700697.026799017755	512.41098128849
1	14612	700749.449209290583	398.73201107215
1	14634	701418.200112692308	275.47080264902
1	14645	701987.183214831594	708.62378554007
1	14660	702667.691708636524	478.2750885346
1	14679	703831.54211157903	383.73098194317
1	14702	704815.930960315454	96.322812441777
1	14711	705741.622413915569	100.74937679923
1	14736	707046.905807136593	214.71839960514
1	14767	708547.357439597467	196.05841897165
1	14776	709277.312935068325	776.40815069275
1	14781	709301.739327813494	217.63433498528
1	14803	710029.484859593464	179.39256419676
1	14845	711511.967482476042	405.40852438532
1	14864	712466.030498497504	31.34122958739
1	14877	712841.49120206774	7.842518270568
1	14913	714194.551521108588	285.87197640124
1	14921	714746.631678121524	665.92099644968
1	14930	714901.370358972131	83.473944288512
1	14968	716786.954358031653	1085.1830050087
1	14973	716805.002353535494	890.58024444881
1	14991	717682.421493942937	1354.272181769
1	14999	717866.977880205785	1530.9012519839
1	15004	717980.772088700804	1529.9708841535
1	15012	718188.532588453009	817.52959516345
1	15027	718907.32194450066	1412.9609537402
1	15032	719034.744056902182	1221.3483995296
1	15054	719437.528943967621	106.40129536339
1	15059	719466.782788275795	92.569323789024
[...]
7	14231	687579.523669038	3
7	14234	687708.391503828752	2
7	14238	688038.985948747772	3
7	14247	688394.011304185428	4
7	14251	688463.5424289077	3
7	14258	688609.871427053809	4
7	14263	688683.553203296267	5
7	14268	688714.959736945012	6
7	14272	688758.429788836496	5
7	14279	688935.228457568362	6
7	14283	688970.072322005198	5
7	14290	689650.141622456826	4
7	14294	689686.531669193899	5
7	14299	689717.790342246821	6
7	14303	689851.828702543312	5
7	14309	689938.416682407676	4
7	14322	690665.04264692878	5
7	14326	690684.417855262	4
7	14330	690730.583549663432	5
7	14346	692095.831745526229	4
7	14352	692400.71166906274	3
7	14359	692655.380452851052	2
7	14374	693386.547958567346	3
7	14379	693442.76857364767	2
7	14383	693576.649724954958	3
7	14387	693599.483783688457	2
7	14391	693660.529800865904	3
7	14396	694010.934929073319	4
7	14423	694670.321734116362	5
7	14428	694810.784879516518	6
7	14446	695680.38949578791	5
7	14453	695924.082226461439	6
7	14460	695939.124165145638	5
7	14463	695956.104240128727	4
7	14467	695982.284077894022	5
7	14473	696027.848402482247	6
7	14482	696111.484418843988	5
7	14490	696261.134588969772	4
7	14505	697073.87533966099	3
7	14508	697236.328035650552	2
7	14523	698179.877403716972	1
7	14527	698243.951054395532	2
7	14536	698604.595114816547	3
7	14547	698946.766607696269	4
7	14552	699233.150542197694	5
7	14556	699323.894571550715	4
7	14561	699545.40181197128	5
7	14569	699552.892460930303	6
7	14577	699753.398703394826	7
7	14582	699804.372427508564	8
7	14587	699947.245943755995	9
7	14591	700003.089251883376	8
7	14594	700107.825703789883	7
7	14610	700749.449209290583	8
7	14615	700852.231259711374	9
7	14636	701431.594705836365	8
7	14639	701516.415141391693	7
7	14643	701987.183214831594	8
7	14651	702271.028585188979	7
7	14654	702287.742058134756	6
7	14658	702667.691708636524	7
7	14663	703137.773079459023	6
7	14666	703187.617203488439	5
7	14669	703221.865293699398	4
7	14677	703831.54211157903	5
7	14681	704308.017105134392	4
7	14685	704476.556672006614	5
7	14689	704560.160331362795	4
7	14696	704730.062756177036	3
7	14709	705741.622413915569	4
7	14714	705900.567380854904	5
7	14718	706069.777712630063	4
7	14727	706509.073848472784	3
7	14739	707086.365562794713	4
7	14750	708082.668274602426	3
7	14774	709277.312935068325	4
7	14779	709301.739327813494	5
7	14784	709445.572163165865	6
7	14793	709697.205491499658	5
7	14805	710226.228148497045	4
7	14809	710321.800377177075	5
7	14813	710429.446730278617	4
7	14835	711363.530908351404	3
7	14838	711430.3870205121	2
7	14848	711916.250537524565	3
7	14867	712475.436673053917	4
7	14880	713060.852900622129	5
7	14907	714179.971120610283	4
7	14915	714332.123009561101	3
7	14919	714746.631678121524	4
7	14928	714901.370358972131	5
7	14932	715317.684705555609	4
7	14936	715424.60778263003	5
7	14952	716306.203421461209	4
7	14971	716805.002353535494	5
7	14975	716905.536907373111	4
7	14978	717018.355342599967	3
7	14989	717682.421493942937	4
7	14997	717866.977880205785	5
7	15002	717980.772088700804	6
7	15006	718029.9414273315	5
7	15010	718188.532588453009	6
7	15015	718432.197027163624	5
7	15018	718642.919153150352	4
7	15021	718895.923569796897	3
7	15025	718907.32194450066	4
7	15030	719034.744056902182	5
7	15035	719091.689101791781	6
7	15057	719466.782788275795	7
7	15062	719512.219195417083	8
7	15075	719875.613690681377	9
7	15080	720064.282164179622	8
7	15083	720394.04043219334	7
7	15086	720744.297290668336	6
7	15100	721215.718421078493	5
7	15122	722129.631259661741	4
7	15126	722137.532111581779	5
7	15130	722170.021334247825	4
7	15133	722523.803943369239	3
7	15136	722531.11929485534	2
7	15155	723285.945447715166	1
7	15175	725216.963695237986	2
7	15194	726549.478637829423	1
7	15198	726600.091735234961	2
7	15203	726632.287732077412	3
7	15207	726777.973740333438	2
7	15211	726887.509749207973	1
7	15215	726998.482428568138	2
7	15240	728128.632772616373	1
7	15252	728538.40694269397	2
7	15288	729821.436125684889	1
7	15300	730186.391296833938	2
7	15320	730600.907323751208	1
7	15335	731470.345500685575	0
7	15346	732237.822050890153	1
7	15351	732262.609942462983	2
7	15355	732305.603661933542	1
7	15359	732336.4207577705	2
7	15364	732360.29212302116	3
7	15368	732370.317903738666	2
7	15377	732589.760933561735	1
7	15395	733116.313491455255	0
7	15399	733173.407913872188	1
7	15405	734142.911596064623	2
7	15409	734177.508389076822	1
7	15412	734318.380274472343	0
7	15417	734953.399655430189	1
7	15426	735450.270396161402	2
7	15434	735684.724090155232	3
7	15439	735815.02072896606	4
7	15445	736334.795775203263	5
7	15459	736480.526602709845	4
7	15471	736672.341222902484	5
7	15475	736674.703538604043	4
7	15500	738138.198673693938	3
7	15533	739552.987865623951	4
7	15535	739595.536333453877	3
7	15550	739740.065360482221	4
7	15552	739830.994217326517	3
7	15560	740226.967479143311	2
7	15568	740469.625461868748	1
7	15573	740598.058348762096	2
7	15577	740622.337287217774	1
7	15597	741423.680495818324	2
7	15603	741570.824815079387	3
7	15616	741758.539609877477	4
7	15624	742092.077360531242	5
7	15628	743418.040768895336	4
7	15641	743932.552175796886	3
7	15646	744522.286714082698	4
7	15662	744914.703950477955	3
7	15666	745521.368722905068	4
7	15671	745719.054758130695	5
7	15676	745762.677108629063	4
7	15679	745835.291204141333	3
7	15687	746008.271334292595	2
7	15690	746565.074332881316	1
7	15719	748124.860455108291	2
7	15728	748546.388700278199	3
7	15730	748952.31205699897	2
7	15739	749620.031651103735	1
7	15754	750375.667658385889	2
7	15772	751004.389713485445	3
7	15777	751047.912197454547	4
7	15785	751143.427604844473	5
7	15790	751357.112603667464	6
7	15795	751367.572944717925	7
7	15797	751384.438669780097	6
7	15811	752010.406422766116	5
7	15815	752020.759392134533	6
7	15822	752505.428199847144	5
7	15828	752736.917496945204	4
7	15836	752875.940695997125	3
7	15858	753794.958804718428	4
7	15862	754185.305249884883	3
7	15870	754532.742809215442	4
7	15875	754577.980009858466	5
7	15880	754650.828302199379	6
7	15888	754738.920519876818	7
7	15893	754824.226258623332	8
7	15897	754869.587412053832	7
7	15901	755495.13580662387	6
7	15913	755696.499240200052	7
7	15940	756753.126317768637	8
7	15945	756810.283958944118	9
7	15948	757099.166603143347	8
7	15956	757318.890145152079	7
7	15974	758339.62485489927	8
7	15979	758455.214564162261	9
7	15981	758513.492748290401	8
7	15990	758717.372211313782	7
7	16002	758958.659219097414	8
7	16007	758972.697112746142	9
7	16014	759016.756554194116	8
7	16019	759296.356417413689	7
7	16022	759340.875790607948	6
7	16025	759351.235821280707	5
7	16028	759434.100599868386	4
7	16056	760415.326180319546	3
7	16061	760686.366455111264	2
7	16072	760876.379292481863	1
7	16083	761690.755613289979	2
7	16087	761700.343807217674	1
7	16091	761732.742226352219	2
7	16103	762143.016873653081	3
7	16107	762544.924408006864	2
7	16111	762581.24720940177	3
7	16120	763581.160077455561	4
7	16129	763802.78502526428	5
7	16134	763839.285629123847	6
7	16141	764333.388755920189	5
7	16151	764892.029091724153	6
7	16169	765626.227088382173	5
7	16172	765939.435665827465	4
7	16175	766110.47572372911	3
7	16182	766267.0415093376	4
7	16188	766499.819431547811	5
7	16192	766614.524598837654	4
7	16204	766935.269409691665	5
7	16220	767560.388626065214	4
7	16229	767895.672408503725	5
7	16233	767961.605068065269	4
7	16240	768266.803144855483	3
7	16244	768681.086614030309	4
7	16248	768803.538483982812	3
7	16253	768895.210871040219	4
7	16260	769160.722162970169	3
7	16263	769203.812466686174	2
7	16275	769508.31382970871	3
7	16280	769799.176425210372	2
7	16284	769835.642203822522	3
7	16288	769980.58706615694	2
7	16306	770448.008544739096	3
7	16312	770864.343723800634	4
7	16320	770904.386381043817	5
7	16325	771198.670443668363	6
7	16329	771307.073024041464	5
7	16348	771651.691573260014	4
7	16361	772338.580486581686	5
7	16370	772950.166430816023	4
7	16394	773628.124235278057	3
7	16422	775023.167042871162	2
7	16425	775168.41038399904	1
7	16429	775337.673015576018	2
7	16448	776287.622162322102	3
7	16457	776975.424202276435	4
7	16459	777085.617137760467	3
7	16471	778220.457066163715	2
7	16484	778452.799942021974	3
7	16488	778501.842028017146	2
7	16492	778671.297810622676	3
7	16500	779179.600707383974	2
7	16507	779293.553473791538	3
7	16515	779695.064533781764	4
7	16520	779952.139070908892	5
7	16526	780066.243909943026	6
7	16530	780115.431445528454	5
7	16543	780522.700777970054	4
7	16560	781387.436002933607	3
7	16569	782257.364294429809	2
7	16579	783553.106829129562	1
7	16588	784507.704387690448	0
7	16603	785449.132943713507	1
7	16612	786716.375217307582	2
7	16621	787317.272561054268	3
7	16629	788106.62968173124	2
7	16633	788116.036415567425	3
7	16640	788486.651279142371	2
7	16662	789731.584999004974	3
7	16666	790017.287046665757	2
7	16670	790168.647264493362	3
7	16675	790258.036219735902	4
7	16683	790354.311477024437	3
7	16695	790535.636074572669	4
7	16706	790695.686236932092	5
7	16711	790827.177906088828	6
7	16716	790983.599995223756	7
7	16721	791202.701709370589	6
7	16739	792061.676938450638	7
7	16741	792629.827317934878	6
7	16746	792743.834323986624	5
7	16749	792772.941651696487	4
7	16753	792885.040189222156	3
7	16775	794091.460343027145	2
7	16790	795180.547460921096	3
7	16798	795765.0033176866	2
7	16802	795772.89963303732	3
7	16815	796033.800031760046	4
7	16817	796296.044192595435	3
7	16826	796667.445800643629	2
7	16834	797132.540931174228	1
7	16849	797724.772966842722	2
7	16858	798215.103204114723	3
7	16866	798652.214452952389	4
7	16875	798996.297959732509	5
7	16885	799430.546472452022	4
7	16888	799455.606923485569	3
7	16891	799529.043648367261	2
7	16900	800909.073036573355	3
7	16905	800911.808006247372	4
7	16912	801042.710303721221	3
7	16918	801122.572931021714	2
7	16925	801323.517910583609	3
7	16931	801550.379569250817	4
7	16936	801862.454457962221	5
7	16944	802321.457790244359	4
7	16948	802342.208846338519	5
7	16956	802910.110819942242	6
7	16961	803176.19764751923	5
7	16967	803598.076431630132	4
7	16971	803716.118240565144	5
7	16976	803888.170514668187	6
7	16986	804609.266955094128	5
7	16989	804769.434295469778	4
7	17005	805534.051755730737	5
7	17010	805649.306997484714	6
7	17055	807644.024347170503	5
7	17061	808391.902238068971	4
7	17067	808534.194754717367	3
7	17082	808845.385574149023	4
7	17087	808890.30401891256	5
7	17092	808890.828251750233	6
7	17105	809759.615053318483	5
7	17110	809876.329976576026	4
7	17122	810304.939760924484	3
7	17131	811177.217920074129	2
7	17140	812269.055861331455	1
7	17155	812699.586810840406	2
7	17157	813209.781281769066	1
7	17172	813725.566196291815	2
7	17179	813877.642739125565	1
7	17183	814011.109172387096	2
7	17196	814901.508186427455	1
7	17201	815428.567719777925	2
7	17213	815618.884285252536	1
7	17221	816057.163827898946	2
7	17226	816211.814453428751	3
7	17231	817419.274279671858	2
7	17248	817991.191638809797	1
7	17252	818029.329775789497	2
7	17259	818368.183381679894	1
7	17274	818615.117481804907	2
7	17276	818840.025665931377	1
7	17290	819122.704097512112	2
7	17294	821029.745327528353	1
7	17303	821720.115054172618	0
7	17318	822080.444872594373	1
7	17323	825339.239809949587	0
7	17339	826688.641695088876	1
7	17341	826823.834428817295	0
7	17355	827158.156566601254	1
7	17364	827980.688509303676	2
7	17375	829732.812938785292	3
7	17383	829970.202491951179	4
7	17391	831113.233431340793	3
7	17396	831578.635747689198	4
7	17403	831722.90849137873	3
7	17408	831954.769165482045	2
7	17426	832835.451075352096	3
7	17429	833198.832710035689	2
7	17450	834732.802131275607	3
7	17458	834806.611208251013	4
7	17464	835119.201368130746	5
7	17469	835249.971376446739	6
7	17472	835749.664653748681	5
7	17480	835873.036239649841	4
7	17483	835886.395223032893	3
7	17492	836037.414432353693	4
7	17502	837140.429121629811	3
7	17529	839185.682967338313	4
7	17534	839474.373761611147	5
7	17539	839565.19959292376	6
7	17544	839730.512872214866	7
7	17548	839753.109171804329	6
7	17556	840511.955192086883	7
7	17561	840535.757302247665	8
7	17570	840872.820524987571	7
7	17582	841511.980410262253	6
7	17586	841517.388984654913	7
7	17599	841859.663774940006	6
7	17613	842234.202082243186	7
7	17615	842325.15618285865	6
7	17637	843538.051871591783	7
7	17642	843712.937446600854	8
7	17650	844210.125421493538	9
7	17656	844348.195411659821	10
7	17658	844412.184254790265	9
7	17663	844485.385837065156	8
7	17672	844693.766697687073	7
7	17681	844838.985705563245	8
7	17685	844869.882955058372	7
7	17688	845009.429104357126	6
7	17692	845074.874488977456	7
7	17702	845257.701584876339	6
7	17710	845766.809613404489	5
7	17713	845842.776367915432	4
7	17726	846023.068276397228	5
7	17730	846122.386381175957	4
7	17743	846341.695499517638	3
7	17746	846393.450674256694	2
7	17773	847137.535202975966	1
7	17777	847143.357179183523	2
7	17781	847473.589268211771	1
7	17804	847844.107512544904	2
7	17806	847986.629445620141	1
7	17822	849617.617863804346	2
7	17831	850420.334951781495	3
7	17839	850573.165817732593	4
7	17842	851189.156685454568	3
7	17860	852570.618187541733	4
7	17865	852614.728866879522	5
7	17868	852979.593213559576	4
7	17883	853799.741820359096	5
7	17885	853986.937245541836	4
7	17890	854197.451960834357	3
7	17902	854785.743474283197	2
7	17923	856094.954637212145	3
7	17932	856373.056905059724	4
7	17937	856643.628850041892	5
7	17941	856729.942762938907	4
7	17945	856990.464588696286	5
7	17953	857858.722974452862	4
7	17968	858117.471355894803	5
7	17970	858431.938498672576	4
7	17992	860419.014767339928	5
7	17996	860476.700763940844	4
7	18000	860533.863102540399	5
7	18006	860589.629385137533	6
7	18013	860870.718147917051	5
7	18025	861669.884009393783	4
7	18028	861784.836404104964	3
7	18042	862202.969712671967	2
7	18046	862298.571542389293	3
7	18052	862605.882159652069	4
7	18057	862731.548539524059	5
7	18063	863255.85685257818	6
7	18080	863975.593458644085	5
7	18090	864448.107372446607	6
7	18097	864742.069480462387	5
7	18112	865043.661362528948	6
7	18124	866013.426692986081	7
7	18128	866046.055057003685	6
7	18132	866234.955444157935	7
7	18136	866555.420918993693	6
7	18149	867033.62215147636	7
7	18162	867571.599530181149	6
7	18166	867890.671965386872	7
7	18170	867905.877332026079	6
7	18181	868239.499970138391	5
7	18187	868315.236663177056	4
7	18195	868793.258923259564	3
7	18198	869022.236972683719	2
7	18207	869399.64696441683	1
7	18220	869714.181341206707	0
7	18239	871032.496230824256	1
7	18248	871937.164813430047	2
7	18256	872521.515781312572	3
7	18265	872670.545179662093	4
7	18272	873335.865235122981	3
7	18277	873475.70147632297	4
7	18284	874053.256216675278	3
7	18298	874221.747777112298	4
7	18301	874448.850511337704	3
7	18310	875265.224620120992	2
7	18325	876461.568503606925	3
7	18327	876770.280747320647	2
7	18333	876897.8505417895	1
7	18344	877150.87241451092	0
7	18359	877750.855010011865	1
7	18367	878230.319257207886	2
7	18376	879431.582499354255	3
7	18379	879523.797748432849	2
7	18387	879624.944854283491	1
7	18404	880258.572909322766	2
7	18413	880763.078734978367	3
7	18418	880894.84024040329	4
7	18427	881461.304164467604	5
7	18429	881518.582886926533	4
7	18437	881734.889148497637	3
7	18442	881757.717465476508	2
7	18459	882443.270351476968	1
7	18463	882449.172080838541	2
7	18467	882662.466719031901	1
7	18470	882671.442006380821	0
7	18495	884909.110310264779	1
7	18503	885067.756327034136	2
7	18513	886371.418102021087	3
7	18521	886395.48877832817	4
7	18523	886720.403291270404	3
7	18543	887175.807119883209	2
7	18547	887226.899823698902	3
7	18552	887840.437014086897	4
7	18557	888305.155163675268	3
7	18560	888497.484842148501	2
7	18564	888625.393074757745	3
7	18598	890413.078729709764	4
7	18603	890438.015810970429	5
7	18608	890570.40398192588	6
7	18614	890750.797179282814	7
7	18616	890934.305383191547	6
7	18625	891820.181131574592	5
7	18630	891965.613530706828	4
7	18642	893022.937482324334	3
7	18661	894158.077559039647	4
7	18668	894500.780698586407	3
7	18672	894777.326485385777	4
7	18678	895298.102068571291	5
7	18686	896460.267451828238	4
7	18701	897373.123990655167	5
7	18708	897407.929999303609	4
7	18713	897632.019788478361	5
7	18717	897878.506467559944	4
7	18729	898617.40577165203	3
7	18737	898973.105765285329	2
7	18760	900879.89217759639	3
7	18764	900910.384736657753	2
7	18768	900962.782338735987	3
7	18773	901307.591667051787	4
7	18795	902412.007264018596	3
7	18799	902457.009767650493	4
7	18805	902726.968106347344	5
7	18810	902766.734863026102	6
7	18815	903012.533692082726	7
7	18822	903184.917407123713	6
7	18826	903465.961094376397	5
7	18835	903973.257195960422	6
7	18843	904993.770181479088	5
7	18852	905104.713907491787	6
7	18862	905604.444702942204	5
7	18865	905853.891984453766	4
7	18874	906121.479659322555	3
7	18877	906636.168974540046	2
7	18881	906906.769164796221	1
7	18910	908174.116878003293	2
7	18916	908687.004048175516	3
7	18920	908771.456076817907	2
7	18923	908827.94155019646	1
7	18927	909141.177296566995	2
7	18962	909798.656240766798	3
7	18974	910590.827029188355	4
7	18978	910594.797429116426	3
7	18982	910853.471435462358	4
7	18994	911440.392160079332	5
7	19002	911716.503608192372	6
7	19010	911880.003103490918	7
7	19016	912036.534932527916	8
7	19020	912194.200143573285	7
7	19027	912293.418477467039	8
7	19031	912303.244799265009	7
7	19035	912327.599838017537	8
7	19039	912603.430422605016	7
7	19046	912852.079785086361	8
7	19051	912871.303151206435	9
7	19061	913201.642166374524	8
7	19069	913365.34084360649	7
7	19081	913724.665120994033	8
7	19086	913850.331895504923	7
7	19089	913873.420553074274	6
7	19107	914011.479155062772	5
7	19118	914565.188033164209	4
7	19122	914793.714243080131	3
7	19126	915051.049181301955	4
7	19130	915217.214594564144	3
7	19155	916055.360976306121	2
7	19158	916113.544329456708	1
7	19162	916244.768862815739	2
7	19171	916712.569273109082	3
7	19176	916765.596804595702	4
7	19196	917409.854650137656	3
7	19211	918081.857853795334	2
7	19215	918378.987077484803	3
7	19220	918606.619968747413	4
7	19233	919628.662192986427	3
7	19242	919846.498493079406	2
7	19260	920685.367218540972	3
7	19268	920838.893209083783	4
7	19272	921072.162518962397	3
7	19276	921089.414596535285	4
7	19289	921259.582054144314	5
7	19292	921662.093756671013	4
7	19300	922003.701009925695	3
7	19315	922858.252074403992	4
7	19317	922924.530374915058	3
7	19335	923600.427580148709	4
7	19340	923843.594646466342	5
7	19343	924052.140821139985	4
7	19351	924201.414312759125	3
7	19362	924294.614696716204	2
7	19366	924386.238471132533	3
7	19371	924647.963104194872	4
7	19385	924904.282991488391	5
7	19392	925044.557551932033	4
7	19405	925300.677151604347	3
7	19416	925977.110981832322	4
7	19421	926136.50376225096	5
7	19425	926137.569467538583	4
7	19429	926270.985250090134	5
7	19434	926608.518391253303	4
7	19443	926907.998001679964	3
7	19456	927588.663964369255	2
7	19467	928005.404291478566	1
7	19471	928043.94894417292	2
7	19477	928321.938875440872	3
7	19482	928421.449912813359	4
7	19486	928433.21459376682	3
7	19490	928938.008645094471	4
7	19496	929165.957919194383	5
7	19501	929228.881651855301	6
7	19515	929973.674657289141	5
7	19519	930099.29012763869	4
7	19528	930962.037570258592	3
7	19566	932910.76332551236	2
7	19570	932976.573536597906	3
7	19574	933083.452867188654	2
7	19592	933809.215174587621	3
7	19594	933941.724114110998	2
7	19599	934076.856045622585	1
7	19621	935823.479724654794	2
7	19627	936403.979696770994	3
7	19629	936453.405691189681	2
7	19643	936540.001297158623	3
7	19645	936776.041162890569	2
7	19654	937145.019667286555	1
7	19668	938584.416334994879	0
7	19673	938717.903978475773	1
7	19686	939235.602716704699	2
7	19695	939616.524917377794	3
7	19698	940861.719998287308	2
7	19720	942525.23889658536	3
7	19724	942551.496574243551	2
7	19728	942556.316016028092	3
7	19733	942583.655576380435	4
7	19741	943145.819695824459	3
7	19746	943280.211839199426	2
7	19752	943608.278922018646	1
7	19763	944746.449637453613	2
7	19781	945003.686464470591	3
7	19788	945286.361814685014	2
7	19791	945401.577249815583	1
7	19799	945672.525940586756	2
7	19807	945829.256878285538	3
7	19811	945862.709049345877	2
7	19815	946065.033548170971	3
7	19830	946314.58446421809	2
7	19842	947787.019892771115	1
7	19851	948714.218591348597	0
7	19866	949046.646461804589	1
7	19874	949215.725448388818	2
