file 343262 1483967701                                          
version 2
run QueueMeasurement-88-20170109-14:15:00-6062
attr configname QueueMeasurement
attr datetime 20170109-14:15:00
attr experiment QueueMeasurement
attr inifile queueStudy.ini
attr iterationvars ""
attr iterationvars2 $repetition=88
attr measurement ""
attr network controltower.SimNetwork
attr processid 6062
attr repetition 88
attr replication #88
attr resultdir results
attr runnumber 88
attr seedset 88
param SimNetwork.a.parkingLot.parkingDelay exponential(45min)
param SimNetwork.a.runway.landingTime exponential(5min)
param SimNetwork.a.runway.takeoffTime exponential(5min)
param SimNetwork.a.runway.throughputCheckInterval 14.286min
param SimNetwork.wg.interArrivalTime exponential(14.286min)

vector 5  SimNetwork.a.runway  landedThroughput:vector  ETV
attr source  landedThroughputSignal
vector 6  SimNetwork.a.runway  tookoffThroughput:vector  ETV
attr source  tookoffThroughputSignal
vector 0  SimNetwork.wg  responseTime:vector  ETV
attr source  responseTimeSignal
vector 2  SimNetwork.a.landingQueue  queueLength:vector  ETV
attr source  queueLengthSignal
vector 1  SimNetwork.a.landingQueue  queueTime:vector  ETV
attr source  queueTimeSignal
vector 7  SimNetwork.a.parkingLot  parkingOccupancy:vector  ETV
attr source  parkingOccupancy
vector 4  SimNetwork.a.takeoffQueue  queueLength:vector  ETV
attr source  queueLengthSignal
vector 3  SimNetwork.a.takeoffQueue  queueTime:vector  ETV
attr source  queueTimeSignal
0	1439 43838 1823 19046 79905.115079809666 949984.635498924336 1013 257.12913847631 33166.656855517 5908472.863946 44906743729.829
1	45277 40082 1825 19048 79905.115079809666 949984.635498924336 1015 0 2941.2053536203 339165.87610513 294152232.83556
2	85359 59645 1825 19048 79905.115079809666 949984.635498924336 2029 0 6 1798 3290
3	145004 39913 1841 19056 80179.757533161117 950366.593033589324 1013 0 9001.8334970814 1264939.0260097 4540092624.2866
4	184917 59599 1828 19056 79953.811734616271 950366.593033589324 2026 0 16 4175 22305
5	244516 19549 1821 19028 79715.88 949733.28 1016 0 6 1013 2047
6	264065 19549 1821 19028 79715.88 949733.28 1016 0 6 1013 2157
7	283614 59648 1827 19053 79953.811734616271 950366.593033589324 2028 0 13 7516 35806
