version 2
run QueueMeasurement-108-20170109-14:15:13-6082
attr configname QueueMeasurement
attr datetime 20170109-14:15:13
attr experiment QueueMeasurement
attr inifile queueStudy.ini
attr iterationvars ""
attr iterationvars2 $repetition=108
attr measurement ""
attr network controltower.SimNetwork
attr processid 6082
attr repetition 108
attr replication #108
attr resultdir results
attr runnumber 108
attr seedset 108
param SimNetwork.a.parkingLot.parkingDelay exponential(45min)
param SimNetwork.a.runway.landingTime exponential(5min)
param SimNetwork.a.runway.takeoffTime exponential(5min)
param SimNetwork.a.runway.throughputCheckInterval 14.286min
param SimNetwork.wg.interArrivalTime exponential(14.286min)

vector 2  SimNetwork.a.landingQueue  queueLength:vector  ETV
attr source  queueLengthSignal
vector 1  SimNetwork.a.landingQueue  queueTime:vector  ETV
attr source  queueTimeSignal
vector 7  SimNetwork.a.parkingLot  parkingOccupancy:vector  ETV
attr source  parkingOccupancy
vector 5  SimNetwork.a.runway  landedThroughput:vector  ETV
attr source  landedThroughputSignal
vector 6  SimNetwork.a.runway  tookoffThroughput:vector  ETV
attr source  tookoffThroughputSignal
vector 4  SimNetwork.a.takeoffQueue  queueLength:vector  ETV
attr source  queueLengthSignal
vector 3  SimNetwork.a.takeoffQueue  queueTime:vector  ETV
attr source  queueTimeSignal
vector 0  SimNetwork.wg  responseTime:vector  ETV
attr source  responseTimeSignal
0	1639	80112.838419454159	4168.6706131436
0	1651	80951.060271786063	1501.8341113844
0	1673	81923.764484179965	4268.641262046
0	1678	82208.824361515615	1694.0869478512
0	1696	83226.685904543252	8639.0449201264
0	1713	84178.853898628128	3510.4911294608
0	1722	85344.899453782372	5571.658935747
0	1748	86911.017002525949	4618.0050437619
0	1764	88314.750926942148	2864.4808196658
0	1808	92097.689346544611	8343.4820327671
0	1813	92171.848599353658	4143.3774223402
0	1818	92439.655453528128	2649.9989290043
0	1836	93493.56777760358	2682.6753291044
0	1856	94331.772536234491	6645.6783303504
0	1885	96444.918599130401	2650.3999003546
0	1890	96488.463702636933	2553.4125529128
0	1898	96725.310507661676	10785.866041527
0	1920	97426.289828516948	797.85637806769
0	1929	98197.807321701518	3220.3442594159
0	1964	101068.055469121952	8569.8273238724
0	1980	102366.90162296272	3181.2002801087
0	2014	103978.624236738343	7045.2299047104
0	2027	104217.880074230213	3880.4385890727
0	2032	104400.525928346455	5483.6828724564
0	2041	104704.351056843671	2496.9483269008
0	2058	105985.720850346047	3355.8066791477
0	2083	107100.702242854934	610.55840881099
0	2101	108115.120646206149	1444.0470570808
0	2158	111144.063654821829	3843.3822231692
0	2170	111683.082523497096	3307.6882392099
0	2178	112054.25811307945	9612.6675205707
0	2187	112328.284558317249	2590.6211890231
0	2196	113395.079269005735	8352.5472471283
0	2212	113976.422929835011	4452.1688870096
0	2229	114188.138332970151	6021.2987902807
0	2273	116188.493218256377	12357.375046734
0	2279	116689.922491117144	4080.3073548414
0	2287	117025.210021060842	2786.863967734
0	2321	118120.765707146719	8141.7031555919
0	2332	118378.446728723788	4204.7289134153
0	2340	118543.854852748593	4153.0498350975
0	2353	119024.957055187081	3252.4249670478
0	2398	122427.782114600518	5293.4938718866
0	2418	123402.356427644118	4976.2006403946
0	2503	126660.565598371834	9063.6829472249
0	2524	127222.986810484864	7703.5483266529
0	2546	128116.047276973245	14044.593372501
0	2555	128835.953129136948	15208.309894546
0	2582	129670.165032721705	8680.6188297847
0	2590	130164.925517953763	13101.801269919
0	2596	130460.854940643172	7175.2065114888
0	2607	130871.448325811783	6280.9469132632
0	2624	131158.907867868495	8793.5220788939
0	2629	131407.47058104353	10574.502949986
0	2645	132908.888898939332	8941.6517565465
0	2650	133026.173300423603	6915.6170826386
0	2655	133091.33191886405	9512.6497918042
0	2663	133403.250839950761	8221.4363505155
0	2673	133484.328339849856	6764.5600325293
0	2678	133536.945810321599	7756.8209855795
0	2690	133901.485537789674	7077.0637006139
0	2720	135428.726943521607	11718.745514143
0	2751	136606.620840435452	8109.8608078488
0	2769	137980.510696140576	9143.8931475868
0	2780	138287.473043079909	9378.2203277052
0	2791	138851.263498312916	5289.3448505406
0	2806	139062.680983601185	3819.5063996453
0	2824	139388.105978815026	8870.9332662521
0	2835	139733.28293110074	5682.4565690604
0	2840	139843.192316595465	5156.610611205
0	2848	139996.246163325837	6785.2716639458
0	2865	140699.367733632891	4492.413136193
0	2880	141526.344278838544	2150.0461015109
0	2921	142922.008855684994	5406.8140057388
0	2933	143291.742874549265	4408.4329064382
0	2957	143486.707587467235	7424.2913448798
0	2967	143728.756610725977	3879.6339260697
0	2973	144052.351693089637	5108.3816186784
0	2981	144197.808738811028	3382.8368604068
0	2995	145173.756607574632	3463.3207348506
0	3000	145371.754690910304	1922.4336690285
0	3016	146686.868588125595	4806.8649475303
0	3021	146748.45288028656	3679.6037448012
0	3026	146784.882191024881	5878.677982918
0	3057	149682.483867167911	5593.1835935803
0	3078	150678.008613898129	7382.5164760209
0	3127	152708.884429029794	3394.5708742023
0	3135	152779.207271345222	3500.1709960182
0	3155	153462.502233633292	1781.8525421097
0	3160	153551.870341319907	6414.1825478777
0	3175	154559.850508824992	6280.5042200963
0	3194	155494.825978247272	3580.7601516541
0	3202	155895.972807204896	4254.8016672836
0	3214	156469.046700032559	3746.441756584
0	3225	157356.839175655139	5874.0617069216
0	3240	157901.161954489268	3861.9086398945
0	3280	160919.586367076579	6415.9234524265
0	3297	161929.252967977745	4502.3918684574
0	3308	162563.656989022393	4941.7743725441
0	3322	162755.130552216387	5023.0749417762
0	3347	163689.371008034093	7662.2158876498
0	3383	166359.24557927497	2865.4605317231
0	3388	166375.986720812173	3307.4793488203
0	3396	166623.822451484148	2953.0611505318
0	3415	167121.807159376747	6670.4738131412
0	3434	167842.660470668819	6236.7737523554
0	3446	168084.553074837317	1527.7502522279
0	3459	168287.842072409429	1204.302459631
0	3474	169139.969328510257	10776.847632761
0	3556	172856.108691559348	8509.1534614126
0	3571	173494.6047356696	10787.569663404
0	3584	173755.519238887034	6206.8473986506
0	3589	173938.126840423661	2873.3277689652
0	3601	174173.569253289116	2910.7224057746
0	3624	174749.581616763446	3887.9721091774
0	3632	174858.158687068889	6269.5059373427
0	3638	174952.477325233821	6448.4121217771
0	3643	175049.278782257619	3681.3453385788
0	3669	176852.324283804542	1724.7479532686
0	3678	177483.319834332311	4442.9642188564
0	3687	179003.060662754701	7434.1635053414
0	3703	180423.904591379436	6366.5977499672
0	3711	180502.727331180567	6356.2595441255
0	3728	181391.953246578905	13382.383215122
0	3733	181617.774161720111	7171.8642610006
0	3739	181819.089352283871	11921.22112239
0	3755	182530.732407999978	2035.1920086527
0	3764	182881.547046019573	6927.9205640297
0	3790	184449.306241287276	2464.4127842742
0	3798	184698.390054913718	1425.0506037351
0	3827	188772.190554044028	3318.0016401399
0	3839	190148.070538157325	6808.3176459206
0	3862	191842.894842302823	4680.1277634121
0	3897	193971.000321345155	3562.615842572
0	3916	195461.158171813068	2860.4981292809
0	3943	196385.5048843406	6624.3937162383
0	3956	196582.293752860803	3021.4247150514
0	3996	198264.850796574896	3134.8928935465
0	4001	198408.575573868646	2294.0712761113
0	4012	198824.784636825458	5861.5466599294
0	4032	199800.514807967564	3756.9159187516
0	4047	201055.086085243762	2512.0847611022
0	4061	201519.151090723195	4504.8693542767
0	4066	201687.873050996196	3962.166571511
0	4105	202971.777761015656	3737.8356867105
0	4110	203050.056564505655	5861.6500490979
0	4115	203140.840921722551	7918.8437602276
0	4130	203704.142795040414	1662.587317887
0	4140	203962.945632385282	2252.2269006539
0	4173	206005.332501204121	3604.2289440839
0	4186	206432.400045404846	6005.1239265831
0	4191	206435.5501360361	2789.3634417513
0	4200	207358.156287135457	2328.9737946481
0	4219	209427.321992295134	4109.8994824341
0	4261	210972.252608271131	5267.888858681
0	4318	213510.996805620007	3682.1707639093
0	4332	213818.455302873684	5371.9381516461
0	4356	214196.175511504937	3455.4771113136
0	4361	214219.296502528138	2290.0857261813
0	4367	214380.260112188168	4524.3296351924
0	4375	214992.780437847516	5191.7322093412
0	4396	216126.533369739168	4437.7126861633
0	4401	216302.047460613361	3723.493707779
0	4409	216560.97504530164	3787.0816524742
0	4414	216579.246530667493	2704.486516123
0	4422	216796.776186798097	4928.2566953508
0	4436	217081.516537172093	2300.576758194
0	4486	220543.47308498595	6799.2587886163
0	4517	222240.056007496209	1858.0097718351
0	4522	222274.876222096917	3193.7958054618
0	4534	223466.931122913011	5675.9998499587
0	4539	223534.491097214702	4019.5445321774
0	4547	223565.102875874022	3106.0446319277
0	4557	224664.6921684689	5028.4443681531
0	4565	225364.673545031037	8616.8831484119
0	4582	225953.770621296596	4680.8441948513
0	4650	228967.184261447566	1827.531926961
0	4658	229474.74566341514	1893.3742733416
0	4694	230544.850685142248	2925.9152324316
0	4711	231155.930513595942	5765.8598834519
0	4716	231208.242054914647	3071.1290668172
0	4728	232074.312902416063	4440.8806419333
0	4737	233004.50869322988	5148.5032360274
0	4742	233038.252774507037	5297.2186673608
0	4768	234422.05997179202	1170.6087884259
0	4776	234522.955946109932	3988.0244970019
0	4811	236271.856052433653	6345.3272475891
0	4824	236468.574337584298	6294.3733626214
0	4835	236714.44215927591	6973.9866308742
0	4852	237535.061419312909	1206.6421011186
0	4874	240607.972762276535	6840.1682208448
0	4880	240992.136098899022	5684.1027715846
0	4888	241214.487264428535	5233.7228387877
0	4911	241644.595723524614	4290.3657397394
0	4944	243298.341990553945	8067.3134737364
0	4958	243630.791300139016	4074.940591526
0	4971	243977.77101636778	1001.460625033
0	4983	244727.519645269665	3369.3005279021
0	4997	245357.346716509384	3877.5198696966
0	5005	245673.083100908308	4157.2144719377
0	5016	247728.973314975913	4219.890964002
0	5061	252098.970599947944	2259.2097835839
0	5077	252698.26014866733	11137.441907998
0	5145	254838.866345323515	3775.5462815369
0	5150	254898.039218707658	3033.7886146937
0	5155	254967.24683789256	2663.9852411239
0	5161	255757.909599407185	2787.3643752422
0	5187	256618.502320448428	2453.9036437113
0	5192	256645.056250387053	2993.0710511094
0	5197	256986.704258735672	3679.5874468623
0	5206	257507.633034767896	12804.443547503
0	5211	257549.938940003923	4616.0142661464
0	5223	258768.154031928863	4306.6736028442
0	5229	259082.419269864321	8927.6266919152
0	5315	262700.58361449035	3239.9318778618
0	5349	264290.496920646388	4809.0642105414
0	5354	264541.643691841716	3540.0588922728
0	5359	264748.390079002452	4458.9359074185
0	5365	264884.637864380556	8640.5175908857
0	5377	265792.480366890316	4312.1170089631
0	5410	267050.723150719654	4543.6440472736
0	5416	267526.612113986245	5682.3013282457
0	5421	267559.070868812889	4978.8579270132
0	5429	267783.159579766277	5184.4112076386
0	5440	268496.265332357682	7990.2734239311
0	5449	269322.692298262195	3556.4761273302
0	5476	271924.039418387445	4263.2027187355
0	5533	274366.757765525237	8496.6495022071
0	5538	274403.636479351064	1651.7861552679
0	5543	274661.715011062665	2193.7520489565
0	5551	274792.158654698142	4226.153698438
0	5566	275985.249904258556	3894.3739386798
0	5602	276943.615490927532	10732.116766111
0	5635	277803.915033295109	1668.4055644919
0	5654	278097.491982248075	606.43645998819
0	5662	278431.237544274576	1378.1333030638
0	5674	278932.376037300944	5579.496909349
0	5693	280075.968797625603	4337.4681754388
0	5708	280435.997000808611	6763.2777238472
0	5727	280805.612891170962	4624.0923573103
0	5733	281223.422477161612	4252.0581314001
0	5738	281262.97037166949	10845.044800453
0	5746	281298.017135726786	6083.69128769
0	5764	282910.688983921205	5042.0775661391
0	5769	282967.276741171469	4147.4328994659
0	5797	284199.436545845539	948.65679048965
0	5811	284653.879754271387	4441.2017062456
0	5823	285504.546881318844	4222.5295400159
0	5831	285864.002663257305	2530.7115785004
0	5836	285986.45708843845	7200.0573881076
0	5864	289104.729248277057	2118.392028041
0	5890	291250.709615911603	7179.6843973329
0	5957	294023.264073157735	6113.5024189017
0	5990	295712.845857782493	5831.5256474709
0	5996	296132.476846403469	3976.0733407409
0	6001	296279.78799375216	4628.8954872027
0	6010	297190.975652933595	6419.4361506021
0	6018	297409.629875647514	3434.9381242159
0	6027	297604.730494127133	5338.6713046625
0	6057	299131.293710958303	5115.2652945057
0	6063	299245.000813453639	7123.9864346675
0	6077	299982.768319428325	7026.4730610389
0	6100	301678.117954558579	4173.9216827413
0	6150	302880.141693303147	8462.1907262042
0	6166	303327.907898197855	5349.4826548331
0	6177	303484.777778867747	3718.6120795477
0	6210	305390.108960480617	2648.5381823544
0	6218	305494.291076958414	2395.1623936036
0	6231	305865.299774443971	3669.0873285306
0	6236	305900.905477507938	3512.8246522621
0	6242	306169.907322687532	4891.4214726336
0	6250	306591.26964009271	6625.0263492661
0	6300	308102.249477837708	4446.4175304986
0	6305	308135.015525952127	6186.3262562838
0	6316	308481.58430750877	3069.786589342
0	6330	308720.53553658813	2006.8821195827
0	6338	309198.37983449752	7417.7825339048
0	6350	309529.026256657204	11919.904632216
0	6363	310160.724401507502	2843.0978131631
0	6368	310286.321815000701	2759.1670098332
0	6378	311292.077105702938	4790.7704588134
0	6412	313303.467985466343	6198.732546306
0	6424	313733.280976480486	5386.2847609911
0	6429	313924.180614951606	2069.2583661946
0	6463	317851.727532791491	8473.7662499994
0	6477	318187.203683535096	4224.947619276
0	6482	318351.377107725358	6491.6092827883
0	6490	318391.424009621311	930.48259043067
0	6529	321580.362467463593	3999.0708082792
0	6545	322159.748066772347	2761.886865216
0	6550	322202.360843266377	1726.6960647175
0	6571	323484.752869118936	11283.359405931
0	6576	323960.66109524026	3381.1820638812
0	6596	327241.634306332079	5685.8769386577
0	6640	329555.517971412457	2446.7639771299
0	6656	330195.47131302538	7950.9981177536
0	6667	330509.289186227018	1541.5293813325
0	6680	330847.488806161357	2970.1651189897
0	6694	333050.495387505812	5739.5902919355
0	6706	333646.31482747415	4486.4703275146
0	6719	334113.279730777445	4619.686811635
0	6743	335216.480254147466	4784.435320648
0	6761	335731.392076866758	2117.3952843249
0	6787	337171.958029433417	2030.1540686699
0	6792	337634.48735049528	1992.3057507123
0	6804	338462.047409630082	4386.5161701285
0	6810	339341.286763011563	4170.6543551399
0	6834	343006.431764033754	6872.6798928047
0	6902	346553.834080345819	3313.3095145353
0	6910	346699.705773016791	5000.3994076495
0	6915	346789.630363355405	6528.8941373766
0	6943	347528.143787233686	3074.8698404035
0	6951	347769.215720219541	3273.0557432961
0	6956	347956.3024848082	4303.1180631449
0	6965	348296.776262136902	1212.3020268818
0	6981	348811.35009402346	4460.5950607258
0	6997	350449.409309506292	3216.6465496144
0	7008	350689.596321068049	6178.920995024
0	7035	352503.846855561404	2208.6630086388
0	7092	355896.15371708003	4724.9347716461
0	7098	356949.332691059793	8565.9277300251
0	7103	357067.088746957129	4844.401771168
0	7111	357352.351996234103	4652.0685799567
0	7126	358000.141870427795	5131.3876118126
0	7137	358576.171727162478	6451.8486594361
0	7162	361005.353975543956	7715.9641869839
0	7186	361380.825828051258	1098.0263247003
0	7191	361479.663205586154	3624.8812809261
0	7196	361640.362335773459	9450.4961736574
0	7205	362248.292347789388	1532.7841994626
0	7251	367124.548963497966	1747.1953905377
0	7289	370275.748344043651	3817.9708852764
0	7301	371142.349471030358	4578.937762969
0	7324	372272.050863187511	2298.8301993139
0	7346	373081.93420558552	6252.1735795805
0	7357	373470.702130751053	2400.7032397591
0	7366	373847.605798445236	6125.7647166086
0	7389	375106.490160825846	5305.2798130712
0	7442	378212.266161455482	7537.3897229536
0	7458	378436.57650809898	5585.3704734243
0	7485	380882.443448684727	6204.2195252276
0	7490	381228.859979895555	7529.7965139836
0	7495	381239.872437234907	20388.846020827
0	7500	381339.604785422516	9075.9710721057
0	7509	381551.215718629705	5078.4999269004
0	7514	382014.618505247013	6798.7809088192
0	7519	382120.712784576312	4015.2035660862
0	7525	382353.534055896795	3951.3820065927
0	7553	383596.620588832315	5014.6395486338
0	7576	384932.365343994191	1677.1085108175
0	7587	385371.439288686713	1784.0962706317
0	7624	386825.872632958286	4311.0148933591
0	7629	386895.197622800635	11428.722927527
0	7641	387809.238055150482	3899.1622715867
0	7655	388427.030814726898	2634.2852212563
0	7660	388622.952646165174	2744.1360310508
0	7720	392447.670206208735	7097.7965622975
0	7728	392578.191597209837	2049.0600916376
0	7737	393210.672421344645	4189.4852644531
0	7745	393277.752137658958	2436.8712103349
0	7755	394512.891145892201	5026.2669521441
0	7780	395692.341899162501	8796.9854141658
0	7796	395995.893897754767	5844.3537478856
0	7831	398218.522084027293	1638.9843705198
0	7839	398572.791392365302	1330.9308033846
0	7868	400037.543523324403	8669.9557477104
0	7876	400216.422194896252	5379.5694727078
0	7906	400974.182819276876	925.5142734682
0	7915	401166.702621003742	2270.9022206814
0	7923	401276.716238378668	885.92947597523
0	7931	401853.584766490749	2448.6003196918
0	7956	402497.235185924329	7520.694723978
0	7976	403361.970280715638	1028.4826763759
0	7993	403933.586380203453	8204.4091018699
0	8006	404027.400746649372	6176.1712953961
0	8023	405001.762116791423	1075.493081617
0	8031	405047.433166027188	4649.2192685351
0	8054	405806.62865741872	3169.9754945967
0	8067	406068.510872108218	1601.7816612307
0	8072	406094.386638540623	2942.1426024356
0	8081	406643.739827983762	4676.1752604174
0	8153	409918.126197296292	4147.8920538455
0	8166	410498.795811527024	2548.6904203205
0	8175	410650.030834468416	3099.6509842362
0	8180	410924.736591196255	5642.7732076754
0	8191	411409.315411930637	3508.5701297373
0	8222	412615.416666348549	4894.1775662988
0	8228	413302.511348181098	5002.1627486643
0	8233	413517.803227737964	2155.8844065279
0	8251	414466.480870977162	3536.4886465235
0	8270	415497.518136476245	8451.7102091924
0	8302	417951.638517263684	2593.0805214859
0	8314	418551.36406926813	2361.7427886791
0	8374	421470.166547531865	12607.906829306
0	8379	421497.058574161988	7211.8581649399
0	8384	421546.282033330604	7533.6292645478
0	8389	421557.797002392907	10074.038971247
0	8401	422526.504917116534	3050.6854850511
0	8429	423714.863044950223	5504.9806018048
0	8454	424302.777384082889	2314.6131598785
0	8462	424429.629930849112	4549.6877053651
0	8470	424885.211587076051	3269.3996928862
0	8547	427268.286580502488	3467.9465230939
0	8555	427458.446697450043	1955.5047015212
0	8560	427526.232915545625	6766.9709846085
0	8565	427677.205418463652	2662.6171504537
0	8574	427957.413457376939	9176.477577758
0	8579	428025.704614630036	11214.110949695
0	8590	428335.242164934897	2528.9058762238
0	8606	429352.371098682284	3549.2582083879
0	8615	430091.862275605123	4918.9796680526
0	8620	430118.415613732087	7125.040166837
0	8645	430847.775565683288	4382.522845706
0	8674	432824.86951192514	2625.7295183411
0	8719	434177.091330980866	3308.8582569714
0	8730	434478.047469303781	10413.221538889
0	8747	435082.241458081423	6881.3707784951
0	8752	435163.909486406897	5045.3679967258
0	8765	436301.193529555347	3097.7526448183
0	8775	436654.811123589247	5485.8265041682
0	8786	436792.050019521471	3182.6786561049
0	8803	437483.204388652179	9216.2181730541
0	8813	437577.484934136206	3722.1339292255
0	8858	439434.280860157464	2088.6533872658
0	8880	440474.066817110287	1732.4843371309
0	8889	440608.465314296295	1217.8458965759
0	8909	441712.455153277588	3506.2832411846
0	8923	442143.121409191339	2648.5264913243
0	8929	442621.811562450827	6994.3978448147
0	8943	443145.583888921992	4608.9441508575
0	8962	443827.902431897975	7079.1218394551
0	8968	444261.007321399916	11531.63879744
0	8976	444293.094684423698	9934.4440569112
0	8996	445309.330018306423	2298.8534320118
0	9038	447156.287752337992	8148.85136123
0	9043	447264.700814728726	4218.9362575326
0	9048	447358.988297435043	1864.3846741691
0	9061	448430.418921655477	3455.268363134
0	9072	448898.517305370228	8111.7233521857
0	9089	449308.835658076515	5023.0731724138
0	9151	452744.255944125908	3870.9982329181
0	9159	453139.871637950626	3150.7229313239
0	9171	453575.023553386424	4564.3756213229
0	9186	454559.763894650618	4515.5727790942
0	9199	455095.316680445767	6105.1149227397
0	9208	455675.548863279528	10390.027325554
0	9219	455861.924214508836	9713.8805297163
0	9236	456381.903299033656	5439.5199647036
0	9250	457546.192860182691	5005.6463898905
0	9264	458093.399154019399	8227.9703972793
0	9291	460732.047681065648	4952.9262921361
0	9296	460856.745030220603	3159.977365944
0	9312	462507.336919507639	8893.1558255203
0	9331	462943.528432074268	4800.5216595041
0	9365	465242.32280893562	8092.4348076714
0	9382	465693.937477285013	3235.7074304829
0	9390	466133.453706445003	1403.6838317725
0	9398	466239.562544535874	9967.5446535652
0	9408	467779.675857596102	3424.4452160957
0	9426	468943.014670498602	4807.2721923783
0	9448	470717.369690998471	5366.5060254396
0	9468	471436.168419234356	9195.3578514358
0	9481	472363.148285633847	3817.3467406771
0	9522	475011.372035113952	6032.7093113977
0	9530	475447.738546775181	6380.9312545071
0	9540	475608.143024540967	3764.9989906775
0	9545	475644.231502071931	2067.0663419164
0	9555	476813.618706733359	6968.2787088063
0	9581	478787.264001954245	1256.2247521174
0	9613	480330.677870613245	1517.849852678
0	9643	481553.41172248303	3965.4803040222
0	9649	481773.957366682899	6490.5672503618
0	9657	482027.944999529008	2712.9693018838
0	9673	482248.474706614027	1431.6812499601
0	9681	482333.155950572543	3392.0873212688
0	9709	483327.810227169812	9624.2533226205
0	9714	483349.263057397328	1280.0576068385
0	9723	484149.709316473958	1688.5484481144
0	9736	485791.470396919145	4695.5773754518
0	9759	487172.527702418153	1397.0896186707
0	9778	489798.528161031524	7156.842265617
0	9854	494640.618711710906	2577.2667594661
0	9868	495843.213118796412	6344.5972397506
0	9876	495931.295629059999	3531.4527209432
0	9888	496624.973755503625	6553.7012107252
0	9901	496838.504526833543	4954.7541030665
0	9907	497204.523876151286	11304.316336274
0	9919	498309.504603304264	6520.2949010256
0	9984	500715.759805019859	2529.2748531426
0	9989	501025.947639478274	2142.181611362
0	9995	501527.922819694276	2824.3217492512
0	10006	501820.334293934967	10850.640419506
0	10016	502016.200209057349	9466.3525196423
0	10039	502614.953682502381	6041.1389553861
0	10052	503051.738697344042	3430.6796561402
0	10066	503583.831980953414	1368.2833359968
0	10084	504090.434631278941	1556.9733643219
0	10104	505389.316592153823	3806.9616454747
0	10115	505776.52221760974	6663.7693049827
0	10123	506206.825692264541	6981.355007861
0	10133	506365.903065923771	3423.9539378584
0	10145	506686.189618009662	12704.118149452
0	10153	506835.381722852495	2938.223094018
0	10176	508649.601401641649	1899.0498317878
0	10220	509885.577060354158	5179.5056672599
0	10229	510293.261951389773	1618.4556818882
0	10258	512170.503432223398	3461.5920505919
0	10304	514289.214814913942	8217.0986827347
0	10315	515017.911218085467	2982.6931891699
0	10320	515078.261073119787	6269.805527512
0	10325	515135.231445524761	6633.2537816015
0	10330	515138.202865637314	4934.0430429036
0	10337	516108.580160133582	5739.6535755687
0	10345	516645.282606714239	7479.8322937061
0	10354	517302.742575729495	4717.3699601072
0	10371	518148.890817286201	6317.4024905387
0	10389	520212.603394873303	6697.6303034636
0	10479	523352.309030644161	5772.3912833626
0	10487	523476.016139530215	3722.1001108313
0	10499	524088.458945159948	2315.1989009613
0	10527	524659.71185844958	2625.7161820786
0	10567	526985.795423436537	4761.7477631616
0	10602	528222.56718476536	6624.9445966302
0	10621	529188.321122378836	7866.0755636491
0	10638	529601.732577057159	6748.3029702764
0	10690	531178.899615478128	10239.697268994
0	10695	531294.83137108308	6051.4865355641
0	10700	531342.700140227791	6702.482073319
0	10709	531608.31225145609	5816.8169398197
0	10714	531982.006732452577	9455.7271822347
0	10722	532296.064689812879	5389.1225307909
0	10728	532356.571002270983	8522.7750858664
0	10733	532536.268767132704	9025.9671488048
0	10738	532573.051435512423	3374.6551878407
0	10749	533048.896386372927	4837.1431123646
0	10766	533982.84241639107	3881.0637959068
0	10772	534132.69481976016	4802.5564127084
0	10780	534360.312519058058	6286.6339283771
0	10785	534372.558994389358	3685.6117626719
0	10793	534610.651131739899	4190.0813696673
0	10798	534791.128545664064	5334.4687482359
0	10824	536260.49063045569	9455.7237609301
0	10843	538508.182343767402	16526.642789686
0	10851	538908.545816150554	3795.7052944988
0	10880	540494.793954131136	1448.8512308595
0	10885	540642.051278981653	5152.1629860866
0	10894	541392.097604547693	8588.0602527407
0	10915	542949.436330874621	3871.3402608601
0	10937	544101.465498421202	7086.5961432436
0	10953	545695.873816951008	3759.7445057321
0	10999	548010.371112175897	2423.5746223143
0	11041	549705.363457813392	6998.9402213791
0	11046	549707.076495286847	4457.6204713879
0	11051	549712.828242513436	2520.2407067348
0	11056	550210.679139405235	2917.7242311501
0	11068	550506.145825633422	4377.8102681642
0	11091	551577.463501042627	2510.4900593779
0	11109	551670.426877413515	4478.1905275367
0	11114	551706.729809767226	5147.9164382381
0	11122	551839.02404799539	775.70260718767
0	11139	552813.779601142676	9594.1380514135
0	11149	553984.872721967118	3487.6686088735
0	11166	555190.291543419192	3026.0203115125
0	11200	556630.990895366297	1410.0157358491
0	11266	560555.48365520034	3105.4800655182
0	11278	561265.135485379314	7277.6661878714
0	11283	561368.849430289703	10087.227078393
0	11292	561719.025634435133	2545.5321923656
0	11297	561845.520248037125	3430.378248997
0	11302	561871.796645178545	3069.861622528
0	11319	562590.552962082841	2869.9329588421
0	11342	563791.657557844826	1744.7863241147
0	11359	564165.169164603294	8844.6949040593
0	11369	564522.058420426969	5975.4704082175
0	11400	567592.695580849064	11999.497866701
0	11405	568036.185648682224	4050.9223675292
0	11424	569407.554655334377	5637.5435323933
0	11456	570521.209833074946	4766.5342425202
0	11464	570674.036658693521	1045.3961205741
0	11472	570804.287131976544	7347.6420108388
0	11481	570908.199389487927	4390.1289243868
0	11502	572686.860724551504	3718.4621290506
0	11515	573401.692928565917	1648.9162362653
0	11532	573982.398381678355	5157.2526441051
0	11562	576850.831471205581	2519.335153035
0	11635	580754.28245024943	8696.786878035
0	11640	580923.153560906215	7436.8638029382
0	11645	580923.193540428568	4253.4434887178
0	11651	581297.898379851684	11628.386860026
0	11656	581655.227735049426	4740.5876824368
0	11661	581781.555460618115	3985.8126457572
0	11698	583499.170572730512	4636.5155653066
0	11703	583510.641887412116	968.66632053695
0	11715	583794.663927070145	5604.7420222979
0	11720	584148.726487395271	1109.0191019359
0	11753	584947.882664548926	6549.2044389971
0	11770	585957.134469401682	2658.978122562
0	11790	587076.879445501426	2790.2073163032
0	11813	588489.088336597236	12848.028674222
0	11833	589352.453251034043	5124.4988418232
0	11844	589570.541321440127	3986.5891864102
0	11853	589909.984376212663	3496.8833282802
0	11867	590847.235313590607	2673.3688661183
0	11876	591914.193362348895	3170.8368247905
0	11906	592788.695043696447	813.52336871527
0	11947	595650.26516301689	8696.0288427002
0	11953	595756.613755571056	11113.888736725
0	11958	595927.085986714996	4855.4452174464
0	11966	596159.191530048315	3925.1227607088
0	11978	596952.3204653215	2128.3442177336
0	12009	598855.123459262579	3758.2009193345
0	12018	599672.704293063325	4389.8545433537
0	12037	601297.695071514458	3975.4746011555
0	12065	602809.166309725532	12942.433628279
0	12082	603422.968747965196	6498.3074257637
0	12114	605108.107834491049	3773.7001347771
0	12133	605788.296650454445	4736.862528399
0	12143	605931.782595455634	3094.6790256011
0	12168	606949.117686138326	5383.5853280941
0	12191	607644.167754068279	9894.494971462
0	12197	607871.857261690053	2963.3513743983
0	12212	608587.730119712968	4126.846868779
0	12222	609283.356815225991	5919.4748326554
0	12228	609582.574222152974	3330.2152230383
0	12240	610591.008428871937	4004.3612992793
0	12250	610937.178925034475	5200.8432617275
0	12255	611086.720918398445	4286.5528550863
0	12295	614804.648220038064	4968.1739562421
0	12303	615000.421299642335	1386.8800303571
0	12318	616363.102047846086	4719.6642465284
0	12355	619837.140703749419	5372.5653252174
0	12368	620248.602311458832	12333.512941252
0	12378	620579.354679534767	2669.3700274489
0	12395	621286.611561550076	3158.5029686572
0	12413	622610.251983083064	3637.8381866364
0	12430	623765.962001059752	2640.08258275
0	12461	626917.901929397247	6701.6710312645
0	12466	626980.359971883475	12106.425531927
0	12492	628870.712438909282	1587.0133283413
0	12517	629732.004980509864	7979.6869001
0	12551	630689.332341286886	7758.0234292719
0	12573	631692.103343234359	6573.7730691514
0	12579	631735.653456280251	2001.2458537372
0	12587	632173.900513279964	7514.2296820658
0	12601	632673.625705922576	1676.9053576321
0	12613	634034.352931341927	6145.2009919534
0	12625	634952.938447792827	5641.5888107509
0	12634	635221.043846484491	6001.923937725
0	12653	636158.87469825447	5846.044784622
0	12669	637818.157598625471	5919.0423255264
0	12677	637881.094037316371	2692.0519223299
0	12687	638584.07988940355	8696.3100850474
0	12713	639646.052414664215	1776.262189976
0	12746	642580.876283285552	3936.6492828708
0	12758	643307.186892509907	8078.1008276605
0	12769	643979.253181404923	5150.1127380903
0	12774	644308.105231441734	3853.5330614311
0	12799	646744.368511872843	3963.4050470702
0	12822	648362.51730209127	7408.1086899457
0	12838	648846.28774852899	4253.4448587314
0	12855	649504.168119193229	4015.0358746212
0	12877	650147.646837211942	675.47226943844
0	12919	651720.391331648232	1546.1231281512
0	12999	655642.889898749102	9122.8339408126
0	13005	655939.913341572689	4136.3740260181
0	13010	656331.890794432774	5106.0234032797
0	13015	656352.645372817551	7599.0301654805
0	13024	656838.842310572138	6381.3202914212
0	13032	656993.0912785392	8751.0460256666
0	13037	657101.966517400604	2980.7955139667
0	13075	659175.851841210172	4648.2672785849
0	13090	660169.706815201334	8229.6043875043
0	13095	660437.527954124549	3267.2097635427
0	13103	660745.189837484193	9274.0864303252
0	13109	660914.587380317757	6378.3249366411
0	13120	661386.328086516509	8407.8529466084
0	13139	661762.447288690681	8953.8686828231
0	13147	662290.711987328652	1341.3329155099
0	13158	662563.918421043612	4846.4349308017
0	13174	664448.165547065948	14465.951264455
0	13182	664835.430533870224	7415.8965553167
0	13192	666558.523050246525	5394.9169516727
0	13209	667298.669084700423	4754.4512869764
0	13228	669943.389801084285	3250.1177719875
0	13254	671920.36170883546	1718.8335354927
0	13317	677102.418037848182	8521.6759118681
0	13331	677497.407372455577	2883.766610385
0	13336	677567.680828194278	2938.1972143277
0	13341	677655.075581375564	6979.9999148508
0	13369	678604.517322754369	3606.6885579099
0	13374	678819.677507696969	1804.9596281905
0	13386	679275.792940146541	3533.3294407605
0	13462	682132.609463477712	4461.6833496305
0	13467	682182.8154291994	3917.4243429007
0	13473	682784.198965894864	6610.5185084364
0	13478	683010.907607280268	3435.846165916
0	13487	683185.530258749651	3513.301300136
0	13498	683470.259194965279	3817.3433671117
0	13598	686116.478577020088	6995.8954738915
0	13653	688379.91373144804	7607.4189433131
0	13677	689301.383127879934	9151.6939620429
0	13694	689908.816974724092	6455.0183726529
0	13718	690408.898659010022	5341.542385949
0	13745	691010.020420898269	9696.6248053556
0	13750	691319.842005299342	6698.3016206642
0	13758	691699.322244392495	7817.3966979588
0	13764	691764.838426027774	5464.7045491998
0	13775	691949.838169042757	7500.9579111623
0	13785	692099.080705741306	5752.7298566026
0	13790	692118.818795514948	6019.3815777307
0	13795	692271.668154018247	6751.2955436819
0	13801	692900.853390681137	8151.9522250202
0	13806	692952.388982575634	9683.1855100028
0	13818	693626.189645103751	7176.5782590803
0	13829	694349.513179586997	9777.8085133876
0	13834	694362.404668314245	6098.9053239673
0	13839	694723.071148375482	4611.4857450411
0	13847	694820.683373214212	4813.9713279596
0	13861	695571.111391706117	7387.8167873936
0	13866	695841.309997900782	11856.387867641
0	13884	697026.538985849993	3570.7457064464
0	13904	698247.662395550979	6466.7887259997
0	13941	701470.617923958921	5412.0310308036
0	13967	703313.953544363738	8540.0874885511
0	13972	703340.573506447578	5215.428089839
0	13981	703958.707339748864	13321.410844275
0	13989	704370.370894315042	5685.9938704913
0	14000	704689.061056055798	16198.507127117
0	14005	704747.193109396082	3910.9148708186
0	14035	706483.223619447919	2187.5764213541
0	14071	708094.485014060469	10599.800242463
0	14076	708309.611136422638	7015.1885144791
0	14084	708698.199668342861	2952.8465170609
0	14090	708939.882778100011	2768.2818362971
0	14098	709376.916755791733	4267.9290713169
0	14108	711043.113602545873	5055.7620868539
0	14136	714485.019829694737	1508.2195429146
0	14155	716780.562683350002	2738.5888332255
0	14171	717430.868965285767	10424.141570913
0	14180	717930.997560991957	2488.0796029675
0	14201	721796.624062481943	4832.1784679794
0	14236	724803.75994592181	2837.2004115758
0	14245	725169.305245641039	4933.4448095913
0	14253	725757.154994357235	1964.4969917992
0	14275	728085.952854765372	4148.2199109269
0	14300	729012.588763037971	2605.2071544193
0	14315	730683.760087863426	2619.6355235544
0	14380	736282.031672275537	7534.4754585412
0	14386	736418.454609169692	1686.5816281164
0	14408	738392.494320689596	3667.5519747635
0	14456	739824.602121839384	11727.007131219
0	14490	741844.266646058236	7437.9853229557
0	14507	742512.498184926928	4707.6138268243
0	14512	742575.89622337543	6860.9509317863
0	14520	742949.612443165444	7170.6841008416
0	14532	743194.300602285891	10135.351983871
0	14570	744314.849344623596	6129.1577368749
0	14583	744474.07070565172	5463.0975438113
0	14588	744531.970556975959	5034.4510970924
0	14594	744879.634569632388	4220.7630704584
0	14599	745036.404698186217	7935.3477160311
0	14604	745224.927460631309	5691.4323703398
0	14612	745542.433474427462	2498.0749135382
0	14629	746243.607055627144	4911.5172660233
0	14661	748034.137639688285	5073.6662984325
0	14678	748879.850266501248	3298.0525520048
0	14688	749136.647638007887	5761.114701403
0	14697	749289.098201144618	5103.3191125467
0	14705	750014.349090144969	2139.7130464149
0	14714	750369.929711280184	6726.0023993059
0	14726	751218.226219410282	4668.4466701121
0	14731	751378.970431249725	4055.9438267993
0	14797	756908.525941051588	8221.8003377149
0	14808	757223.630638784222	2288.7685809573
0	14818	757337.479076956136	5427.7964648669
0	14843	759538.028052474329	4216.8794820672
0	14851	759954.250494411882	4993.0620403479
0	14862	760701.06299215556	8786.8489012694
0	14876	760838.412797108744	3177.4716068045
0	14891	762830.451912642061	5620.8725818439
0	14897	763054.762747299536	11167.720643788
0	14917	764448.182269222233	4761.5863170941
0	14939	765066.487215364164	1586.5650339693
0	14957	766773.744801591806	2556.6950104542
0	15005	768192.299773613506	1277.0095010349
0	15030	769118.006263683088	2992.1652813917
0	15038	769225.14721334963	1666.5084845625
0	15074	771762.171249398429	10966.610370862
0	15115	773913.555728489966	5978.4241048013
0	15127	774241.620809683883	6910.7782328594
0	15140	774386.698233213097	4014.7916690411
0	15154	774948.755520380737	3557.3296306333
0	15162	775046.094030717338	10375.83143105
0	15173	775312.759847311795	3720.0446755824
0	15178	775530.560833877528	1335.8439215182
0	15184	776324.001735164135	8246.0341323231
0	15202	777674.619523191648	10891.33738053
0	15281	780905.725743947819	8196.0282490006
0	15296	781216.542822062135	3832.0646831621
0	15304	781446.407210114903	7099.8568450303
0	15314	781647.686415652309	9105.269364039
0	15319	781716.617188946915	10199.176501838
0	15325	781760.597484091086	3704.9275590265
0	15330	781859.226385389323	12724.986920307
0	15335	781939.245183585309	3798.4944090177
0	15351	782517.045712913499	4320.6791189031
0	15372	783830.7378528802	3171.5380191625
0	15387	784768.931490769255	5890.1011482812
0	15406	785505.184712586735	3381.4553339612
0	15414	785703.495287729558	6134.373107514
0	15428	786208.08127869693	1939.4147557394
0	15436	786828.78650614659	5432.6235783012
0	15446	788034.507337485253	3896.2370113427
0	15458	789266.8443125347	6608.5071604567
0	15481	791010.629638910382	10116.123166657
0	15491	792203.017242522026	3078.6027183036
0	15513	794808.505567200001	9194.7658711206
0	15527	795922.472063312824	1625.456583917
0	15547	796949.266438837302	2392.1923184712
0	15591	799791.755886386288	9064.2999434076
0	15596	800042.219069938477	3043.3841025721
0	15605	800938.168533219628	4961.9014808883
0	15615	802863.765198984348	5956.6775589121
0	15628	804245.768842229402	5207.4779440252
0	15679	807230.087810665665	2737.3920474575
0	15688	807491.119081781568	2098.2330783455
0	15702	808574.713546218648	1935.6263758951
0	15745	811112.200190725132	7101.2433444115
0	15757	812388.061502290801	3194.199758278
0	15771	812994.667634008812	3733.9059223019
0	15783	814193.663249459942	4448.820479231
0	15792	814751.192103718269	7301.4131667745
0	15803	815105.506789822656	5612.5309569016
0	15814	815366.395085055318	9519.3489295318
0	15831	816347.632365355518	16955.014286482
0	15867	817556.814107897541	5337.8924179851
0	15872	817607.728091948191	1634.2997036243
0	15938	820182.978066952895	3047.7038014787
0	15972	821526.812973012467	6425.5759684606
0	15977	821680.029126821384	4412.0878312241
0	15985	821930.091088783361	4622.3221214093
0	16077	826038.692475799681	8076.0319826408
0	16086	826607.328326456409	7546.4109492622
0	16096	827011.18019981188	9349.7096565829
0	16104	827127.983669217351	7584.5914923876
0	16126	827745.163778341494	7208.8713291368
0	16136	827894.129664837328	8136.1721004485
0	16151	828327.409573112638	6514.4036584598
0	16165	829034.847527655799	7802.9412019072
0	16178	829119.882962719414	10061.759201998
0	16183	829139.653893235005	6199.4114365208
0	16191	829247.957951193327	1968.4099487701
0	16201	829575.834782801043	7103.8514349212
0	16220	830608.928332953737	8669.126668577
0	16243	831133.21499917056	8321.097037468
0	16248	831244.878156051002	4163.9402439676
0	16274	832218.171243693169	2396.3044598293
0	16280	832303.340824743268	2388.7946168119
0	16288	832681.465430652105	8233.2942220979
0	16293	832913.452889148341	5281.5991851544
0	16314	833778.860782022402	4839.5253325579
0	16346	834865.931921285442	5683.9389709343
0	16357	834970.709160961619	6674.6886930705
0	16372	835867.087446368582	4487.256813383
0	16385	836484.204985973513	2844.3717194181
0	16390	836562.159597947806	2935.7610520692
0	16407	837091.240011877647	4157.2581057498
0	16431	838991.957694432537	4143.6719013444
0	16452	840066.129817345601	15716.069519872
0	16469	840987.452564217253	14889.758794034
0	16482	841515.801886855463	15994.426250698
0	16488	841935.844572189614	11465.557545576
0	16496	842217.835248824068	3481.6084950948
0	16501	842218.539405165584	9163.7784425333
0	16519	843744.185543490491	5092.0371177164
0	16530	844270.746516723433	8637.2419505715
0	16552	844915.575464297445	4933.6388534101
0	16567	845938.080806570047	9315.501365068
0	16617	847556.825733412023	3085.4267652444
0	16637	848321.02110075238	5330.3951727529
0	16648	848778.770261595036	3341.5307915577
0	16653	849014.014844105853	3187.1946186216
0	16665	850082.502713342153	2977.8761019273
0	16670	850111.131532900689	2612.4310754418
0	16696	851525.08414639356	4347.6125907295
0	16708	852297.168694970152	1517.5989285059
0	16713	852406.129102644371	6176.6739274809
0	16730	853299.366133056451	12633.712609853
0	16747	854382.730867835108	3360.2702118977
0	16768	856086.065030607629	11882.780519562
0	16777	856754.734589071042	2665.3779261553
0	16799	857827.018142737502	2743.1048819433
0	16815	859037.990517178228	10929.755025754
0	16820	859117.810706195811	2648.5877547451
0	16828	859276.715378003368	6661.5102922779
0	16842	859743.142176100992	2739.7951212967
0	16876	862199.956302120306	3027.0607842737
0	16888	863019.519377809175	1936.0480666534
0	16902	863621.359404293765	3541.2127092958
0	16944	865066.174811209013	3964.8449937932
0	16973	866637.545810889096	4400.4990513395
0	16978	867021.618961825467	2398.6533062313
0	17009	868074.908150998507	4154.0602788582
0	17023	868607.116224991428	1557.3517614323
0	17036	868993.896487613902	4786.2173705878
0	17076	870190.277388215109	2948.1025516154
0	17084	870790.030374705012	4614.5550530288
0	17106	871975.906329437748	4154.0954822711
0	17153	873777.403067057568	5360.8099248896
0	17161	873838.50012605987	4210.9617825078
0	17171	873957.55687171116	10252.647882698
0	17180	874341.82543820709	3233.7097589138
0	17185	875132.127569047108	3640.5861066379
0	17191	875523.957226880046	4673.4590809254
0	17196	875695.636210353187	3645.6030424649
0	17208	876255.227028184502	7001.5592422025
0	17222	876984.628034741426	5127.7924395757
0	17230	877261.034622969127	7350.0978404831
0	17305	880664.885336261257	4749.2445057575
0	17321	881529.069081212164	3211.7477251453
0	17330	882230.775398656991	3189.8148191841
0	17335	882483.69446911209	3617.9738697492
0	17340	882735.742962182717	16922.343271137
0	17357	883046.273880529863	3746.842161712
0	17366	883766.536169087442	3142.6987874703
0	17386	884763.004801544234	10949.663656145
0	17394	884997.234615538459	6099.9143774699
0	17399	885071.431566413847	5634.3784891891
0	17417	886397.552762764531	3502.8745401408
0	17425	886963.277838436613	2635.6395272997
0	17474	889493.003730774812	1206.9576035903
0	17496	889989.529034933808	3006.338979487
0	17518	890953.517318403022	10351.128209768
0	17527	891496.850951226754	1992.0451082804
0	17544	892207.049110320336	2366.6085817569
0	17555	892572.959132875582	7198.6635163371
0	17560	892900.041950148692	3594.9755226671
0	17584	894116.423521608946	5601.3303700669
0	17623	896142.965129739116	7418.07012844
0	17661	897058.013853949004	6447.9075963362
0	17681	897769.756711269601	3354.2797023272
0	17699	898890.025646812452	2135.8865705034
0	17717	899888.476057676159	4779.7411399102
0	17756	901283.130345349476	4847.9254994663
0	17764	901542.338527975078	5455.443952723
0	17793	903099.300289850686	8993.1447411161
0	17807	903848.046644473193	10050.86307835
0	17813	904318.431386494248	11393.446755156
0	17821	904388.400600259149	7929.8609436151
0	17831	904551.910972402559	12596.375169374
0	17839	904680.487155000351	5292.3859904879
0	17845	905613.919632064813	4075.6194609451
0	17850	905615.895075040289	4050.0238392497
0	17858	905866.002157594698	5592.5223453124
0	17872	906561.553705741451	2209.2403689331
0	17881	906956.437240912972	4465.9713798785
0	17901	908417.347410246419	7568.4684373939
0	17915	908958.447047944487	3265.2564144805
0	17951	909938.878332707396	12661.007209861
0	17956	910066.074115096955	11137.45257887
0	17965	910462.051083637384	2098.3085059953
0	17974	911171.608322390043	2177.3220040021
0	17998	913096.379152038722	4005.1000232762
0	18008	913430.426323745655	6323.7570176564
0	18017	914140.301622434468	5169.8035884121
0	18056	915375.714967180763	2320.8995870749
0	18066	915417.889700036007	890.4786607594
0	18082	916453.678483197417	2008.0621775788
0	18092	916631.757094251969	1838.6723753887
0	18103	917139.624736049817	4911.3615459742
0	18118	918244.089082075443	2952.4969818947
0	18126	918507.725764135403	2182.1230586122
0	18145	920804.470626154331	3750.2276823373
0	18167	923320.670997957292	4153.3233374671
0	18213	924493.81210920277	2325.266602002
0	18222	925153.024521667327	2218.4292154347
0	18233	925510.461727030555	1864.6345884329
0	18264	926806.970400660829	3438.7764708912
0	18275	927162.577899752449	1802.8856556855
0	18284	927555.89244180328	3644.9615978048
0	18301	929125.64742503008	3126.5258905439
0	18331	929926.850254411077	2526.1522452551
0	18369	931940.669751613475	2440.2655881133
0	18374	932377.059923359882	2173.5969616884
0	18394	933334.3184273269	2672.8748854258
0	18399	933414.101090545732	7893.5520604055
0	18414	933909.454739773801	4606.6681316007
0	18424	933996.593532790291	4937.7731964987
0	18433	934692.034979944131	11259.608998068
0	18458	937134.69463324247	4535.6271487608
0	18475	938261.448227079703	6992.9826115456
0	18481	938624.205764852627	2496.4007162306
0	18486	938720.331322477691	5059.6457081245
0	18517	945141.452577705556	8300.2437239648
0	18544	947285.174300145953	4261.1731085738
0	18553	948856.515644592154	5287.0295881281
0	18569	949995.875739623324	3051.6717156458
1	1616	79449.226160401623	0
1	1625	79773.240518035358	0
1	1653	80951.060271786063	436.32285812166
1	1658	81343.59547951517	675.23271034789
1	1684	82293.011958764015	0
1	1701	83754.207313777558	0
1	1727	85450.270107276364	0
1	1739	86217.699214670224	278.25474853604
1	1766	88314.750926942148	628.65672105807
1	1771	88607.786636341475	579.31545932803
1	1780	89789.656524523816	0
1	1789	90810.892448499175	0
1	1823	92498.228145249513	0
1	1841	93794.518698775767	0
1	1858	94331.772536234491	396.72138651039
1	1866	94977.463062285645	0
1	1900	96725.310507661676	96.877057212419
1	1909	96933.394332027939	0
1	1935	98916.843055890087	0
1	1943	99185.701342854006	0
1	1953	100337.44148515754	0
1	1982	102366.90162296272	159.49889301989
1	1990	102576.67271541584	135.08212290706
1	2002	103619.736116525635	989.82194532733
1	2016	103978.624236738343	147.50606521602
1	2046	105042.532021877475	0
1	2064	106490.143834043946	0
1	2072	106690.32239576651	19.248806641143
1	2089	107300.681431652647	0
1	2106	108166.839542689414	0
1	2114	108375.394284287214	0
1	2123	109524.254042825457	0
1	2132	109801.277452246054	63.614082951863
1	2140	110138.571632045313	159.50908049049
1	2198	113395.079269005735	785.46413272996
1	2214	113976.422929835011	348.77969524447
1	2231	114188.138332970151	116.68442849787
1	2245	114784.525343751102	610.80752844261
1	2251	115135.59637062952	897.25031730272
1	2256	115172.675735088521	781.87071743744
1	2265	115843.009156338762	70.477068199451
1	2292	117063.124248034698	0
1	2307	117471.036697354163	336.74845464028
1	2323	118120.765707146719	523.88305599977
1	2342	118543.854852748593	117.69906549912
1	2359	119519.438483831962	0
1	2368	120832.967631057535	0
1	2377	121278.436490331366	288.89028739438
1	2400	122427.782114600518	62.396325625933
1	2420	123402.356427644118	116.70799848974
1	2435	124088.989919051526	510.30779199167
1	2443	124200.767406958884	490.78597758009
1	2461	125111.915356401607	1144.6782140088
1	2467	125161.692871075971	571.19145852737
1	2475	125340.45372300765	158.63923357243
1	2483	125888.167010965591	108.04218622354
1	2492	126506.772579911663	396.21636212667
1	2526	127222.986810484864	503.21850316434
1	2531	127254.668568903748	430.24673172799
1	2557	128835.953129136948	339.19309655027
1	2568	129025.717953224804	189.10040467107
1	2573	129343.651174674209	434.39845929954
1	2609	130871.448325811783	354.27561324884
1	2665	133403.250839950761	192.27634057076
1	2692	133901.485537789674	339.56689001732
1	2700	134167.149275599985	116.32291355965
1	2709	134886.483636988693	199.9019315982
1	2722	135428.726943521607	185.55235956577
1	2737	136212.975664825325	150.55942223787
1	2742	136229.337072144846	22.382474704939
1	2771	137980.510696140576	465.3158461944
1	2808	139062.680983601185	179.37101549008
1	2813	139153.276674744402	209.30660033321
1	2826	139388.105978815026	11.807801487407
1	2850	139996.246163325837	147.12347866952
1	2882	141526.344278838544	711.37240043435
1	2887	141603.245156987378	697.04094888046
1	2905	142397.555303403179	687.1194306792
1	2910	142596.501675726004	716.49803513068
1	2935	143291.742874549265	222.89373906393
1	2946	143393.15607636417	97.663938486921
1	2959	143486.707587467235	37.386565585428
1	2983	144197.808738811028	108.50846522342
1	3031	147137.687793442189	0
1	3059	149682.483867167911	1403.1375784392
1	3064	149772.565909672658	493.52963434562
1	3070	150339.981926466704	1025.6683716392
1	3084	151482.777468733538	0
1	3096	151744.095377266798	102.92423734546
1	3101	151775.431662385331	94.781970861775
1	3109	151914.065826593192	0
1	3137	152779.207271345222	56.602327896675
1	3177	154559.850508824992	520.59719423024
1	3182	154736.977381514787	233.31446686469
1	3216	156469.046700032559	441.89157964828
1	3242	157901.161954489268	474.3008549689
1	3250	158433.954693744394	812.07207726608
1	3255	158440.860358097594	708.80474765745
1	3260	158450.962985073351	87.841289324178
1	3282	160919.586367076579	468.25302084106
1	3299	161929.252967977745	323.36624966433
1	3324	162755.130552216387	48.095479951209
1	3333	163199.952380977952	131.44500898613
1	3349	163689.371008034093	195.58596048222
1	3355	163736.293305691517	65.532004739126
1	3363	164346.955230146766	0
1	3398	166623.822451484148	67.019628874724
1	3417	167121.807159376747	38.267546598343
1	3426	167619.318650480157	70.646810243744
1	3448	168084.553074837317	74.983043380757
1	3476	169139.969328510257	635.90412505357
1	3481	169676.284329842315	1087.6315801161
1	3490	170280.480813435388	382.61258354175
1	3499	170861.609507586014	0
1	3510	171069.783899120141	4.984827661703
1	3518	171305.290680023202	42.443832508727
1	3529	171419.936471883921	52.00302820512
1	3541	172053.392577577473	484.49542016421
1	3573	173494.6047356696	454.24912019365
1	3603	174173.569253289116	116.26241187689
1	3608	174280.477122020323	134.00933496524
1	3616	174571.528728015908	125.61882729639
1	3648	175127.576330535905	0
1	3657	175953.626481989878	0
1	3713	180502.727331180567	7.186931833303
1	3744	181984.893457013067	0
1	3769	183273.339451178638	0
1	3778	184024.571564167606	684.81867193088
1	3804	185454.188913904174	0
1	3814	187162.767078890713	0
1	3841	190148.070538157325	386.95937005504
1	3850	190408.384478773162	0
1	3868	192600.660042532133	0
1	3877	192963.237976896033	0
1	3885	193560.869037809441	0
1	3918	195461.158171813068	331.20026878465
1	3923	195705.13908652655	483.14192503156
1	3931	196076.951630832925	33.352741616932
1	3945	196385.5048843406	271.00058658329
1	3961	197014.281736446473	0
1	3970	197279.13588284525	90.729367437542
1	3981	197927.681014574708	201.97453508949
1	4014	198824.784636825458	281.78331268385
1	4023	199553.636283690509	319.69420938536
1	4049	201055.086085243762	627.809966422
1	4071	201710.718731731338	0
1	4082	202251.684907186874	210.12943003341
1	4091	202456.204340881964	55.100783761769
1	4132	203704.142795040414	57.956100755631
1	4147	205029.182492487401	0
1	4155	205317.422509861029	0
1	4175	206005.332501204121	300.968751614
1	4207	208446.5171512276	0
1	4224	209801.04822850629	0
1	4235	209866.603974525298	37.777932814637
1	4241	210163.206268738461	307.27579174271
1	4249	210740.69840019137	0
1	4266	211688.820683575823	0
1	4275	211870.078932180978	1.559440733729
1	4289	212384.596074762007	455.3852984152
1	4304	212888.387754166118	309.83400133177
1	4309	212901.426774901468	127.53338207405
1	4334	213818.455302873684	74.241006504042
1	4348	214128.505924782778	253.74591023829
1	4377	214992.780437847516	211.84065886947
1	4424	216796.776186798097	48.985790178961
1	4442	217790.931272954262	0
1	4451	219081.080416635091	0
1	4460	219514.946565037284	0
1	4468	219636.247800315818	0
1	4488	220543.47308498595	161.4268493248
1	4494	221149.605281953214	690.54703800691
1	4502	221378.855873089224	105.92944664397
1	4570	225390.070630144065	0
1	4588	227139.652334486549	0
1	4597	227581.371390073572	0
1	4608	227727.012712607079	108.0772598964
1	4619	227928.745524994887	295.31326451214
1	4625	228128.759240605647	387.72513345945
1	4636	228286.789207010259	430.78374980775
1	4641	228626.781933147833	489.66894505038
1	4664	229740.455528401718	0
1	4672	229926.528804844583	0
1	4683	230234.14191363597	59.940938673058
1	4696	230544.850685142248	9.919236034223
1	4748	233251.451183366136	0
1	4756	233881.809704507946	114.00516307619
1	4782	235231.028516817505	0
1	4796	235414.941748860215	106.90842154578
1	4813	236271.856052433653	291.09162679279
1	4826	236468.574337584298	140.15501938995
1	4840	237354.229983785242	0
1	4859	239555.850708612974	0
1	4913	241644.595723524614	286.37660615708
1	4919	241911.56113053711	431.73428372434
1	4924	242114.909197090015	599.04056811943
1	4932	242436.725975700623	875.90773503097
1	4946	243298.341990553945	322.0315992192
1	4960	243630.791300139016	121.70894916514
1	4985	244727.519645269665	24.330158004638
1	5023	249839.760816364081	0
1	5031	250154.792577949111	0
1	5040	251063.320063786578	0
1	5049	251864.250604013919	0
1	5066	252303.261596768676	0
1	5083	252933.924673857493	0
1	5098	253772.6772453071	802.13202114211
1	5109	254096.738847154687	789.62203528132
1	5114	254153.448552889881	501.46335361223
1	5125	254361.296325346902	196.6976486098
1	5133	254493.995840715754	32.515411631121
1	5166	256244.120273494825	0
1	5234	259460.651736628529	0
1	5242	259523.900236393518	42.467526288491
1	5255	260853.551400333794	564.09722874987
1	5266	261381.657253361733	875.6653449352
1	5278	261669.291875152786	667.70707558391
1	5283	261803.933940049734	323.57058212249
1	5291	261929.087219108214	84.776433367675
1	5317	262700.58361449035	193.50451104434
1	5322	262861.051628721187	280.83868692148
1	5327	262899.008443921607	300.26007179391
1	5379	265792.480366890316	26.264195958299
1	5387	266074.960609584207	204.8523462661
1	5402	266688.849632362946	477.35090754607
1	5431	267783.159579766277	122.32288011432
1	5455	270417.925571216047	0
1	5463	270566.004956260135	0
1	5481	272090.87596557874	0
1	5490	272731.751435422614	263.78847331643
1	5505	273494.972006898879	743.12168281571
1	5510	273665.493773775052	312.61464582306
1	5518	273687.015672575024	14.29639561366
1	5568	275985.249904258556	770.92405622181
1	5574	276057.837119849869	319.33649766303
1	5582	276158.563140820497	23.053672017287
1	5593	276445.769652481867	264.24911862124
1	5607	276971.36434576153	0
1	5615	277239.145279002763	186.04103779197
1	5623	277530.651078129812	39.595555869927
1	5640	277868.611417782115	0
1	5676	278932.376037300944	145.97633697012
1	5685	279944.852800287276	1125.0089585817
1	5710	280435.997000808611	223.31895278278
1	5748	281298.017135726786	15.999794423855
1	5774	283250.779755355891	0
1	5782	283362.366867327649	29.075782570723
1	5799	284199.436545845539	128.41132726682
1	5842	286986.337220236025	0
1	5851	287909.761654256013	0
1	5870	289881.320210311581	0
1	5879	290771.539502331541	0
1	5896	291650.892506549495	0
1	5904	292121.014378786098	0
1	5922	292460.823391809962	304.4198861474
1	5930	292968.3890414601	702.32985199543
1	5935	293035.925893510794	79.630635121393
1	5959	294023.264073157735	48.572321726131
1	5970	294738.407472841219	722.3790563886
1	5975	294825.484071749584	407.53310465062
1	6029	297604.730494127133	100.53422230989
1	6040	298039.329635158766	430.20801071718
1	6046	298512.01596618206	533.59072281729
1	6079	299982.768319428325	216.60262010829
1	6085	300077.838330864067	111.59504003741
1	6102	301678.117954558579	399.63210450463
1	6114	301995.003295005264	214.40599441254
1	6119	302116.610423562697	167.92115389437
1	6130	302256.232359924341	60.019914010969
1	6138	302478.900377788816	90.819552542965
1	6152	302880.141693303147	138.57091517695
1	6168	303327.907898197855	228.77921484305
1	6182	303655.83194733914	0
1	6220	305494.291076958414	82.493358791616
1	6252	306591.26964009271	89.962993203197
1	6261	307035.584722555688	321.93130555021
1	6281	307619.893574295428	515.15813513509
1	6287	307794.113221501477	476.48663315711
1	6292	307928.382378294203	401.22757312673
1	6318	308481.58430750877	134.58809201941
1	6352	309529.026256657204	151.06497386513
1	6383	311854.922248757039	0
1	6392	312108.667749278144	248.89992434114
1	6400	312201.393463188047	0
1	6434	313962.256064259053	0
1	6446	317460.941419190637	0
1	6465	317851.727532791491	270.43587360712
1	6496	319397.861201556325	0
1	6505	320475.66477854891	0
1	6514	320579.479031359088	0
1	6531	321580.362467463593	24.605099789189
1	6555	322244.47319527179	0
1	6585	327108.753994282596	0
1	6601	327310.905095570332	0
1	6610	327877.323687171639	0
1	6619	328967.759804894518	0
1	6642	329555.517971412457	395.6734714529
1	6648	330037.109660717552	543.51674157506
1	6669	330509.289186227018	77.244252727592
1	6708	333646.31482747415	32.318034932246
1	6721	334113.279730777445	37.748491275879
1	6745	335216.480254147466	74.676293383915
1	6750	335297.320600623787	126.68819275215
1	6763	335731.392076866758	89.21047708374
1	6775	336216.487805040747	82.735933811646
1	6816	340260.736225978764	0
1	6836	343006.431764033754	1307.1253986665
1	6844	343240.524565810532	0
1	6853	343802.254630954953	149.07020929162
1	6861	344350.755033297657	0
1	6879	344880.486911358377	427.2129645282
1	6888	346272.599292486167	1776.4393155627
1	6894	346429.410783587095	1918.735457543
1	6920	347084.474235255092	0
1	6935	347489.315162212294	256.55240232041
1	6970	348383.404961034695	0
1	6999	350449.409309506292	154.22546258364
1	7013	351171.218945433915	0
1	7037	352503.846855561404	379.52378783504
1	7045	352751.349121996852	561.48295988075
1	7053	353106.57534487671	883.88836908759
1	7065	353472.184862795354	771.90144651794
1	7070	353621.504012501292	752.74975388607
1	7080	355022.281042793209	1732.8912542331
1	7128	358000.141870427795	145.35994576778
1	7144	360282.799503350929	0
1	7164	361005.353975543956	289.84582721717
1	7169	361083.501779177332	232.47536276968
1	7214	365377.353572960268	0
1	7223	366457.777458767215	0
1	7231	366563.411708061313	0
1	7239	366829.760626005015	0
1	7257	367721.841081836619	0
1	7267	369801.210347754663	0
1	7281	370062.438402302018	89.217738428396
1	7303	371142.349471030358	467.47303252848
1	7309	371628.249691738331	558.25080074641
1	7326	372272.050863187511	8.417149870729
1	7334	372851.206034674671	0
1	7368	373847.605798445236	148.54233253324
1	7391	375106.490160825846	428.2662373687
1	7403	375771.195554862542	555.35795843478
1	7408	376028.340154976691	561.86545970352
1	7420	376664.113834371059	191.39804264177
1	7444	378212.266161455482	106.75694296535
1	7460	378436.57650809898	34.424458794915
1	7468	378663.462762217802	81.481722019314
1	7530	382514.857739599209	0
1	7539	383255.256833176729	0
1	7555	383596.620588832315	9.277570777308
1	7564	384047.620590078947	137.54480651519
1	7589	385371.439288686713	21.565644775471
1	7607	386301.546765948297	508.80117247774
1	7616	386764.274459327478	885.45784421311
1	7643	387809.238055150482	913.88157015374
1	7665	389021.187156891561	0
1	7674	389486.624193748069	0
1	7683	390151.540149869186	0
1	7691	390605.057483448116	75.925977875912
1	7699	390840.880927324099	0
1	7708	391367.587775613956	0
1	7760	394836.8527221885	0
1	7772	395207.95260256465	231.41214061835
1	7785	395729.177278333554	0
1	7802	396579.53771350754	0
1	7811	397241.860588980711	0
1	7820	397851.229451253242	0
1	7845	398895.80040032232	0
1	7853	399404.98444679893	0
1	7878	400216.422194896252	167.75364908758
1	7890	400773.729783578665	382.94302117523
1	7895	400826.845920897624	428.63202340549
1	7936	401967.56456756633	0
1	7945	402333.48760433975	0
1	7961	402636.653162822015	0
1	7978	403361.970280715638	209.72624461064
1	7995	403933.586380203453	7.317345029018
1	8011	404466.729210877547	0
1	8036	405281.963383520835	0
1	8056	405806.62865741872	36.394513967975
1	8086	407045.807927283884	0
1	8095	407550.379850232167	0
1	8103	407721.239100049759	0
1	8114	407988.812693924469	88.067411731111
1	8126	408426.011937935771	475.90654672929
1	8131	408532.739162620409	232.39056310359
1	8155	409918.126197296292	1055.8664790705
1	8193	411409.315411930637	479.32318747701
1	8202	411579.943274858978	218.02445364891
1	8207	411868.169656347229	384.41162520089
1	8253	414466.480870977162	453.82810219433
1	8259	415255.262844236833	970.06243501473
1	8272	415497.518136476245	138.96014069847
1	8281	416189.621280588991	0
1	8290	416811.593664934753	0
1	8316	418551.36406926813	341.48162612274
1	8328	419470.771972469417	689.83609285046
1	8336	419599.318901866572	123.49946980115
1	8345	420441.265918681642	561.3236931976
1	8363	420974.538105863142	215.27617492598
1	8403	422526.504917116534	910.6930229267
1	8412	422664.222116266462	676.05789206203
1	8420	423330.182941891097	336.80749499602
1	8434	423800.340057408617	0
1	8445	424165.648352473482	100.82242205891
1	8475	425014.588268009988	0
1	8484	425172.882607552515	0
1	8492	425502.941995928833	0
1	8506	425839.971784697696	36.858894403349
1	8512	426175.689360142821	369.35307143174
1	8536	427142.959153081022	677.70643310373
1	8592	428335.242164934897	134.3714853486
1	8598	428737.325906116	470.33969051791
1	8625	430118.54148968108	0
1	8633	430286.250885185266	87.110891601265
1	8650	430868.233074009506	0
1	8660	432285.305578088487	1116.3209586674
1	8676	432824.86951192514	95.500987965669
1	8691	433408.050975191983	204.61009045491
1	8706	434073.187781832077	463.81641841549
1	8711	434148.146787502187	292.79578259147
1	8732	434478.047469303781	119.39684179127
1	8767	436301.193529555347	673.77981191919
1	8788	436792.050019521471	43.269427078624
1	8805	437483.204388652179	137.57691576051
1	8819	438206.171912092987	0
1	8827	438582.922953761292	46.283215696752
1	8835	438822.303346471912	80.720866492498
1	8844	439007.436391108019	0
1	8860	439434.280860157464	43.661442437092
1	8872	439931.872634229532	437.27771636247
1	8894	440786.793953184551	0
1	8945	443145.583888921992	135.10730262736
1	8954	443428.639487792474	382.87493059633
1	8978	444293.094684423698	7.332198760985
1	8998	445309.330018306423	334.17945978496
1	9003	445359.442958899953	73.921421174053
1	9021	446393.791107324731	899.18748405882
1	9026	446440.746276093601	292.70259130106
1	9074	448898.517305370228	25.259594162379
1	9091	449308.835658076515	318.63390037047
1	9096	449576.781446242288	566.13351417876
1	9118	451372.068927937672	1506.6401711976
1	9123	451483.524446165659	1494.375739539
1	9129	451875.926224408409	1831.735108852
1	9134	452353.122565988943	1410.7392316589
1	9143	452595.272373549603	54.725903257381
1	9188	454559.763894650618	945.58280066327
1	9221	455861.924214508836	82.802825579248
1	9238	456381.903299033656	109.88540806297
1	9252	457546.192860182691	396.30485891845
1	9266	458093.399154019399	396.63148974277
1	9274	458501.635692057575	358.62891948745
1	9314	462507.336919507639	266.5263517091
1	9319	462564.381802083992	106.15175528187
1	9337	464135.742478120272	0
1	9345	464355.23064150042	0
1	9354	464729.769874672519	0
1	9370	465350.863665558898	0
1	9414	468545.801544956699	0
1	9450	470717.369690998471	1738.7069672822
1	9455	470775.807462844364	1709.0001705763
1	9460	471076.706734835365	1231.3667369083
1	9483	472363.148285633847	520.00425177036
1	9492	473577.165160155531	0
1	9503	473743.131671751547	39.57476720227
1	9532	475447.738546775181	164.3484304541
1	9561	477531.039249836829	0
1	9569	478265.72520865144	677.79379019058
1	9586	478812.828017935211	0
1	9594	478941.068629303693	0
1	9615	480330.677870613245	1015.702172968
1	9627	481188.104107580984	371.31065092709
1	9635	481232.506754681864	136.6137332145
1	9662	482069.205450558866	0
1	9686	482461.160868359568	0
1	9695	482641.685895414527	0
1	9738	485791.470396919145	16.032313171686
1	9746	485948.120577832178	47.913037954471
1	9767	489498.615879045824	0
1	9783	490071.272544778405	0
1	9792	490969.693874429456	0
1	9801	491789.209702278645	0
1	9813	492110.481002798614	226.73057903156
1	9825	493018.815181149339	955.46322890451
1	9830	493200.001515828148	800.15860771139
1	9835	493229.329490511449	679.48180109642
1	9856	494640.618711710906	658.54724315293
1	9890	496624.973755503625	51.15902838731
1	9921	498309.504603304264	123.01965142702
1	9929	498703.60107044303	0
1	9938	498883.766028116243	0
1	9946	499112.752912627006	0
1	9957	499490.162211662109	264.69152725855
1	9972	499780.276922286259	159.21788108245
1	10008	501820.334293934967	237.97934725588
1	10021	502215.54864495657	0
1	10041	502614.953682502381	81.492415545337
1	10054	503051.738697344042	109.78956927865
1	10086	504090.434631278941	193.27600244442
1	10106	505389.316592153823	683.24519905952
1	10125	506206.825692264541	134.70956008532
1	10155	506835.381722852495	84.830152998612
1	10165	508501.977663923237	0
1	10181	508674.806269501562	0
1	10189	508755.603039682204	46.69165805073
1	10204	509439.619160315906	631.16361470812
1	10212	509674.446103999051	508.99579099088
1	10231	510293.261951389773	89.102128656023
1	10243	511003.833031303613	634.90644673874
1	10260	512170.503432223398	339.01510547595
1	10265	512204.024568718415	168.80653980281
1	10277	512704.385514954591	119.01289933232
1	10306	514289.214814913942	774.24172350424
1	10359	517579.917747281532	0
1	10378	519753.916028698958	0
1	10395	520939.202346484326	0
1	10413	521915.550734895102	593.30517616536
1	10428	522197.074355879206	599.45176774403
1	10436	522441.640845366096	668.38080116747
1	10441	522503.029755560507	521.49020147925
1	10446	522506.984899517378	472.9892231464
1	10454	522704.486217183105	480.43855690814
1	10463	522906.92161511003	380.64206489212
1	10471	523234.529848274981	381.10024149427
1	10501	524088.458945159948	578.15732683203
1	10512	524310.018113139862	476.22219673529
1	10529	524659.71185844958	19.493791540743
1	10541	525611.754910996459	368.41007547748
1	10553	526558.264028921563	766.7687172852
1	10569	526985.795423436537	181.02855391096
1	10575	527457.498684804932	550.55652578292
1	10604	528222.56718476536	148.88859408436
1	10609	528463.615384309575	251.8621103012
1	10640	529601.732577057159	403.33632938545
1	10649	529797.926006726846	467.78759967505
1	10654	529931.621968920053	474.96217149188
1	10666	530637.659415540806	535.88079505654
1	10674	530770.758813440082	350.18905136745
1	10679	530881.461208632029	194.51397691457
1	10751	533048.896386372927	244.85903456592
1	10804	535112.840521651758	0
1	10812	535489.888292895029	0
1	10830	537014.869355177629	0
1	10856	539045.94272327161	0
1	10865	539528.420361330435	450.3242913159
1	10900	541936.129311218875	0
1	10917	542949.436330874621	243.01309444034
1	10925	543219.641549729131	0
1	10955	545695.873816951008	446.41779305202
1	10960	545702.80043956677	116.00394970513
1	10969	546477.224380621812	348.88882315256
1	10977	546765.051519571499	206.23814804239
1	11001	548010.371112175897	818.13476229904
1	11013	548896.683797523443	1704.0962617448
1	11018	549003.092859512326	1710.1379512571
1	11026	549270.563570469627	203.59012880489
1	11070	550506.145825633422	8.941712539784
1	11093	551577.463501042627	514.14206023491
1	11101	551622.164123087769	340.54177119087
1	11128	552164.271231906733	0
1	11154	553987.469297507954	0
1	11171	555220.975159517243	0
1	11179	555364.716916355011	44.242655811024
1	11188	555593.197714148218	0
1	11206	557450.003589682163	0
1	11215	558415.141999040096	0
1	11223	558546.588012209458	0
1	11235	558912.303624831463	110.36860218093
1	11249	559593.416300694976	419.92285862543
1	11258	560099.625582559304	379.00557931859
1	11307	562046.871233730089	0
1	11325	563456.645121137759	0
1	11344	563791.657557844826	21.646434903795
1	11361	564165.169164603294	179.90588345025
1	11376	565754.675590554788	0
1	11384	566518.070465101148	0
1	11426	569407.554655334377	582.40891776111
1	11438	570221.055252073781	1252.6566565729
1	11443	570262.431799602194	633.79126148272
1	11448	570374.037321489855	704.52580166369
1	11487	571752.776692300665	0
1	11504	572686.860724551504	629.36515233703
1	11521	573486.289757967968	0
1	11538	574331.496318170591	0
1	11547	575641.059662375551	0
1	11564	576850.831471205581	181.08141949479
1	11580	577898.613285597156	983.97323298455
1	11588	578364.244619535225	568.5018046743
1	11609	579131.528471393849	941.6065666216
1	11614	579286.14351224381	887.46528669201
1	11623	580101.692649604443	1239.0376421805
1	11667	582541.975566875163	0
1	11676	583039.707385459384	0
1	11684	583298.1563468397	0
1	11725	584227.954409210848	0
1	11736	584548.424461979231	261.75233278104
1	11745	584651.57958683475	8.854567989105
1	11759	585583.952135029942	0
1	11776	586413.101047932462	0
1	11792	587076.879445501426	122.64312518477
1	11802	588173.866447472344	0
1	11818	588743.356537558379	0
1	11855	589909.984376212663	43.25169476621
1	11878	591914.193362348895	842.55259308028
1	11890	592534.989713809682	559.8180388285
1	11895	592592.68745814903	358.61868880952
1	11913	594823.976247587921	0
1	11922	595096.922539928048	0
1	11930	595331.806933491275	48.95718378164
1	11980	596952.3204653215	27.659143120031
1	11988	597328.210265240786	5.989794881801
1	11997	597822.078127906744	72.405345300452
1	12039	601297.695071514458	246.26094945905
1	12051	602054.773552295867	720.36585258188
1	12056	602417.335053403249	851.80269535901
1	12084	603422.968747965196	585.86517811067
1	12090	603611.621565090949	247.73958252039
1	12116	605108.107834491049	647.22458355705
1	12122	605367.847652341754	459.34176504996
1	12135	605788.296650454445	51.960987147497
1	12170	606949.117686138326	696.75868702365
1	12175	606954.504182467653	367.85705287503
1	12180	607183.316699479733	383.14863616754
1	12214	608587.730119712968	672.64074950576
1	12242	610591.008428871937	754.53416507596
1	12261	611643.437801317658	0
1	12271	613613.541269285196	0
1	12280	614464.575378531993	0
1	12305	615000.421299642335	126.48685968555
1	12324	617909.984652085875	0
1	12333	618128.108592892914	0
1	12357	619837.140703749419	864.72690730276
1	12370	620248.602311458832	32.371413326134
1	12384	621125.87941830976	0
1	12401	621752.318080409858	0
1	12418	622931.308912015016	0
1	12436	624659.670831214161	0
1	12445	625246.367191183056	128.03691710008
1	12471	627283.699110568008	0
1	12480	627889.151939388543	0
1	12498	629219.119908759523	0
1	12506	629311.349637041941	0
1	12522	629734.407602543089	0
1	12531	630123.079519315941	235.30971495979
1	12553	630689.332341286886	376.50242765446
1	12565	631241.219510016149	244.49916172569
1	12589	632173.900513279964	274.7852401809
1	12636	635221.043846484491	32.001731497973
1	12644	635254.039704432797	24.953639583371
1	12679	637881.094037316371	11.303812628186
1	12693	638644.22700041472	0
1	12701	638829.140443314577	0
1	12719	640454.572170010614	0
1	12734	641330.315465466487	375.90685332087
1	12760	643307.186892509907	526.22342770729
1	12780	644592.842889797545	0
1	12801	646744.368511872843	1255.2362673008
1	12806	646761.675341977537	241.61938404106
1	12824	648362.51730209127	120.4720492187
1	12840	648846.28774852899	92.672541191958
1	12857	649504.168119193229	31.993551419729
1	12866	649982.214282611251	0
1	12882	650174.268203497081	0
1	12890	650457.522019150936	0
1	12899	651225.867391153058	0
1	12908	651471.103407158956	0
1	12924	651803.539315554627	0
1	12932	652219.915634183713	279.81320648666
1	12941	652808.578605867607	0
1	12972	654629.617152626188	1651.1420127181
1	12978	654998.053589261258	876.88258582733
1	12983	655240.02874208732	712.44417946206
1	12988	655240.731099721643	704.46865604494
1	13042	657170.318190581892	0
1	13054	657586.638148188067	167.10416963459
1	13065	658183.621731126634	466.13824088468
1	13122	661386.328086516509	436.94901469776
1	13130	661686.192286060257	522.5861874864
1	13160	662563.918421043612	19.700623319563
1	13197	666693.272029096775	0
1	13215	668580.742125980126	0
1	13233	670201.528173342777	0
1	13242	670685.34998817952	10.274321654746
1	13263	674613.640762070618	0
1	13271	674855.194537380468	225.71092351386
1	13286	675801.61227753715	803.78351269267
1	13294	675912.497072150342	170.03357276433
1	13302	676200.722935708938	27.042478250512
1	13319	677102.418037848182	87.700158341726
1	13346	677670.926113847217	0
1	13358	678410.398380371608	145.00729407295
1	13388	679275.792940146541	155.20983701794
1	13396	679575.061441364256	0
1	13414	679870.268801195857	217.35297334232
1	13422	680313.611245921361	641.38228730766
1	13428	680701.224507371873	551.53534153482
1	13439	680983.009213185889	210.51442505095
1	13451	681678.463496016011	365.06788047333
1	13500	683470.259194965279	201.05572239242
1	13518	684067.562267980188	613.76366590902
1	13523	684347.567886933259	465.64234049959
1	13537	684651.414625005781	666.49249474618
1	13548	684825.092333685064	376.21207580459
1	13554	684969.008278450218	397.30361225087
1	13562	685164.164276326045	542.62389169088
1	13567	685279.015486507235	530.11432084627
1	13575	685438.762765626617	371.40649256561
1	13583	685585.223776314614	64.851165978314
1	13600	686116.478577020088	17.041359235845
1	13620	686514.934724453905	214.80084762589
1	13626	686985.920992079965	639.57014294122
1	13634	687153.998173063235	704.3867870398
1	13655	688379.91373144804	196.61912713556
1	13663	688937.146972384258	673.64762803727
1	13669	689253.772895588546	763.21896664942
1	13720	690408.898659010022	402.18661375542
1	13728	690638.28632789848	526.70092456411
1	13734	690915.076594877339	277.78009940396
1	13777	691949.838169042757	168.96449949148
1	13820	693626.189645103751	170.39636570017
1	13849	694820.683373214212	46.817317401553
1	13872	696058.58689315536	0
1	13889	697494.684771597908	0
1	13906	698247.662395550979	122.51697894237
1	13915	698684.377023823787	0
1	13943	701470.617923958921	634.33968538142
1	13949	702565.421478689717	1270.9988567462
1	13991	704370.370894315042	74.723696221254
1	14010	705108.987684474875	0
1	14037	706483.223619447919	737.87046816595
1	14042	706939.493749442048	952.14223375003
1	14054	707194.864041225642	1023.2630994228
1	14062	707352.630353516293	345.90295914361
1	14115	712976.800286780178	0
1	14125	714041.973850124541	0
1	14142	715442.917958024458	0
1	14160	716964.4455945025	0
1	14188	720235.860436049728	0
1	14206	721966.559534345977	0
1	14216	723792.658002558078	0
1	14224	724263.677911392567	325.94496755412
1	14259	726407.381608618647	0
1	14277	728085.952854765372	21.828290456373
1	14285	728135.593877769094	37.998887149121
1	14302	729012.588763037971	265.03254930358
1	14323	733058.948618415081	0
1	14332	734406.281323102548	0
1	14341	734724.942345926145	0
1	14359	735792.43833898976	1060.5653579365
1	14364	735879.268590101214	164.32329851207
1	14369	736068.461773386565	289.53343106273
1	14410	738392.494320689596	1291.4373385344
1	14415	738785.862382730857	980.97802462821
1	14427	739349.499590295663	1163.807982547
1	14432	739430.138364770798	419.16520293034
1	14458	739824.602121839384	327.08266195578
1	14463	740263.443279449773	729.9481891583
1	14472	740916.676088220929	257.80458904689
1	14492	741844.266646058236	512.17685645442
1	14534	743194.300602285891	233.82926103011
1	14542	743461.97022927396	417.61166838471
1	14547	743472.905289546489	97.372352941623
1	14555	743936.822855698835	292.89554372457
1	14572	744314.849344623596	129.07025602571
1	14617	745581.797714496407	0
1	14634	746549.779549298214	0
1	14643	747323.026604450398	0
1	14663	748034.137639688285	159.50159595826
1	14680	748879.850266501248	193.12466316457
1	14737	751887.042103511647	0
1	14748	752294.772466349226	385.08985425997
1	14753	752554.195934164453	639.98184327829
1	14764	754934.862057826964	0
1	14779	755994.225838996532	1033.0373849326
1	14784	755998.076161095426	676.9275906883
1	14810	757223.630638784222	14.051307986039
1	14823	757660.941190304257	0
1	14853	759954.250494411882	267.65454228373
1	14878	760838.412797108744	42.851918571887
1	14902	763479.922181394905	0
1	14919	764448.182269222233	231.13247808458
1	14928	764670.262599667786	0
1	14945	766125.840982291408	0
1	14962	766783.282142661598	0
1	14970	767126.465168564794	211.17489598618
1	14979	767330.842576824495	0
1	14987	767558.638728787135	0
1	15007	768192.299773613506	257.16814992482
1	15012	768238.302407881597	160.33480504052
1	15040	769225.14721334963	90.907748267416
1	15056	770848.546151825892	476.63958765391
1	15076	771762.171249398429	370.74535965099
1	15085	772628.09425378424	1110.6535666752
1	15093	772758.439018368595	1165.7238466392
1	15099	773207.401465953563	664.98441434025
1	15104	773428.96591460038	719.26841965318
1	15129	774241.620809683883	46.903897324559
1	15142	774386.698233213097	40.147868128514
1	15190	777384.478138900052	0
1	15207	778055.669925064547	0
1	15221	778230.55944820388	89.808673636269
1	15230	778542.302559603757	345.93596559337
1	15247	779071.200174652469	192.36983216441
1	15262	779761.543514512935	192.42133429739
1	15283	780905.725743947819	246.52591023011
1	15288	780989.491354975263	94.984882721663
1	15306	781446.407210114903	50.244282269556
1	15340	782123.729378625529	0
1	15357	782658.337152077962	0
1	15389	784768.931490769255	630.66116462673
1	15394	784868.455332021999	599.78880906452
1	15416	785703.495287729558	89.755591650144
1	15460	789266.8443125347	142.42978831631
1	15470	790727.455942978654	0
1	15498	794297.01547939582	0
1	15515	794808.505567200001	251.43144683391
1	15532	795976.267052331297	0
1	15549	796949.266438837302	42.178798765057
1	15558	797192.201472272545	193.3665049062
1	15568	799038.290898204214	0
1	15576	799392.618078874008	0
1	15630	804245.768842229402	234.81199591579
1	15638	804492.695763208172	0
1	15647	805392.886003436092	0
1	15656	805847.046155523541	0
1	15665	806639.087170323584	0
1	15690	807491.119081781568	41.340144837842
1	15708	809193.861744012794	0
1	15719	809494.211108737811	233.44939703094
1	15724	809651.435705583547	158.45987266245
1	15732	809812.105806973154	67.26303674424
1	15759	812388.061502290801	169.13981237836
1	15805	815105.506789822656	4.269785270833
1	15819	815973.428388323893	0
1	15837	817135.274265474149	0
1	15848	817311.436574503553	43.49527890627
1	15859	817382.16700668087	74.398039306781
1	15877	817661.470543229022	0
1	15886	817962.660493158883	0
1	15895	819058.12376072156	0
1	15903	819220.958889239477	160.0415120453
1	15912	819543.392176829765	0
1	15940	820182.978066952895	425.02050256404
1	15949	820726.976222611926	190.68377340727
1	15961	821234.330403873039	2.424078124467
1	15987	821930.091088783361	117.08517413053
1	15996	822313.663329671088	373.86166529436
1	16004	822511.337741016906	39.354393137088
1	16022	823504.974719404193	692.85675770162
1	16040	824425.654497825974	1485.4120411117
1	16052	824953.314296263998	603.25399879055
1	16061	825589.692805962141	1141.5215974079
1	16069	825857.337155244753	335.9615190876
1	16088	826607.328326456409	509.63455627364
1	16106	827127.983669217351	47.045757133912
1	16115	827346.667858242411	67.119855819148
1	16128	827745.163778341494	113.31007434752
1	16153	828327.409573112638	31.389105221566
1	16167	829034.847527655799	95.512078191295
1	16193	829247.957951193327	65.965000842136
1	16222	830608.928332953737	787.06154908984
1	16227	830750.378772616121	835.83256468478
1	16232	830832.015423238255	361.72839662491
1	16253	831379.830632985533	0
1	16316	833778.860782022402	844.87887589452
1	16325	834104.640942640871	1049.8799800086
1	16330	834339.30458196718	712.9060360886
1	16335	834735.255481915788	1095.4222153604
1	16348	834865.931921285442	17.646128197325
1	16374	835867.087446368582	233.58288021663
1	16396	836622.579441502069	0
1	16414	838652.148425774115	0
1	16433	838991.957694432537	255.73094070329
1	16454	840066.129817345601	84.193206458259
1	16471	840987.452564217253	321.79904101423
1	16507	842990.625927999529	0
1	16532	844270.746516723433	67.462005677779
1	16541	844471.398968167608	0
1	16569	845938.080806570047	500.84133653272
1	16575	846051.868559043505	225.04833355924
1	16583	846229.455175163463	0
1	16601	847213.762409114842	109.13579770004
1	16606	847306.396054996067	128.92449933203
1	16619	847556.825733412023	58.125275953179
1	16639	848321.02110075238	212.78560932818
1	16676	850779.569766464257	0
1	16688	851191.783953436033	169.32329749859
1	16718	852615.20508572547	0
1	16736	854089.356662915713	0
1	16753	855083.913260794182	0
1	16779	856754.734589071042	285.51163762031
1	16787	857003.347054804267	0
1	16830	859276.715378003368	103.81986015677
1	16847	860080.146694997996	0
1	16856	861083.471311155741	0
1	16864	861101.329817415765	0
1	16890	863019.519377809175	782.47261825958
1	16907	863704.908989013505	0
1	16925	864800.376104596675	879.5282324564
1	16930	864860.800776706334	653.12165968028
1	16936	864931.369583139315	308.40392754512
1	16950	865813.399691045473	0
1	16958	866175.475321676191	0
1	16983	867049.76446355912	0
1	16995	867583.553969604111	341.37913300438
1	17011	868074.908150998507	253.09730383187
1	17025	868607.116224991428	190.52308282346
1	17042	869253.66778598204	0
1	17062	869948.273264287913	320.73492073585
1	17068	870147.988897678309	237.05211519224
1	17108	871975.906329437748	1125.4081834831
1	17113	872046.747350637223	938.63167134389
[...]
7	12885	650279.452885982686	4
7	12893	650519.680912452131	5
7	12903	651447.179234009853	6
7	12910	651594.024349378176	5
7	12914	651635.259101355317	6
7	12930	652219.915634183713	7
7	12936	652341.186878589097	8
7	12947	653317.271801502623	7
7	12950	653323.014458708911	6
7	12953	653420.080198250334	5
7	12956	653931.615786471212	4
7	12970	654629.617152626188	5
7	12976	654998.053589261258	6
7	12981	655240.02874208732	7
7	12986	655240.731099721643	8
7	12990	655477.675791977794	7
7	12994	655582.649732406675	8
7	13019	656438.442860701025	7
7	13028	656949.504029708707	6
7	13048	657574.879131922509	5
7	13052	657586.638148188067	6
7	13059	658090.473467109161	5
7	13063	658183.621731126634	6
7	13069	658696.028777972403	7
7	13079	659512.81599517964	6
7	13082	659547.533390604129	5
7	13085	659695.182492488459	4
7	13099	660458.47654299092	3
7	13124	661464.11843638423	2
7	13128	661686.192286060257	3
7	13134	661735.410623674532	4
7	13141	662169.643357885892	3
7	13149	662477.652790970854	2
7	13164	662648.046753939618	3
7	13168	664319.193282066408	2
7	13176	664713.955248091477	1
7	13186	666532.739620115408	0
7	13200	666810.682338419386	1
7	13202	666827.824172390988	0
7	13219	668743.39017623318	1
7	13222	669908.937727984477	0
7	13240	670685.34998817952	1
7	13246	671533.73194301179	2
7	13248	671853.030990886739	1
7	13269	674855.194537380468	2
7	13276	675220.285953124854	1
7	13284	675801.61227753715	2
7	13288	675819.025788045801	1
7	13292	675912.497072150342	2
7	13300	676200.722935708938	3
7	13304	676261.42532315765	2
7	13309	676738.088866580175	3
7	13321	677129.815831011085	2
7	13326	677221.273729710529	3
7	13348	677875.407035899469	2
7	13356	678410.398380371608	3
7	13360	678446.78219601388	2
7	13364	678512.186919279	3
7	13377	679071.548328657236	2
7	13391	679377.563262210924	3
7	13405	679790.185118666244	2
7	13408	679815.044233972781	1
7	13412	679870.268801195857	2
7	13420	680313.611245921361	3
7	13426	680701.224507371873	4
7	13433	680884.422356596683	3
7	13437	680983.009213185889	4
7	13445	681603.934836319511	3
7	13449	681678.463496016011	4
7	13453	681906.025767816681	3
7	13457	682107.86533056	4
7	13482	683082.675372978836	3
7	13502	683616.665760720032	2
7	13505	683721.058801993263	1
7	13516	684067.562267980188	2
7	13521	684347.567886933259	3
7	13535	684651.414625005781	4
7	13539	684703.490086232047	3
7	13546	684825.092333685064	4
7	13552	684969.008278450218	5
7	13560	685164.164276326045	6
7	13565	685279.015486507235	7
7	13569	685433.678281635418	6
7	13573	685438.762765626617	7
7	13581	685585.223776314614	8
7	13586	685657.368908730346	9
7	13590	685658.581188324343	8
7	13605	686318.088607144087	7
7	13611	686371.68991792265	6
7	13618	686514.934724453905	7
7	13624	686985.920992079965	8
7	13628	687123.458894972379	7
7	13632	687153.998173063235	8
7	13636	687372.266875568755	7
7	13641	687643.099531160649	8
7	13661	688937.146972384258	9
7	13667	689253.772895588546	10
7	13672	689295.733945603134	11
7	13681	689339.926873120479	10
7	13684	689438.512988200491	9
7	13687	689559.832877393785	8
7	13690	689680.16131310684	7
7	13705	690180.095900957654	6
7	13708	690329.274650689071	5
7	13711	690378.423144676648	4
7	13714	690399.738338982329	3
7	13726	690638.28632789848	4
7	13732	690915.076594877339	5
7	13737	690959.003650537	6
7	13741	690984.58232692114	5
7	13754	691409.234382138085	4
7	13771	691879.745078516347	3
7	13780	692051.97285756046	4
7	13814	693501.51007992793	3
7	13823	693996.349549224074	4
7	13853	695254.358454015664	5
7	13857	695403.748460329854	4
7	13875	696199.746685280012	5
7	13878	696939.250520330196	4
7	13892	697707.916201195407	5
7	13895	698091.028241529105	4
7	13909	698275.74523683853	5
7	13918	699106.450863493364	6
7	13921	699832.333900013685	5
7	13927	700656.20070933248	4
7	13934	701162.18479668202	3
7	13947	702565.421478689717	4
7	13952	702685.793451638636	5
7	13957	702908.758503723286	4
7	13960	703186.838213592057	3
7	13963	703272.105572066966	2
7	13976	703485.402462725157	1
7	13994	704456.970850582977	2
7	14013	705161.200982297368	3
7	14016	705534.324045333317	2
7	14030	706176.818340781252	1
7	14040	706939.493749442048	2
7	14044	706972.90571309421	1
7	14052	707194.864041225642	2
7	14056	707269.771097821966	1
7	14060	707352.630353516293	2
7	14065	707397.061759009001	3
7	14080	708487.770415852492	2
7	14092	708957.796037090142	1
7	14102	710908.427365316572	0
7	14118	713134.754351707484	1
7	14128	714146.215389268049	2
7	14130	714281.08518386723	1
7	14145	715533.028247649442	2
7	14148	716195.609053485494	1
7	14162	716969.523679704033	0
7	14166	717233.132740098498	1
7	14174	717917.146425108496	0
7	14191	720576.109201309226	1
7	14194	721689.154564181589	0
7	14209	721979.370636642033	1
7	14222	724263.677911392567	2
7	14228	724385.64645898627	3
7	14230	724569.494500020026	2
7	14238	725058.24998079317	1
7	14247	725744.792914140808	0
7	14262	726437.853056883933	1
7	14265	726909.730108235565	0
7	14283	728135.593877769094	1
7	14287	728434.66599525848	0
7	14292	728595.586156214409	1
7	14306	729482.886085139077	2
7	14309	730387.836462391168	1
7	14326	733152.55299730199	2
7	14336	734587.973156183215	3
7	14346	735358.916434137568	2
7	14357	735792.43833898976	3
7	14362	735879.268590101214	4
7	14367	736068.461773386565	5
7	14371	736109.531489790606	4
7	14375	736177.870392637804	5
7	14388	736464.071998788533	4
7	14393	736484.183289615529	3
7	14413	738785.862382730857	4
7	14421	739147.164824385316	3
7	14425	739349.499590295663	4
7	14430	739430.138364770798	5
7	14435	739445.616549467273	6
7	14442	739515.122094790157	5
7	14448	739544.8517045123	4
7	14451	739587.52481717582	3
7	14461	740263.443279449773	4
7	14470	740916.676088220929	5
7	14474	740934.591916320765	4
7	14478	741282.723186503902	5
7	14486	741522.877807293751	4
7	14494	741913.569840382543	3
7	14499	742305.828912731659	4
7	14503	742464.735743659954	3
7	14516	742947.218729320543	2
7	14540	743461.97022927396	3
7	14545	743472.905289546489	4
7	14553	743936.822855698835	5
7	14559	744098.728371468967	6
7	14563	744105.624909206863	5
7	14574	744398.55721685457	4
7	14578	744468.331591405139	5
7	14606	745499.311159250218	4
7	14620	745682.884885016066	5
7	14623	746222.476391127203	4
7	14637	746559.863510459094	5
7	14646	747386.055796101606	6
7	14648	747412.303348501972	5
7	14654	747728.048020528754	4
7	14666	748202.395643670199	5
7	14674	748857.166309120587	4
7	14683	748899.351894340691	5
7	14691	749186.360193227831	4
7	14699	749704.650019818131	3
7	14708	750161.544739665791	2
7	14716	750705.13196016103	1
7	14722	751136.644295273834	0
7	14746	752294.772466349226	1
7	14751	752554.195934164453	2
7	14757	753338.020995557182	3
7	14773	755476.583777342386	2
7	14777	755994.225838996532	3
7	14782	755998.076161095426	4
7	14787	756044.974575095661	3
7	14791	756398.280039458593	4
7	14801	757030.30517680512	3
7	14813	757330.935970165975	4
7	14826	757946.552405193392	3
7	14830	757982.111237339191	4
7	14834	758229.197535796187	3
7	14837	758316.204526096077	2
7	14856	760049.268159161071	3
7	14864	760745.03066011968	2
7	14872	760812.804911187571	1
7	14880	761051.861660087415	0
7	14885	761692.236229900821	1
7	14905	763687.902932066631	2
7	14908	763799.880355670327	1
7	14923	764668.396528678577	2
7	14930	764913.980158784254	1
7	14934	765035.334808249693	2
7	14948	766160.392055817168	3
7	14951	766756.772564902581	2
7	14968	767126.465168564794	3
7	14974	767236.713668957821	4
7	14982	767476.965802998464	5
7	14989	767826.614146948424	4
7	14993	767838.004301779464	5
7	15010	768238.302407881597	6
7	15014	768240.188271592997	5
7	15017	768586.586058483007	4
7	15020	768801.889574586457	3
7	15025	769007.334984434214	4
7	15042	769623.245158654367	3
7	15045	769729.512040733999	2
7	15054	770848.546151825892	3
7	15059	770958.4344613876	4
7	15083	772628.09425378424	5
7	15091	772758.439018368595	6
7	15097	773207.401465953563	7
7	15102	773428.96591460038	8
7	15106	773507.702775151016	7
7	15110	773623.533720087639	8
7	15119	773968.349103816935	7
7	15132	774275.121334142166	8
7	15144	774445.04961242415	7
7	15148	774611.811647367831	8
7	15158	774978.652164043434	7
7	15166	775147.277315730656	6
7	15169	775276.406986540937	5
7	15192	777424.578784042933	4
7	15197	777669.257090245205	5
7	15209	778131.808510896651	4
7	15219	778230.55944820388	5
7	15224	778454.662352619737	4
7	15228	778542.302559603757	5
7	15232	778585.47642783828	4
7	15235	778710.000732649869	3
7	15241	778934.328979640999	2
7	15245	779071.200174652469	3
7	15250	779184.619422881192	2
7	15256	779659.740855747044	1
7	15260	779761.543514512935	2
7	15265	780493.822919706271	1
7	15269	780646.476756908454	2
7	15286	780989.491354975263	3
7	15291	781100.376204578303	4
7	15309	781505.248356120655	5
7	15343	782193.424020278425	6
7	15345	782324.259214180409	5
7	15360	782848.104350388392	6
7	15362	783354.203771018987	5
7	15368	783740.597457503472	4
7	15376	784062.427266530146	3
7	15392	784868.455332021999	4
7	15397	785117.111441337711	5
7	15402	785355.894911095478	4
7	15419	785839.155990719458	5
7	15422	786183.549523601726	4
7	15430	786800.055419578975	3
7	15440	787816.852292391412	2
7	15449	788884.41090749096	1
7	15463	789431.487799866964	2
7	15473	790869.570655622748	3
7	15475	790918.191603253657	2
7	15485	792122.430785089254	1
7	15501	794454.80184903284	2
7	15503	794499.13355755503	1
7	15518	795160.417864190122	2
7	15520	795394.387764031476	1
7	15536	796335.746543428634	2
7	15538	796616.915528567245	1
7	15556	797192.201472272545	2
7	15561	797473.819671540256	3
7	15571	799052.678773599285	4
7	15578	799626.995971225582	3
7	15581	799688.313074993121	2
7	15585	799703.93545479339	3
7	15599	800845.051833524011	2
7	15609	802822.280174653198	1
7	15618	803774.034806446682	0
7	15633	804301.081843373362	1
7	15641	804549.406153378031	2
7	15650	805402.024243041351	3
7	15659	806481.478999768586	4
7	15667	806893.495136751508	3
7	15670	807148.782519544064	2
7	15674	807194.915660875703	3
7	15693	807625.595371748352	4
7	15695	808264.029028999217	3
7	15717	809494.211108737811	4
7	15722	809651.435705583547	5
7	15730	809812.105806973154	6
7	15735	809848.245761898134	7
7	15739	810984.605283342685	6
7	15748	812057.324960809618	5
7	15762	812450.216047557534	6
7	15765	812775.15180655677	5
7	15774	813789.136077441625	4
7	15779	814144.413752061765	3
7	15788	814692.877641580364	2
7	15796	815002.153071929035	1
7	15809	815334.667008203432	2
7	15822	815991.89976194647	3
7	15825	816253.907515338672	2
7	15846	817311.436574503553	3
7	15850	817358.27511323205	2
7	15853	817366.724332612353	1
7	15857	817382.16700668087	2
7	15862	817521.186424685495	3
7	15880	817700.082144109741	4
7	15889	817968.464972641237	5
7	15901	819220.958889239477	6
7	15906	819421.49305842799	7
7	15914	819633.20138051111	6
7	15917	819637.93472517123	5
7	15921	819668.61466515365	6
7	15928	819945.917719272634	5
7	15931	819968.392853429635	4
7	15934	820088.692436984541	3
7	15947	820726.976222611926	4
7	15951	820839.411860637204	3
7	15959	821234.330403873039	4
7	15964	821355.753637739073	5
7	15968	821525.989938483491	4
7	15994	822313.663329671088	5
7	16002	822511.337741016906	6
7	16013	822965.730176503773	5
7	16016	822974.227944634326	4
7	16020	823504.974719404193	5
7	16025	823766.067134008509	4
7	16028	823940.35260151671	3
7	16031	824028.116672359318	2
7	16038	824425.654497825974	3
7	16045	824554.72346238093	2
7	16050	824953.314296263998	3
7	16059	825589.692805962141	4
7	16063	825727.345479506432	3
7	16067	825857.337155244753	4
7	16072	825999.83548219675	5
7	16091	826779.673011319511	6
7	16113	827346.667858242411	7
7	16118	827439.930550739786	8
7	16131	827757.522805061291	9
7	16141	828106.393274342483	8
7	16147	828313.965616465319	7
7	16156	828747.080020135264	8
7	16170	829068.849087704502	9
7	16174	829107.833999551857	8
7	16196	829477.040918901259	9
7	16212	830050.450028311634	8
7	16225	830750.378772616121	9
7	16230	830832.015423238255	10
7	16234	830832.407668521728	9
7	16238	831016.962024774259	10
7	16256	831490.334557592225	9
7	16259	831622.025283407581	8
7	16262	832086.873070417072	7
7	16266	832120.179677221579	8
7	16270	832133.151926628157	7
7	16284	832464.4405477517	6
7	16304	833310.030287578219	5
7	16318	833951.189680348808	4
7	16323	834104.640942640871	5
7	16328	834339.30458196718	6
7	16333	834735.255481915788	7
7	16338	834744.014494739681	8
7	16352	834949.034025710185	9
7	16359	835224.545885469466	8
7	16364	835483.880613483511	7
7	16377	835930.945667772926	8
7	16381	836245.424566816269	7
7	16398	836744.046187794632	6
7	16402	836857.332537608459	7
7	16416	838663.659885547061	6
7	16420	838729.235965729626	7
7	16427	838793.480028285745	6
7	16437	839338.492134055197	7
7	16441	839431.809095200909	6
7	16444	839758.896642170247	5
7	16457	840418.079313013522	6
7	16461	840427.027232741613	5
7	16474	841017.602072299639	6
7	16478	841299.126134823962	5
7	16492	842047.542829061364	4
7	16510	843561.290163420033	3
7	16514	843643.210180502431	4
7	16521	844131.831976053013	3
7	16536	844338.954192716013	4
7	16544	844583.120840228428	5
7	16546	844738.43981817726	4
7	16554	845101.148240402168	3
7	16573	846051.868559043505	4
7	16578	846109.403150730892	5
7	16585	846468.075995559627	4
7	16588	846512.914299478622	3
7	16599	847213.762409114842	4
7	16604	847306.396054996067	5
7	16609	847486.537571310193	6
7	16623	847818.596594020317	7
7	16627	848060.959993208907	6
7	16630	848073.661582506929	5
7	16643	848702.819969113481	6
7	16656	849637.000247303866	5
7	16661	849684.41781560821	4
7	16681	851114.915877088583	3
7	16686	851191.783953436033	4
7	16691	851290.529816536135	5
7	16698	851620.578040530659	4
7	16704	852289.872596751523	3
7	16721	852688.142119833694	4
7	16724	853156.574390602019	3
7	16738	854092.099358433717	2
7	16742	854356.024890775769	3
7	16756	855114.306492844113	4
7	16759	855446.230967692216	3
7	16764	855778.730470000068	2
7	16782	856755.693658883882	3
7	16789	857081.841084151079	2
7	16794	857337.727909182367	3
7	16802	858383.391354750369	2
7	16808	858942.468331189316	1
7	16811	858954.295359693815	0
7	16833	859565.790880072508	1
7	16835	859672.758000121081	0
7	16850	860325.191216024256	1
7	16859	861094.298454744338	2
7	16868	861805.034864265953	3
7	16870	862155.883173031761	2
7	16878	862225.478139350882	1
7	16893	863412.166917455547	0
7	16897	863417.777414389801	1
7	16909	863886.092236864145	0
7	16923	864800.376104596675	1
7	16928	864860.800776706334	2
7	16934	864931.369583139315	3
7	16939	864943.535313517393	4
7	16953	865893.326714853724	5
7	16961	866335.529485800851	6
7	16963	866458.249733851892	5
7	16968	866541.445603462593	4
7	16988	867250.100010125865	3
7	16993	867583.553969604111	4
7	16998	867643.224374647865	5
7	17002	867719.180160490032	4
7	17014	868098.592092756266	5
7	17028	868676.569326689409	6
7	17030	868901.867789237294	5
7	17044	869471.315696333629	4
7	17050	869779.786029872257	3
7	17053	869789.679197403314	2
7	17060	869948.273264287913	3
7	17066	870147.988897678309	4
7	17071	870164.092008898356	5
7	17080	870555.073424056639	4
7	17095	871350.241841825585	3
7	17111	872046.747350637223	4
7	17119	872328.637585264088	5
7	17125	872671.312213614999	6
7	17129	872949.869127996024	5
7	17132	873040.846198925432	4
7	17137	873489.367167417374	5
7	17141	873641.117506623043	4
7	17145	873652.056320090744	5
7	17149	873668.48526761163	4
7	17166	873912.73457407174	5
7	17175	874181.264531297802	4
7	17198	875768.540018379639	3
7	17212	876347.293916953363	2
7	17217	876967.332374166105	3
7	17224	877216.373177174393	2
7	17243	878886.887600505061	3
7	17253	879049.352324486857	2
7	17264	879586.860482761983	3
7	17269	879836.49941846402	4
7	17274	880079.559201399978	5
7	17279	880105.559810976751	6
7	17284	880259.510941573136	7
7	17289	880312.94483203756	6
7	17295	880612.408995421031	5
7	17298	880620.094296972263	4
7	17311	881267.620910398203	5
7	17316	881437.997144303773	6
7	17325	881929.758985477153	5
7	17349	882924.302365282175	6
7	17351	882958.756263993831	5
7	17359	883188.976466409229	4
7	17373	884557.542907113463	3
7	17376	884568.212553383686	2
7	17381	884753.485449782377	3
7	17390	884944.858124935116	2
7	17408	885503.040976927132	3
7	17410	886148.856349519408	2
7	17419	886847.490180839948	1
7	17435	888111.371117135474	2
7	17443	888398.99865334062	3
7	17454	888874.197112911734	4
7	17460	889063.304643815295	5
7	17462	889240.925763520841	4
7	17467	889281.301985141254	3
7	17482	889578.29118595999	4
7	17487	889731.680649061483	5
7	17500	890567.140401917061	4
7	17508	890711.999022908502	5
7	17513	890919.900609248644	6
7	17520	891419.887131667728	5
7	17529	891523.880940488995	4
7	17534	891824.27453723929	3
7	17540	892165.038874251085	2
7	17550	892461.952909563126	3
7	17567	893037.843920551072	2
7	17572	893699.337586939835	3
7	17589	894269.665365747661	4
7	17596	894789.118796820588	3
7	17601	894973.777129107643	4
7	17610	895873.489815123455	5
7	17615	895893.634256615872	6
7	17627	896338.188634081836	5
7	17638	896607.999293194954	6
7	17646	896865.070441794851	7
7	17651	896895.007830951681	8
7	17656	896968.827455904936	9
7	17669	897370.762110734419	10
7	17672	897479.632712037087	9
7	17677	897507.482371072448	8
7	17685	897964.947574329889	7
7	17689	898483.318348763637	6
7	17692	898842.980788944826	5
7	17695	898882.183585632209	4
7	17703	898925.23198585977	3
7	17709	899004.193919420287	2
7	17726	900635.00967909803	3
7	17735	900888.114062382622	4
7	17739	900966.930650896557	3
7	17743	901052.141466556379	4
7	17747	901052.267598107775	3
7	17751	901209.336809735785	4
7	17772	901800.359679788264	3
7	17776	902214.819874098611	4
7	17781	902295.884331820673	5
7	17789	902955.360820328407	4
7	17798	903165.776620603072	5
7	17803	903637.883590416234	4
7	17826	904391.96593348044	5
7	17835	904668.198154205749	4
7	17863	905922.840141560946	5
7	17866	906022.728813901696	4
7	17874	906832.776371250128	3
7	17889	907413.885268352075	4
7	17892	908199.965994135475	3
7	17906	908491.301915895243	4
7	17909	908699.662151384614	3
7	17925	909017.356229524898	2
7	17932	909163.959682546288	3
7	17938	909685.271845226358	4
7	17943	909779.293739691315	5
7	17947	909800.27351382645	4
7	17959	910401.051721890943	3
7	17967	910609.372424598031	2
7	17983	912323.040197434067	3
7	17985	912546.636175985838	2
7	17990	912587.468197879231	1
7	18003	913116.925139139476	2
7	18010	913591.280925017536	1
7	18029	914753.614644957401	2
7	18036	915060.905934059514	1
7	18040	915071.695050991447	2
7	18045	915094.363781096974	3
7	18049	915147.353330026255	2
7	18061	915378.536327152757	3
7	18069	915620.924432438739	2
7	18074	916146.24378502634	1
7	18087	916592.542123106291	2
7	18094	916876.144178714905	1
7	18109	917402.461839694471	2
7	18111	917507.922910921877	1
7	18120	918489.615631825209	0
7	18136	919849.735547596578	1
7	18138	920027.957044734234	0
7	18155	922490.694389920456	1
7	18157	922548.686052155641	0
7	18178	923567.872889272356	1
7	18186	923648.600473922537	2
7	18191	923662.204261125931	3
7	18195	923873.374343332169	2
7	18203	924170.317085817405	3
7	18208	924246.770447586892	4
7	18216	924922.837608871786	3
7	18224	925317.876071572474	2
7	18241	925777.378869592453	1
7	18248	926019.115916111361	2
7	18253	926097.264765392893	3
7	18258	926333.964591914969	4
7	18266	926897.504492259076	3
7	18271	927114.903868840183	2
7	18289	927571.280648063812	3
7	18292	928980.67504664601	2
7	18310	929480.084827875056	3
7	18315	929480.72728178919	4
7	18323	929677.967517250095	5
7	18325	929788.286833367563	4
7	18340	930205.44461778263	5
7	18348	930818.609945407788	6
7	18357	931395.630384808088	7
7	18359	931678.961913842686	6
7	18365	931866.732512867306	5
7	18383	932684.86351743786	6
7	18385	933040.616727505195	5
7	18390	933301.990368384653	4
7	18402	933554.48635968988	3
7	18410	933868.829926607092	2
7	18419	933926.611062596094	3
7	18426	934146.719527137237	2
7	18443	936223.53859946968	3
7	18445	936366.065207457301	2
7	18450	936707.564744476637	1
7	18463	937405.747498309648	2
7	18468	938086.514689513011	1
7	18471	938254.255371016101	0
7	18499	943050.813079292315	1
7	18507	943844.601980697604	0
7	18511	944128.965947712619	1
7	18530	947154.498289241303	2
7	18535	947188.717937028774	1
7	18539	947255.453341745573	2
7	18547	948814.831550660764	1
7	18556	949059.739694622756	0
7	18574	950046.266501512687	1
7	18579	950088.885159157206	2
