version 2
run QueueMeasurement-92-20170109-14:15:03-6066
attr configname QueueMeasurement
attr datetime 20170109-14:15:03
attr experiment QueueMeasurement
attr inifile queueStudy.ini
attr iterationvars ""
attr iterationvars2 $repetition=92
attr measurement ""
attr network controltower.SimNetwork
attr processid 6066
attr repetition 92
attr replication #92
attr resultdir results
attr runnumber 92
attr seedset 92
param SimNetwork.a.parkingLot.parkingDelay exponential(45min)
param SimNetwork.a.runway.landingTime exponential(5min)
param SimNetwork.a.runway.takeoffTime exponential(5min)
param SimNetwork.a.runway.throughputCheckInterval 14.286min
param SimNetwork.wg.interArrivalTime exponential(14.286min)

vector 0  SimNetwork.wg  responseTime:vector  ETV
attr source  responseTimeSignal
vector 4  SimNetwork.a.takeoffQueue  queueLength:vector  ETV
attr source  queueLengthSignal
vector 3  SimNetwork.a.takeoffQueue  queueTime:vector  ETV
attr source  queueTimeSignal
vector 7  SimNetwork.a.parkingLot  parkingOccupancy:vector  ETV
attr source  parkingOccupancy
vector 5  SimNetwork.a.runway  landedThroughput:vector  ETV
attr source  landedThroughputSignal
vector 6  SimNetwork.a.runway  tookoffThroughput:vector  ETV
attr source  tookoffThroughputSignal
vector 2  SimNetwork.a.landingQueue  queueLength:vector  ETV
attr source  queueLengthSignal
vector 1  SimNetwork.a.landingQueue  queueTime:vector  ETV
attr source  queueTimeSignal
0	1562	79282.298737353592	8007.331554626
0	1567	79486.018388860789	10746.057872799
0	1586	80685.464013563156	9506.544206059
0	1601	81005.189708197411	10916.449505028
0	1609	81271.351665716669	11002.876531655
0	1622	81400.695642409314	4915.2236264783
0	1631	81640.117694699693	4156.4708434351
0	1643	82338.128735407616	6771.9495583635
0	1648	82457.894215704691	9617.4761108632
0	1657	83239.381845271534	2780.6717670387
0	1667	83600.69187160629	3403.4438405204
0	1672	83675.154108033589	5841.0904624725
0	1692	84631.918099485509	1435.9655362005
0	1724	87256.487510332993	6136.7677190822
0	1748	88489.431048919987	4648.4155195895
0	1759	88685.977149731278	2975.308315803
0	1778	89581.901169189632	5131.5352064356
0	1794	90914.423963462944	3797.8230547526
0	1827	92085.571747851977	3481.3205265806
0	1837	92232.131373204742	4817.5744944495
0	1842	92495.860844311871	3555.2683874553
0	1851	93027.467439627351	3203.9799041239
0	1869	94628.811117010941	2566.6495571443
0	1890	96858.608688195885	5573.6392495923
0	1920	97613.312735721378	2266.7073230163
0	1937	98257.017649111654	898.77459940153
0	1952	99269.411201789786	5972.3631026182
0	1966	99459.605096411344	7747.5057090278
0	1974	100016.874936881469	3904.4237288249
0	1979	100023.482662002245	2750.2962391823
0	2002	102942.415181841773	5029.7941912077
0	2032	103756.518201575221	1370.9785163102
0	2083	108530.666017086328	9383.164167457
0	2092	109042.571528208237	3968.7250890215
0	2103	109777.749457396899	6133.8369040502
0	2114	110133.455156159988	2316.341551722
0	2119	110200.494494758708	5092.1468424822
0	2157	112929.422556484785	4251.2979515759
0	2169	113320.944815133499	5966.1816273961
0	2196	114262.002871918724	13285.77587036
0	2212	114819.286306222032	11569.350607972
0	2262	117387.808842064473	2048.1542075892
0	2302	118974.867664004115	5733.2636237931
0	2319	119373.466094424201	4712.1751967987
0	2324	119377.221670469279	5353.7436506572
0	2329	119420.773603086764	8917.9733374844
0	2334	119466.361613286984	8372.8462664089
0	2339	119702.23150808615	4841.7268524532
0	2351	120729.882359983342	4822.2195662548
0	2370	121188.590493414231	4142.3901041283
0	2375	121625.867219365714	4381.4003757149
0	2384	121813.145259964924	4351.7392366965
0	2392	121906.865498126072	8911.6358996737
0	2397	121980.399656027998	3147.8480767694
0	2443	124696.00475380198	12622.416729586
0	2448	124892.45238351691	4577.0012982733
0	2456	125039.704337932487	2893.5749162046
0	2469	126044.238458655107	5875.4484161901
0	2474	126130.285292499168	3358.8219903199
0	2508	128557.070086642324	1639.2765476421
0	2517	129208.338422964741	1050.2703739138
0	2543	131126.371587895148	7904.9831462424
0	2552	131544.04690291191	8577.2003140497
0	2561	132080.785318638256	3750.2618643223
0	2603	133945.176049690528	1084.1415957266
0	2644	136390.251062301835	3886.6601600948
0	2657	136805.518900173764	7381.0841100879
0	2665	137042.143199453617	3977.4753581218
0	2670	137064.484542094822	3627.5434532005
0	2690	137966.442693750714	1876.1327638226
0	2742	140110.771736572638	4638.0657676271
0	2751	141010.700082574261	6660.7575368501
0	2765	141721.858924487401	5780.8044709507
0	2775	142095.900633281874	12313.491883582
0	2780	142138.860921112367	4345.4013554119
0	2801	142864.310151201033	5639.0611247472
0	2845	144175.352477979421	5988.3252877464
0	2850	144232.533673554468	3969.1821967426
0	2871	144994.535734374383	6824.5396142074
0	2912	146041.875030547264	3455.0134238937
0	2923	147068.51288511137	4318.0900237848
0	2928	147318.576749126716	4030.4987954163
0	2936	147337.278090129167	5859.4209504987
0	2945	147625.498474495887	4909.9147036552
0	2950	147633.40104765683	9165.7193546187
0	2961	147861.876227394645	2197.9028662958
0	2988	148777.387681133222	3879.8084181005
0	3009	150451.320251887609	5680.4974630507
0	3032	151529.874479425503	3778.5515751997
0	3096	154614.195452617762	4824.810672344
0	3101	154754.235063335735	7089.2372363491
0	3110	155166.925980892297	11626.868954545
0	3115	155359.1315068544	10639.853570605
0	3120	155521.979628822478	5638.7278100406
0	3125	155748.188340178556	7610.338620282
0	3134	156323.053787915325	4630.8847521364
0	3142	156840.748314893328	5500.2716904277
0	3162	158043.984691189809	6240.375960878
0	3167	158550.617243331667	12794.88066456
0	3176	159079.40988115182	5127.0452194816
0	3254	163506.922228431334	10450.464345277
0	3259	163580.043472062208	6998.7530376942
0	3264	163639.194044490041	6370.8203161648
0	3269	163662.605026008177	2466.5227725658
0	3281	164244.124370704938	3910.6374029531
0	3289	164397.828481280708	4178.7811014551
0	3295	164671.012433376252	2514.4838448703
0	3311	165335.2321427381	5344.5904205252
0	3341	167551.034879757951	5350.2687823762
0	3374	169943.476593608902	7660.4404549817
0	3379	170081.312437327785	4407.07817629
0	3384	170320.557471730373	3050.81798165
0	3390	170662.062053829524	5939.3328372199
0	3407	171523.24272199054	5597.4646693071
0	3433	173835.395016527031	5453.9803353708
0	3467	175005.346533569638	2464.0569952508
0	3481	175375.494058177472	4570.0826109198
0	3515	177131.86715706259	2714.6068149958
0	3520	177273.361162360541	3264.9904894823
0	3532	177557.16227353633	2249.681146432
0	3542	177916.238844977055	5642.0581959365
0	3583	180117.087854394581	4606.713020414
0	3645	182350.9738727287	8149.3538029868
0	3679	183549.826215008095	5996.1114041041
0	3690	184105.127028803586	5702.3701610551
0	3712	184735.672700916333	5823.2950306534
0	3720	184929.845960495639	4901.846562307
0	3726	185191.487359483218	4977.4690644155
0	3731	185198.432635563682	4873.1217874861
0	3739	185514.227234108384	4410.1549100983
0	3776	186666.056400050807	6352.8990691993
0	3892	191432.786694574679	16105.376932272
0	3902	191532.790776442599	7897.0694603956
0	3913	191657.62396071245	13646.183580809
0	3919	192148.632820258739	9417.9279617895
0	3933	192363.613882415655	8653.4683030002
0	3938	192373.419465222072	10103.385931755
0	3943	192524.449954331891	7133.7253421421
0	3955	193037.904529018623	10348.5379258
0	3963	193475.758896184267	7883.4464820336
0	3976	193666.161073620708	7130.2407336859
0	3987	193944.617765688367	3720.4157361988
0	4004	194247.532687927048	4469.4117250908
0	4030	195877.152345944653	9333.7749615055
0	4035	196127.22214109381	7404.945836354
0	4041	196491.646392804285	9589.9893026734
0	4046	196624.139633902134	10081.684379928
0	4051	196721.65881088337	7682.2459518005
0	4056	197024.834608683416	9049.8564405731
0	4068	197327.799870077012	5906.1830496865
0	4081	197913.444397599762	4447.1863198863
0	4098	198830.520131783262	5220.4653503145
0	4109	199606.190192197403	5630.0689999277
0	4115	199734.329068970066	13162.494162158
0	4130	200716.669731451685	13052.186304798
0	4138	201020.252003529146	3146.2898083382
0	4152	201754.776859138903	11142.071238958
0	4163	202332.952102749206	8192.6855957505
0	4171	202802.157490230461	4227.3141751808
0	4191	206302.819480510515	5467.9642142593
0	4205	209078.210272011511	11963.670311043
0	4259	210940.626491138912	9492.4201143025
0	4264	210987.085910793557	957.0167383711
0	4272	211131.872279316712	1567.4496852842
0	4277	211141.908278396652	872.89494727229
0	4303	213389.687141354027	3105.4623193159
0	4313	214431.770228070942	11167.795106283
0	4348	217600.018390484262	2165.2179595815
0	4357	217973.756705620911	2325.4343821764
0	4383	219453.813809223984	3745.2609665769
0	4391	219845.763143014867	1719.1915442786
0	4401	221713.54995331369	12658.372979481
0	4419	222946.387344096391	11495.322067538
0	4435	223447.299279701735	4469.3843391483
0	4469	224930.663590641921	2526.1234399299
0	4478	226060.158780533729	2315.0058463593
0	4486	226163.545122655232	2681.6722630878
0	4560	228290.882343297868	16970.973859109
0	4597	230146.887062350882	7145.6596700527
0	4612	230806.9558246265	3756.9747175377
0	4643	232704.677926309378	5624.2948568629
0	4651	232958.037115728669	6077.3474704132
0	4663	233358.405388790154	5691.1923991189
0	4673	233713.760004558001	6474.2896694489
0	4678	233839.112388910079	5614.3213073161
0	4684	234175.009359551975	6371.5810399999
0	4689	234277.511046610052	10302.817341417
0	4698	234945.319959594278	6182.041104182
0	4707	235774.958318909447	4813.7503704247
0	4746	236914.392173391381	6605.2100971783
0	4772	238075.688458784124	8839.6985867831
0	4807	239201.21074639094	7675.526842954
0	4812	239237.407079799912	3960.3245834843
0	4817	239259.384780135145	6040.3501067131
0	4822	239429.095611228262	3285.4664885065
0	4842	240268.103051484753	4479.8063236429
0	4850	240772.122883953855	2768.6171694364
0	4864	241227.553985318862	4399.7180004234
0	4875	241554.011399601217	3704.3075941868
0	4884	241828.390607895762	4399.1843040996
0	4901	242649.366327639563	5177.144846644
0	4907	243446.458007632032	3959.8494258236
0	4951	244425.573499783585	3925.8871816911
0	4956	244690.471505378616	6155.2955550171
0	4964	245095.306782769709	1615.5636298455
0	4983	246943.351235348964	3165.0842019835
0	5009	248808.752365740404	7110.9816857819
0	5026	249834.462386994696	2103.1928846529
0	5044	251688.148510317317	5683.313010711
0	5064	252428.854825726005	8900.8537585007
0	5101	253900.667884060203	4449.4009084198
0	5109	254036.421667592768	3225.8176865095
0	5122	254373.84616105905	2356.9224618178
0	5130	254565.818680933914	6996.2021719927
0	5147	254815.07198281912	1629.0031799939
0	5152	255296.996919071499	11688.699222613
0	5161	255858.148260991814	3494.1346415063
0	5209	259799.516238602555	5789.7929127287
0	5214	259860.004113272238	6570.7530057906
0	5231	260453.164077123907	6009.6736222663
0	5247	260863.089867885094	4524.6439764743
0	5259	262113.236245085952	1789.3483423989
0	5291	263626.388454308959	6184.9153213714
0	5301	263765.26496886757	2320.7148155755
0	5307	264487.384419430401	6531.374697066
0	5315	264709.758317814092	4292.4769501912
0	5358	266849.771328811382	3419.398524614
0	5380	269175.623160084382	3355.665989577
0	5392	270035.194412076846	3755.9722794727
0	5422	271049.458602126294	13863.891206473
0	5440	272041.331984834525	7128.6631039688
0	5455	272484.270291205448	2860.6845436706
0	5461	272940.8747333552	5521.0748342622
0	5470	273850.835668272654	2105.6079773346
0	5485	274585.593570769247	11517.557964119
0	5501	275144.325575593355	5959.52482527
0	5535	276422.029051498235	4593.4206675401
0	5543	276802.242548340359	1723.2552609401
0	5549	276986.706445918642	2795.6993436166
0	5557	277036.38776128181	11910.413494696
0	5572	279301.361944692288	4109.5061445748
0	5584	279804.717111904199	4142.4697928374
0	5615	281471.458957968971	2051.3631194361
0	5624	282631.34894291667	12107.945048705
0	5633	283246.224342039016	2991.468936565
0	5670	287545.706731066898	4094.62761419
0	5682	288497.529907985002	11489.228794137
0	5687	288527.63960384731	7701.133996204
0	5704	288870.609610373294	4466.390550492
0	5729	290185.64437912858	1417.2293589593
0	5766	292200.826405331913	2720.8009636091
0	5778	292848.446628004372	1392.4614917894
0	5789	293213.228777146954	1888.4596971318
0	5798	294062.549628621715	2252.9517778594
0	5808	296236.8160660362	9346.3462287229
0	5825	297400.162245479538	7334.5472134755
0	5845	300493.956844436132	3537.4810690524
0	5899	302994.226395909979	1787.8566536929
0	5919	303731.517086036153	4957.268171838
0	5924	304235.162363631367	3418.1856515816
0	5933	304514.283023699274	3329.8019612168
0	5955	305479.387851137557	4634.5779570411
0	5972	306241.378942166798	3421.1018016681
0	6000	307525.662823778162	3193.2524397837
0	6011	307711.976322406288	15111.9426679
0	6020	308019.004134418236	3432.1627988093
0	6025	308098.410742995368	6603.2496392819
0	6030	308471.474018719616	2519.4375363096
0	6067	312161.485543410351	1521.8068673494
0	6107	313889.579138505012	4457.7164221423
0	6112	313922.132808102078	7253.1141157101
0	6117	313997.112845208113	3242.7492615945
0	6135	315383.685163690653	2411.5710658626
0	6168	317116.745366402539	2407.6531940424
0	6177	317181.559165021442	1955.0937638147
0	6188	317922.08579630092	5007.3032328772
0	6193	317956.764346110749	4745.6245292062
0	6222	319169.581604503065	4231.8546716211
0	6250	320086.355051690359	1640.7939965429
0	6262	320788.760846235581	14400.800757581
0	6300	321959.359595544628	3817.0078801658
0	6312	322494.027549602009	6005.1520029564
0	6341	323127.10963377149	2442.3717643974
0	6350	323210.312575080753	2410.816089185
0	6358	323628.751073549193	2757.0961783247
0	6373	325060.316895126905	2775.3438348367
0	6378	325105.681116905738	6311.6940534304
0	6386	325428.445482827495	6133.7348783543
0	6394	325529.01192395006	3103.8335575935
0	6454	330495.248654584622	7064.3095379544
0	6462	330666.747136210925	4684.5965229775
0	6479	331387.205086401936	3742.9160175415
0	6484	331466.643120463986	8660.0940232972
0	6489	331578.724737926185	9790.0673006673
0	6519	333982.465105635081	2271.4340265868
0	6524	334031.900643439054	5551.544028487
0	6541	334846.682511767912	8602.3615355499
0	6558	335770.890204406956	3068.8734785233
0	6578	336738.455412575969	6183.5314770989
0	6583	336748.09768545923	2305.6385039589
0	6622	339208.076496444638	3094.6035667333
0	6636	339726.86758438177	4406.317238803
0	6654	340081.876217080545	10756.20857475
0	6663	340497.59247305637	3289.4166436435
0	6676	340675.201981213402	2573.4069860142
0	6684	341037.590909525332	1237.6357264143
0	6696	341492.967712964466	1813.7762834613
0	6718	342655.642976832497	2229.4537497737
0	6735	343455.501940072331	1992.0705551213
0	6800	345630.91787077718	6770.6787247329
0	6817	346267.788504053724	4321.2980365674
0	6837	347404.272861645713	3060.7424455804
0	6842	347661.634085587676	3406.8736594379
0	6851	348298.740393819682	4460.0827535643
0	6857	348956.642681677063	6237.9587059978
0	6865	349020.633707597434	4367.5652007515
0	6888	351128.896013212389	5347.7288479173
0	6902	351264.885707338641	7000.3593439479
0	6934	353191.815773631239	3970.4269969289
0	6939	353404.970471004777	4418.274617148
0	6947	353834.005208210167	10070.219690638
0	6959	354331.305324005652	3082.5016488371
0	6973	355225.950893599403	9096.1840568494
0	6982	355818.554780010377	4120.7234267189
0	7002	356773.451267730246	5534.1489052417
0	7010	357133.638264979372	2984.2181048808
0	7091	364793.421098213399	3420.0831570466
0	7108	365796.33170349121	1568.7575912015
0	7130	366411.017345512326	3377.0740824399
0	7138	366666.701910977685	3069.3133604176
0	7150	367639.350071655657	4769.8886467634
0	7155	367643.707503341176	11659.223162021
0	7304	373258.101182826712	10147.171079557
0	7316	373924.763461824382	10313.734463507
0	7327	374215.458255465372	8444.5363999815
0	7332	374571.304164964234	9842.9718426374
0	7338	374666.424089205533	6734.2032043623
0	7343	374676.493910821623	8865.9265948887
0	7351	375129.202504376682	7270.456083607
0	7356	375376.284394615437	7156.9916310563
0	7362	375466.895328195609	7371.6788514453
0	7367	375530.320129213759	6141.9978773335
0	7372	375770.40817940438	5959.0685530332
0	7380	376090.014156730871	5354.0021601677
0	7385	376278.199246370511	8175.3964995898
0	7391	376563.71955493243	4662.8779806902
0	7403	377280.057117119828	6722.4817933939
0	7413	377637.914399351763	20730.970095658
0	7425	378058.334278978884	6027.6044905148
0	7450	378940.186083189836	10287.037366651
0	7455	379012.180777994231	6751.8669568735
0	7460	379182.54718921475	2384.4348994895
0	7465	379643.551487721179	1721.7487868776
0	7500	382238.542012257778	2149.9443189505
0	7521	383294.082237552021	5092.9585466461
0	7535	384266.484531167304	1761.189122817
0	7597	386892.3521283277	2598.9637800387
0	7625	388104.106359981678	2797.4207413624
0	7648	389016.700541169112	7824.1848764133
0	7659	389340.968504049368	3912.0308412645
0	7664	389366.196473165562	3364.6848078697
0	7669	389701.611180101215	3893.5437980037
0	7689	390735.005547193604	2973.3658831657
0	7706	391252.891437050089	3987.3594882301
0	7712	391734.421536625381	3341.7784414647
0	7730	392629.2373438838	11103.88425768
0	7751	393219.088246726221	6333.9770443901
0	7791	395389.865464381356	12603.752854492
0	7802	395794.148362991275	6040.5998644489
0	7873	397998.985474234181	5205.0806019789
0	7884	398491.029648220966	5830.9064570753
0	7890	398797.420168560641	4691.7123683684
0	7895	399011.92024218426	3541.5855210969
0	7900	399119.066771536334	8483.7037838806
0	7908	399382.188405315107	4835.1461460912
0	7913	399398.492260365355	3343.7406977173
0	7919	399496.160619543648	7381.3787706691
0	7924	399624.724865706234	3848.2373781341
0	7929	399790.362929397733	3987.0381525969
0	7941	400684.394120245504	7333.3321849959
0	7974	401770.66220891194	17120.586076515
0	7980	402203.680959206001	1634.6545384827
0	8008	403338.314416216367	2607.3535763624
0	8020	403865.792919541114	3107.6763100371
0	8126	409362.999386622315	12804.951739832
0	8134	409438.012035462928	6500.238895451
0	8139	409587.538740310583	6978.938817774
0	8147	409648.174036002024	5955.2550985539
0	8172	410004.550411390976	5819.7396595193
0	8177	410072.151479546045	6126.5324267465
0	8189	410593.758504900929	4954.7341241238
0	8215	411240.594880188319	3684.9565632132
0	8230	411528.000005814959	7148.0255046764
0	8245	412266.567984461599	15739.690333744
0	8251	412450.907944584891	7627.783791353
0	8262	412840.447004338424	2683.1374587227
0	8273	413214.780418731419	5435.5354615927
0	8282	414127.031145979487	10396.411928532
0	8299	414630.955077951717	3328.2848297914
0	8408	417756.993396591556	8148.2231278761
0	8426	418791.918842945531	7930.0357113766
0	8434	418965.06971071939	7610.4998624183
0	8443	419151.475153100304	9492.8799929724
0	8483	421069.959849302448	10369.65152275
0	8488	421626.593736262627	5787.4024304833
0	8493	421669.929854710219	13973.339403714
0	8508	422360.048766736667	8088.5521510978
0	8527	422637.849535614627	6809.2861520404
0	8532	422736.431746883224	7489.2132423214
0	8537	422827.192398710574	8403.6013989791
0	8542	423202.567207015893	7120.5551443848
0	8547	423422.970461180084	7494.8835874413
0	8556	423488.446960792333	8718.2336495353
0	8590	424845.369551884218	7915.1892912968
0	8595	424855.158755228518	5789.2513680982
0	8600	424864.767180608929	7280.7933920259
0	8605	425016.297656310046	12298.477957328
0	8615	426091.137798658017	6385.6048179132
0	8620	426216.120038207764	4281.3016917943
0	8632	426881.263561656478	9822.5672973983
0	8648	427889.205042574791	4433.1563290934
0	8653	428069.530802585266	8710.8984082675
0	8675	429587.923199201531	7569.7524086213
0	8712	430500.769435651616	6982.0147410228
0	8717	430677.837152750887	2444.7510154991
0	8749	432382.765583791551	5899.3225913377
0	8754	432501.755544658974	3241.6531890436
0	8759	432778.320566107134	3907.0800754455
0	8768	433464.700733648928	3353.5123624117
0	8781	435182.972282990405	7039.4868286159
0	8819	436179.684001141328	5280.7551655549
0	8848	437690.413968301788	1821.9850403531
0	8853	437692.104070434681	2328.9272514879
0	8873	438650.899832741159	7580.1126495721
0	8888	439209.824070439268	12523.645381057
0	8905	439811.606450389542	4938.9512131514
0	8927	440749.94356807317	3908.367847458
0	8945	441655.960061212265	4840.3296912048
0	8969	442425.833435185504	6927.7980902737
0	8977	443089.751650177574	3417.3301312779
0	8986	443397.209566403239	4361.2816626786
0	8991	443790.674498591435	2790.5316259978
0	8996	443840.168910958312	4005.2017884794
0	9013	444657.454177605436	3795.8022617021
0	9031	446075.490553295829	4365.325328639
0	9050	448690.570718151384	4521.7910060471
0	9072	450994.941350593782	3082.5804745679
0	9085	451533.071198309193	13663.165402357
0	9121	453958.642212455772	3350.2120188571
0	9131	454092.503068705069	8235.9447333071
0	9137	454515.268046679803	2222.706531789
0	9177	456741.450291879432	3576.3318999141
0	9191	456945.517419643123	1732.8424772634
0	9202	457587.509901385013	2754.6505504291
0	9224	458504.224330254418	6037.1262102589
0	9230	459015.063846694751	2639.2830461788
0	9241	459348.343287426971	4030.0239390767
0	9296	460814.504128057493	579.94591415008
0	9304	460946.66129048826	1534.4736184652
0	9320	462518.853103178472	11573.146994091
0	9334	463559.090196143442	4417.5060451922
0	9346	463917.56630021053	4417.8307523726
0	9351	463938.392597202924	3494.4378830332
0	9356	464211.718242868266	4328.4989520241
0	9365	464936.487969051305	7600.5260753665
0	9409	468010.87977852608	1144.3209819667
0	9432	469290.859236838205	2502.7360040483
0	9466	470551.464298817464	1949.1230293506
0	9492	471648.002813512669	4770.5081857238
0	9517	472510.433217116095	5132.8089765861
0	9527	472943.877375991372	4137.1562689797
0	9532	472996.28527838216	10525.158247351
0	9544	473439.7399560972	16360.693870908
0	9563	474551.351879767274	5370.9424821495
0	9578	475092.07271254134	4993.7519401918
0	9616	476455.489195579664	5757.8818184519
0	9622	476581.164009575455	4123.2980703638
0	9627	476819.295699977382	5685.3148319546
0	9638	477386.353767427685	1725.0178959982
0	9653	478099.416010426761	6073.0622565545
0	9667	478335.125160006793	5338.113710833
0	9683	478945.628947421174	5811.0452045872
0	9725	480730.205422413641	5542.6583981755
0	9730	480831.644497200316	4916.7336837321
0	9739	481487.906959534185	3366.4162978985
0	9751	481874.968284554512	4030.4086212879
0	9782	483438.116485304198	4585.1169959602
0	9791	483718.852372604759	8811.338088711
0	9805	484451.541550163499	5236.5227665303
0	9815	484743.368517090253	4827.674024945
0	9820	484947.763600968721	5442.5503408399
0	9865	486597.807001776462	4663.9156075135
0	9870	486632.692782524977	3169.6620107625
0	9879	487626.47146534666	1874.5383380425
0	9896	488504.336891686288	6780.3407404515
0	9917	489914.636347171614	2016.6863792323
0	9938	491253.139395710648	7030.6488322055
0	10122	498123.509404185535	11799.868929713
0	10136	498300.224607189327	12751.496183533
0	10141	498542.194161402349	9075.2206988468
0	10149	498826.814627670767	7252.018449044
0	10161	498986.848608099958	13033.745341105
0	10203	500591.051830834843	9421.7775318459
0	10211	501005.058248572164	12013.983276233
0	10222	501477.900683910557	6380.9438893449
0	10227	501767.342696948857	9632.155674682
0	10236	502589.366879652968	10727.253862945
0	10247	503047.464686160292	6750.4574402025
0	10256	503381.914081780983	10595.422408384
0	10261	503465.802444711511	6380.6333571325
0	10266	503473.672538532127	8497.6016404569
0	10271	503491.205883133475	6976.829835001
0	10279	503840.876443587245	10372.767645045
0	10288	504076.867211841971	5221.0259304041
0	10318	505191.546772421525	7796.7768093138
0	10323	505384.558701330287	10679.783730484
0	10341	506571.403524352472	7175.1429039414
0	10357	507391.690382878108	10057.589997133
0	10372	508017.144932874855	13428.847995741
0	10414	509974.812169827956	10644.23113181
0	10426	510404.893496403477	11508.592417802
0	10431	510639.128087059048	6299.2488364491
0	10437	510979.406584677893	13008.0070154
0	10445	511416.970236619611	18373.467333549
0	10453	511706.44503021265	6165.8284142785
0	10464	512174.482184830933	7703.2118344821
0	10469	512439.24128703291	8552.4734793198
0	10475	512735.642170337657	4945.7972665271
0	10480	512948.344603076027	12203.897315667
0	10485	512997.698870272646	4492.9668288713
0	10513	516066.209091061401	9995.3410896906
0	10532	517761.727108209719	2273.0110221225
0	10542	518307.551371774991	9975.7288342367
0	10551	519079.401870621448	22125.932038419
0	10573	519894.99824265367	11162.293160889
0	10607	521943.289534196045	4241.5662737745
0	10616	522132.533072624779	987.53182661962
0	10625	522991.323822214434	4129.3525466743
0	10651	524151.266766025175	4584.8548426956
0	10703	525579.145741629556	5144.9972937175
0	10708	525650.192864454492	1657.4000897141
0	10719	525874.012939123146	1254.2543613648
0	10737	526598.855386196105	10921.230150804
0	10791	529441.227437547073	4695.9326652515
0	10811	529996.239110669047	6333.0499444072
0	10831	531110.564932516057	6210.5982006528
0	10847	531628.849759092685	7627.9591168599
0	10852	531685.29803532633	4216.4373039913
0	10857	531721.890774985081	20274.030252926
0	10868	532160.125692271679	4350.2444751996
0	10887	532861.639102384785	4531.7099419698
0	10900	532994.077758049857	3143.7196138906
0	10969	535585.540351211824	11390.279657536
0	10983	535902.342851427267	14432.655829829
0	10988	536057.517535169404	1724.7109389619
0	10999	536482.824790267155	9957.1928947844
0	11031	537796.888433434702	11682.634960694
0	11043	538387.908316291983	6278.3362777089
0	11048	538829.730821812536	8009.5220961385
0	11053	538835.568829563221	4809.69846399
0	11059	539411.576097107872	5953.1427045339
0	11064	539443.56043209056	5038.9506102586
0	11069	539450.446074483455	8788.6980995976
0	11074	539650.533924395498	10589.651214922
0	11079	539770.135340715029	7037.880446566
0	11088	540207.057213485163	7021.8306760266
0	11093	540255.47063197501	4067.5790046593
0	11103	541905.867964519654	9944.3203412625
0	11111	541966.704852954895	7066.4563967652
0	11163	545605.343462729802	9101.4367220848
0	11192	547016.657072060245	4684.4057920515
0	11228	547860.958436358668	4030.3134543655
0	11242	548865.300710921924	4855.6046709269
0	11247	549143.844560314985	1448.9617108109
0	11259	549557.632785750561	2546.9457180385
0	11270	550101.314538047804	4458.9374684126
0	11276	550435.795807765042	3813.0788058598
0	11281	550573.814651082682	7128.840549546
0	11290	551159.225944366244	7838.0798512599
0	11315	552771.116297268203	4910.5000367798
0	11324	553410.899064032755	5756.450219739
0	11333	554288.046943519519	2444.4364398103
0	11369	557944.451431644435	5497.0258939268
0	11423	560552.967073006668	612.46577843189
0	11441	562074.520033082592	5532.5038471684
0	11446	562154.311260402469	4825.6049756838
0	11455	562477.411250702346	2260.9812271
0	11464	563262.877804338075	7144.84487997
0	11472	563503.225307345005	5255.7938031871
0	11497	564103.2657743239	3657.8532131826
0	11509	565381.46419310547	6069.839245568
0	11551	567102.290821065725	7358.2412154062
0	11556	567298.363649538408	3746.0260796057
0	11579	568245.543940155463	2754.7879929992
0	11593	568477.584530442061	3163.2878485231
0	11598	568495.411008441546	2342.0588504349
0	11610	569640.11101769969	5933.6345715837
0	11615	569781.661014913339	4086.0345971375
0	11662	572508.756920274598	5033.3893136714
0	11681	572837.228674532043	2709.2441339833
0	11686	572845.450070845873	2273.9409201989
0	11691	572922.108440495438	1331.4768191584
0	11704	574314.669516377492	2960.3016090188
0	11716	575770.085065084209	7604.8879119912
0	11787	578586.295141583939	2310.7417242746
0	11800	579181.992733283269	3937.1085699946
0	11805	579272.388714120212	7147.741290761
0	11811	579463.638551867457	2431.2100089377
0	11825	579892.327097239774	4228.5848877729
0	11851	581821.28998054774	4171.4934015986
0	11866	582317.420875354069	4066.8961933121
0	11914	584357.771792994009	4598.7905046121
0	11933	585267.373549956403	8677.947616858
0	11947	585395.948388603922	8836.3012425879
0	11958	585706.293561861244	5855.9263711301
0	11963	585823.515184719431	3888.8927575774
0	11968	586041.075475853172	3252.6338912183
0	11976	586261.339342336178	3173.6561967654
0	11982	586819.354459767578	4336.2311556344
0	11990	586900.915973166984	2827.724261525
0	12013	588184.019153821095	1343.2402855642
0	12051	591258.064245981948	6881.4022379537
0	12056	591292.077737253432	1227.4451061321
0	12065	591550.020686368321	1170.7549631127
0	12129	595844.426444782903	1990.6252612826
0	12134	595926.974336711669	2577.5403199042
0	12145	596165.781200229882	4391.3475934691
0	12153	596430.025275970168	8723.7312747766
0	12159	596638.422948740888	11328.825143548
0	12170	597241.463877604174	2363.1071264986
0	12187	598046.430177958019	3310.2547869505
0	12201	598328.64115997444	1272.5935541568
0	12213	599902.364722487135	4516.2358191355
0	12236	601292.545171419798	10861.27645011
0	12244	601591.267863095643	2282.2999749724
0	12253	602536.585601919598	4546.5767835223
0	12280	605140.41860608924	4460.7718048063
0	12298	606052.465344552565	2589.3819268844
0	12343	607874.330474771421	5320.4219813384
0	12348	608110.90796292051	1221.3375343475
0	12359	608491.316547162696	2013.1195464194
0	12365	608636.352871596233	3195.7715053854
0	12425	612671.937528303086	1924.4579023
0	12437	613356.817743610732	1339.8771443762
0	12450	613649.744244420111	2202.0440663361
0	12459	614011.444083957396	6780.5687458767
0	12501	615671.732676301646	3586.7228622884
0	12509	616208.790914600022	5888.3323819729
0	12529	616559.445269886466	2519.8359597312
0	12545	616838.548953397532	2559.1680165953
0	12562	617420.540381207051	1194.7610372163
0	12602	619530.936297279146	5093.0311445939
0	12611	620139.800843322746	5929.74884462
0	12616	620375.66438647361	8277.1531850512
0	12622	620638.956173298026	7425.7714290777
0	12627	620675.438507337905	3272.661730183
0	12635	621339.576496684223	3038.5478448101
0	12646	623247.602222132041	6827.3980641989
0	12665	623826.478388283408	16753.52256496
0	12700	626225.483621073237	7763.1011689607
0	12705	626373.90193664319	2229.1392088368
0	12717	626869.706671233607	10117.068805273
0	12767	628456.981089584075	5045.5048599287
0	12772	628708.524762448304	4060.3537491703
0	12797	629534.993936355116	2279.2042177896
0	12806	630675.558530836972	7404.8392410081
0	12821	631405.819913659116	4573.0583779369
0	12831	631530.524303031473	4018.3293405236
0	12851	632318.448714627278	5306.9784604373
0	12860	633304.246254822233	4344.5584738232
0	12866	633765.615137931721	4660.6855346465
0	12884	635439.68430442053	3806.9222815538
0	12901	636226.856562505631	5162.1769056014
0	12934	637233.01328613633	2887.3087854922
0	12942	637463.717489299097	1067.2792450883
0	12971	639287.049472597449	11457.618901455
0	12976	639309.385545033518	2434.5334304948
0	12988	640023.735544596548	4406.290108486
0	12993	640059.88643865928	3070.2627820319
0	13001	640248.517772980673	2512.7554760205
0	13073	644377.1175552841	2799.6976628187
0	13078	644408.955743666377	3913.3368515336
0	13096	645498.943790633964	2028.3442517848
0	13124	646951.306449633416	2211.886983543
0	13141	647837.89934013596	4732.4648034558
0	13146	647936.132150111697	9885.4257791192
0	13155	648063.236993844636	4735.7170972976
0	13176	649091.290230009568	6955.646564168
0	13271	652881.083707453802	4124.4621162897
0	13282	653007.923655969492	4805.8806863999
0	13299	653875.829230675541	12252.368680447
0	13312	655058.745072251962	6801.3115246098
0	13322	655150.102530346099	5118.5408484968
0	13327	655638.237218452334	6604.686541898
0	13333	655779.940433117719	4930.4112447354
0	13338	655902.639234373742	9119.0552443555
0	13350	657185.833371299126	6791.1806186623
0	13365	658039.385008956757	11414.579748674
0	13384	658494.408458734843	5579.0497592125
0	13389	658611.733051309729	6589.1836407864
0	13397	659117.09364797634	12945.816800451
0	13431	660593.053163602885	8188.9612681653
0	13441	660701.444345456513	6416.9675352479
0	13453	661305.315186486716	1321.5799714352
0	13461	661421.759491041801	9872.1869899435
0	13483	662685.456259334189	3454.0316753739
0	13558	665930.963981936042	7142.1227706007
0	13564	666187.628327548416	8837.4949143033
0	13569	666555.579437009034	9245.8953920386
0	13574	666668.494173066348	6076.4134230288
0	13583	666881.961586393737	3907.1053433561
0	13588	666920.035423067781	5208.3838431511
0	13599	667164.489783522626	3145.8420545204
0	13629	668313.486509956798	6269.96041239
0	13634	668346.776798271025	5282.3086979109
0	13659	670601.116336477142	8321.3243664288
0	13664	670645.797094940767	6075.1412624313
0	13669	670805.666870813292	6392.284261612
0	13689	671918.192475227316	4574.4517029029
0	13694	671990.704294820903	2157.7090530239
0	13703	672201.065745257998	5243.3098734018
0	13723	673451.04046977397	6425.4880173712
0	13735	673946.817943961437	2912.6293321033
0	13809	678592.947744961003	5141.906998625
0	13824	679623.158256537836	1766.8454088852
0	13846	680390.228332139831	4217.488173529
0	13866	681362.584890536237	7700.9468996723
0	13877	681544.149026577929	1830.94599801
0	13882	681547.751858731251	9115.7196036105
0	13931	683116.748923765499	2634.4544050318
0	13949	683537.564647773795	1935.9564261919
0	13993	684672.963486208645	2686.258890622
0	14001	684802.37853431965	5363.4442532514
0	14015	685142.251760646351	4790.6984111539
0	14020	685145.741494486235	7266.6066963423
0	14037	685530.996139546731	8942.312680659
0	14077	686604.943172254721	3878.8044515508
0	14111	687910.617799586553	4673.8314355445
0	14120	688530.787787425197	4870.0486605735
0	14137	689279.39347606778	11616.038350987
0	14147	689627.138429528769	4951.0505324212
0	14156	690273.832247598958	4884.2925216208
0	14166	690338.752364093414	5108.3818883695
0	14171	690696.267774502634	8668.8001568585
0	14186	691395.008966787096	5795.3371475928
0	14211	692275.489508362923	8344.2654478676
0	14220	692865.692176317581	9788.5645289154
0	14225	693046.587020349295	15940.307873416
0	14230	693378.192264110417	6921.6234192577
0	14236	693606.158286965309	10376.851762764
0	14241	693667.686644758689	6902.9967090139
0	14246	693727.549322337861	4665.5670511044
0	14251	693970.356366374022	5655.698253456
0	14260	694660.172555375961	4442.3283846094
0	14283	696457.912391763641	5453.1235280281
0	14296	697796.388665069311	6348.7518961751
0	14301	698027.367925991419	3680.2111947865
0	14364	701542.491965893855	1727.6540954091
0	14373	702558.55258352424	2860.8323135047
0	14379	703173.203243310674	3258.8572000016
0	14417	705845.643159191766	5927.6384052193
0	14422	705950.536406556022	1747.662407266
0	14431	706961.349263963869	3746.9167781736
0	14451	707982.646583272642	3628.0397526551
0	14460	708540.759568041883	13047.982620116
0	14486	710332.286630783021	10105.512170394
0	14492	710834.001754351625	3669.5917305421
0	14504	711827.721524083258	10928.47678372
0	14528	713447.2529226221	4972.7421645388
0	14595	716556.067348945369	7838.0654895326
0	14601	716703.823268391968	3552.0674386923
0	14606	716780.420532271481	3941.0692428441
0	14611	717059.214076592279	5457.6100619899
0	14623	717516.742425339218	3938.7147653563
0	14628	717685.937331016106	1946.4434636343
0	14654	718751.509849193486	2621.7933014893
0	14736	722006.958365430105	8184.9866646368
0	14741	722063.01488740534	7983.1515401443
0	14746	722252.461697279895	3428.8113312667
0	14751	722519.675965500341	3952.3638677273
0	14757	722838.06856127845	3681.4154082692
0	14762	722903.823135449758	3797.905056133
0	14771	723450.559027140183	2334.1320937361
0	14805	725124.669914436373	7326.8796697363
0	14811	725361.813223594859	4341.2335858777
0	14816	725551.583081472377	6372.0883222613
0	14821	725669.757858510758	2197.4327432424
0	14830	726447.788732152199	5054.600177159
0	14863	729348.422044398402	5690.6308248321
0	14892	731980.483470976801	4661.4009686677
0	14916	733085.699640733128	3223.954448597
0	14924	733309.006899790553	4145.0916760342
0	14943	733881.709455206849	4539.8769236228
0	14951	734096.902170309767	2076.9303359096
0	15040	738728.469339716735	5418.6647157404
0	15049	738904.078870819388	4782.4948054257
0	15059	739216.160994937444	4955.0866441081
0	15064	739298.336506237618	3299.929923575
0	15079	739879.249369647257	11792.709648862
0	15092	740091.203453728422	3836.1436091608
0	15108	740289.246825810474	4677.0668437007
0	15120	740894.80682522335	2093.8748835968
0	15130	741294.612237350591	4313.8665520732
0	15136	741548.236519069802	1762.9920674096
0	15148	742346.450072599806	2279.9189757092
0	15162	742712.812279972726	5977.6686103358
0	15190	743335.725939344642	10217.968226353
0	15227	745280.181027778793	4877.4635678349
0	15248	746039.053695355318	10783.398809848
0	15253	746112.714758126806	2916.5270256702
0	15275	746544.037414280534	4056.1870656103
0	15281	746662.284849369063	3184.6369321296
0	15286	746961.167415889926	2169.4634646974
0	15320	748422.498207768288	5122.6749473171
0	15328	748613.205658255602	3845.4628552179
0	15337	749224.27855811859	2142.5452496656
0	15364	749883.443626762716	2553.1807469414
0	15376	750830.477579832681	5626.8260732626
0	15387	751159.029272466708	1835.0198152219
0	15402	751809.721151898785	9203.4718341035
0	15407	752070.980253607407	2598.3868677798
0	15412	752224.345451209093	4935.5434241239
0	15433	753840.052852667886	7622.2850222305
0	15492	756023.743408782032	5424.9855836791
0	15503	756699.208139556825	3525.6888274402
0	15520	757272.211853309757	3574.7032255329
0	15529	758559.233122106072	4121.1666693662
0	15543	759399.447959464226	4846.1047074838
0	15549	759488.822272611504	5222.1222540191
0	15557	759795.750904059223	4668.5949152879
0	15580	760914.824966149423	4515.819025939
0	15602	761537.120251962622	820.2693652144
0	15610	761647.012369863077	3444.6749167429
0	15625	762688.586351784237	2764.753046183
0	15644	763400.714447677451	8010.6330294347
0	15666	764342.273178209185	3580.2043196906
0	15678	765111.075082469438	3341.9751416514
0	15687	765511.939383006483	2253.9749399707
0	15727	767247.311860439556	1851.9342156431
0	15757	768623.905760332558	6315.7853997008
0	15765	768817.300343880701	5339.7525901917
0	15771	768931.821934581988	1587.0394381086
0	15776	768953.865968011658	2173.8501940166
0	15784	769066.635791943563	1993.0921838263
0	15814	771590.425894424559	5799.4641272461
0	15828	772568.416396009147	3206.7729556055
0	15857	774514.959524354839	1839.6809799616
0	15869	775320.773372720368	4043.1304931362
0	15887	775726.851029844043	6425.2362421719
0	15918	776232.69175941478	2848.0327287478
0	15932	776684.164569217653	912.30626275668
0	15943	776998.224741220407	1697.8359564579
0	15981	779890.836446687003	4118.4223579095
0	15987	780152.211617426515	12262.955327056
0	15992	780377.219595565369	5430.7431574222
0	16000	780614.406013164194	4580.7848023535
0	16018	781848.111341005823	4151.6793896262
0	16041	783485.129257504151	3094.4569629532
0	16055	784214.478035701974	2500.2881791334
0	16074	784707.97668193851	2625.503250986
0	16083	785698.002295315495	1782.1121189616
0	16096	786928.996994118095	10081.276275064
0	16119	788997.049067556116	4860.8121219672
0	16127	789243.809697999558	2388.2177652698
0	16149	791815.833158249026	4376.7448049033
0	16167	793649.325383550278	14933.778138201
0	16181	794538.651798342858	3807.7007520427
0	16295	799054.666260741286	3645.829827332
0	16303	799602.837379700763	6020.7608245674
0	16311	799644.857674789947	4490.7577703734
0	16320	799819.501941705894	2732.4502582111
0	16330	800464.190159948542	4885.3397268961
0	16346	801766.424154450943	5658.6966162149
0	16354	802024.605814709522	4189.436225306
0	16359	802241.898268602848	5157.5243910777
0	16365	802800.577744775443	4511.298642891
0	16377	803697.8996013493	7372.7759892387
0	16399	804399.803204504211	8813.8432763192
0	16413	804893.38374002967	6615.5687939482
0	16418	804901.063103325857	13123.692121326
0	16440	807768.767899842918	4801.3031074721
0	16446	808595.898560095688	4257.7766140045
0	16506	810943.305390826392	4828.8993538827
0	16514	811023.302567278053	2308.5028864013
0	16519	811237.334146229517	8163.9121088752
0	16525	811924.799591136824	12106.791813721
0	16530	811985.044246744616	2466.3157972933
0	16545	813066.834494209699	4029.9992051026
0	16576	814393.007393371558	1797.2472823455
0	16581	814394.368264080343	1921.0205426453
0	16595	815151.622423952465	5976.014091254
0	16610	816054.659581525636	6074.8482732252
0	16640	817477.251014068739	3633.048884637
0	16657	818461.906640599611	3483.6891361741
0	16674	819167.743375194989	1546.4487989049
0	16694	821313.267354633699	5057.54614584
0	16719	822444.036245849481	6411.2094202411
0	16735	823071.172829131626	6315.4355780307
0	16780	824924.41229209576	5291.8147299204
0	16785	825272.228281817969	3666.8934254536
0	16803	826754.430661972127	3115.228906073
0	16829	828165.674304315573	2548.8598969484
0	16838	828897.778694416223	9374.1677089385
0	16846	829107.29154610024	4800.2052159615
0	16865	829695.24934852223	11159.860208613
0	16880	829861.269090695903	8432.3325634265
0	16896	830345.349997229415	2810.6813344915
0	16907	830798.271451564388	3071.0112896779
0	16918	831204.43930522275	7370.1935324711
0	16954	833112.033121103126	2196.1205340537
0	16966	833568.321389431814	2614.5444856784
0	16986	834594.634054744325	4889.8218782052
0	16991	834812.451671125553	4729.2665257581
0	17003	835230.648157371465	11615.321744909
0	17008	835471.941191181642	6076.6829022853
0	17014	835860.401406437006	3629.8434527822
0	17022	835925.318915701449	4405.4132324124
0	17093	839235.184297166158	5833.1801463143
0	17098	839721.041168993658	2395.0824498665
0	17113	840228.264240481622	2459.8681722108
0	17124	840676.715603695098	2993.3748492152
0	17138	841242.298604424666	3030.1765827591
0	17221	845295.535807528704	7125.1719422527
0	17226	845357.59885804297	6955.1810589937
0	17231	845548.060321518427	4540.4727403322
0	17245	845986.564308688547	5500.7682228932
0	17282	847033.412581387604	5407.0041959388
0	17287	847235.590951586836	11271.761251997
0	17292	847244.505364412389	5318.5549271352
0	17297	847273.149578763017	3654.8230814953
0	17305	847380.965931747795	3757.4143221428
0	17317	847929.879191625858	3712.7660029935
0	17327	848213.286494163166	5553.8078297972
0	17332	848364.043288947586	2553.782384335
0	17350	849803.058595783802	4943.7692497358
0	17391	852265.067619059035	5998.2952865679
0	17438	853711.666265055455	8015.4517601419
0	17444	853829.837640333529	5239.41479495
0	17452	854137.241622984599	3677.9193165286
0	17457	854301.115895235046	3521.2277575084
0	17462	854304.52222422072	1983.78372844
0	17468	855221.468322018107	5072.3606363041
0	17481	857079.291417681805	4995.4418838578
0	17486	857125.575402592408	9682.4875600034
0	17516	859393.020066743622	6754.0296269869
0	17530	860141.596490208877	2144.4647099218
0	17602	862066.638040480164	3289.4222310221
0	17608	862751.678955576875	2588.2112263242
0	17623	863704.07090110527	4462.388484935
0	17660	865550.863677539223	12957.125152299
0	17672	866075.217205170161	5107.9116218899
0	17689	866734.247963910498	6255.4846212569
0	17699	867215.738453718534	6779.8738797973
0	17714	868051.815581862585	7679.8376786732
0	17725	868351.55177399021	6519.4777507645
0	17730	868490.440774975454	5191.9225323301
0	17735	868542.916428308585	3736.6769781943
0	17743	868984.947618198479	2928.449294741
0	17748	869042.387229266099	2334.6313560904
0	17757	869172.346345336842	7969.2894236339
0	17769	870257.101460275449	6274.7981188199
0	17792	871928.230639857525	1695.5962132041
0	17803	874716.152183810965	7467.1504117155
0	17820	875199.600406291794	4655.794920517
0	17867	879108.659530642064	4371.7269784068
0	17872	879199.358165511224	1705.9526232864
0	17882	880410.171010026389	2502.1546774491
0	17920	883325.820163191462	5434.5429100651
0	17925	883634.531056037154	5541.4108271702
0	17937	884013.68979514139	1930.2083339054
0	17950	884510.752371388547	3101.5898229412
0	17960	885502.612888231708	2939.8402496824
0	17994	889278.742700032282	2036.4440378331
0	18021	890189.609866304184	6187.9060698415
0	18041	891099.415867877286	2195.1398853459
0	18046	891374.907778884293	2228.6271633336
0	18076	893256.429608900767	3037.7035086684
0	18085	894169.329592387909	4535.7935056901
0	18098	894588.641582503248	2828.2466884319
0	18107	894986.111953550867	1907.4241274291
0	18143	898507.749517387968	3114.6219997949
0	18152	899335.819782879835	2420.4309376397
0	18166	899686.726219191951	6260.5355039878
0	18185	900035.571645321007	10858.618228133
0	18194	901651.466247568383	2023.9480599335
0	18220	902850.436858306665	5149.0228844235
0	18229	904021.755495985791	1552.7913967845
0	18252	905016.787450240223	2377.8645116654
0	18266	905377.806054610143	5736.2297899318
0	18280	906873.03185530742	2161.7162614439
0	18289	907532.653535618824	3116.8706113464
0	18334	911324.397011587026	5978.431994943
0	18350	911918.69045907767	1566.9318623652
0	18382	913312.940865166238	2937.3483348134
0	18387	913339.43816985542	2472.8328713199
0	18392	913574.486809744018	1970.0098442596
0	18409	914583.971901409616	2643.0345197097
0	18445	917161.66526077387	7135.712401961
0	18462	918351.48021401223	6265.3689995116
0	18483	919808.424644206261	3620.673288354
0	18512	920475.435525906228	1215.0661001045
0	18524	920888.439679021857	4547.4486781988
0	18529	921046.400670166979	1423.1821677912
0	18550	922665.712088189194	8519.9373635005
0	18555	922672.801225409081	6386.1586414458
0	18579	924437.26399732667	3266.3110548929
0	18592	924807.958207089564	4948.7208782572
0	18598	924979.804746830708	6903.1934144488
0	18653	928332.516052983107	8464.958049597
0	18664	928703.872715501631	4956.6699557404
0	18675	928997.629534924012	3543.3603383828
0	18686	929485.29007149317	6194.5319037178
0	18694	929714.938061787509	4390.5296667104
0	18699	929757.337724299339	2327.6990430987
0	18779	935356.246173418536	6429.0448681459
0	18784	935808.281678177952	10301.647044049
0	18789	935813.789097638977	8390.4074784135
0	18801	936211.437427236208	3872.9776616156
0	18884	940568.240432761482	8536.181129028
0	18889	941137.640795536113	9811.8840651172
0	18901	941550.953666092422	5638.411436048
0	18909	941880.872481987115	3119.4735676163
0	18923	942555.058012826267	9505.6080221585
0	18940	943268.668612111144	11184.951488916
0	18945	943579.274895631128	5957.3226003692
0	18957	944146.268959619732	6926.5645133832
0	18969	945025.061942274307	12371.778362219
0	18979	945162.501479221335	6158.0885368356
0	18984	945320.401083199521	6036.9787069125
0	18990	945799.291868723608	8672.8421990063
0	19009	948779.878519517371	6451.0255708015
0	19051	950082.59211673186	15833.176941847
1	1588	80685.464013563156	488.21598247729
1	1593	80817.383683091375	358.67360485849
1	1611	81271.351665716669	151.63187446583
1	1659	83239.381845271534	43.429281986561
1	1677	83841.015529330498	0
1	1694	84631.918099485509	181.55213673147
1	1703	85710.668833928303	0
1	1713	87116.600908710313	0
1	1729	87414.556878755273	0
1	1761	88685.977149731278	81.725928459926
1	1770	89254.762625796099	314.17016893957
1	1796	90914.423963462944	1090.9364279595
1	1808	91728.586660141079	443.61722153751
1	1813	91760.555277931344	48.455890547785
1	1829	92085.571747851977	23.410187985354
1	1856	93297.048099171546	0
1	1875	95346.605412705033	0
1	1892	96858.608688195885	746.15748013929
1	1901	97273.186422819896	0
1	1909	97358.243049710124	0
1	1926	97912.620990634111	0
1	1954	99269.411201789786	121.90935216048
1	1985	100976.227001558391	0
1	2004	102942.415181841773	556.87549657671
1	2012	103249.935698249855	0
1	2020	103643.912553346729	0
1	2038	105073.846439186719	0
1	2052	107548.616055450952	2440.2684031744
1	2063	107866.735549680534	511.97236194315
1	2068	107869.84388848209	52.730284044092
1	2094	109042.571528208237	364.44692329937
1	2124	110502.800265602336	0
1	2133	111245.2164925252	151.70114564712
1	2142	112073.588024215483	0
1	2171	113320.944815133499	325.71521668117
1	2176	113630.193434964833	388.5893947538
1	2185	114046.689978716512	23.211958904467
1	2201	114661.290897625549	0
1	2218	114860.504655632943	0
1	2226	115339.654634475281	0
1	2235	115907.662793728565	0
1	2264	117387.808842064473	341.60845277855
1	2269	117417.292782151333	172.82593850055
1	2284	117973.879933063945	512.4739097955
1	2304	118974.867664004115	142.3160847455
1	2353	120729.882359983342	561.09231751837
1	2358	120809.85303125431	494.40194601072
1	2402	122146.129421727891	0
1	2417	123087.891443051235	316.42814087194
1	2422	123128.15183501614	161.30524615391
1	2430	123278.126697329947	56.738255677241
1	2480	126917.793539000243	0
1	2489	128158.068049050958	0
1	2497	128330.523454315946	0
1	2522	129424.434790085912	0
1	2531	129928.111661879574	145.70291217949
1	2566	132503.590902207025	0
1	2575	132861.034453963914	0
1	2583	133090.818045618706	26.150204286933
1	2591	133436.941088894362	0
1	2608	134349.942545724195	0
1	2618	135472.705968945509	0
1	2629	135999.201609699325	58.147156162649
1	2646	136390.251062301835	299.94113237376
1	2676	137225.249026453852	0
1	2692	137966.442693750714	172.98312805025
1	2716	138638.049277061881	468.05315689494
1	2722	139175.9795348385	988.95234460547
1	2734	139833.915836312787	1366.2341432746
1	2753	141010.700082574261	747.34860576236
1	2767	141721.858924487401	244.00178485689
1	2803	142864.310151201033	277.44854454748
1	2809	143231.219779056569	515.63600821592
1	2823	143615.191654651115	864.76879332458
1	2831	143736.609239574881	448.5312858645
1	2836	143771.986195709282	231.92916936202
1	2873	144994.535734374383	275.25779812548
1	2884	145306.695843281489	535.87305444456
1	2889	145520.32128517042	622.74202213772
1	2900	145671.587932544383	7.614571445545
1	2914	146041.875030547264	286.13845177565
1	2963	147861.876227394645	196.87840040806
1	2972	148431.991058212934	680.66815398713
1	2980	148626.844837143489	488.99511724698
1	2994	149789.384780273806	0
1	3011	150451.320251887609	568.06843310576
1	3034	151529.874479425503	189.39785495991
1	3047	152581.347809217266	889.17877343838
1	3052	152744.967180984324	941.35845067253
1	3073	153554.749106833435	498.29122367882
1	3085	154496.904177670399	544.53951600014
1	3144	156840.748314893328	259.45788052532
1	3153	157452.678560014719	184.30483168946
1	3182	159990.641722212895	0
1	3194	160590.818548116803	371.77116829117
1	3203	161406.029813487059	1072.5428457352
1	3208	161611.910674841829	415.82842139942
1	3220	162280.5797018787	124.05111337273
1	3231	162733.479315137416	532.71321775565
1	3236	162809.278764496674	526.24262586951
1	3300	164722.729216609586	0
1	3317	165674.234261037753	0
1	3325	165925.778052683487	0
1	3343	167551.034879757951	281.29538967757
1	3352	168381.414681156267	0
1	3395	170805.411447257715	0
1	3412	172274.18064904053	0
1	3425	173497.456359435469	956.16682111667
1	3439	174008.37067287827	0
1	3447	174290.609111937559	88.989042195641
1	3459	174948.340952208743	531.08061014199
1	3483	175375.494058177472	68.012931073187
1	3492	175865.900896497299	538.49113419418
1	3504	176681.058751928089	1170.6839179475
1	3534	177557.16227353633	3.447462632345
1	3547	178011.44037990305	0
1	3556	178402.756867748452	0
1	3564	178912.37767026297	0
1	3585	180117.087854394581	89.088456205896
1	3593	180298.779050965206	84.760755897453
1	3607	180490.410522116645	177.25319126511
1	3619	181506.570053872535	1181.259205795
1	3631	181792.487682659071	688.41535864895
1	3647	182350.9738727287	80.940339261392
1	3662	182876.754330399231	187.38772718027
1	3670	183333.703703198471	602.99884472919
1	3692	184105.127028803586	469.40571275659
1	3698	184318.453749317114	608.30816990166
1	3741	185514.227234108384	123.5026219186
1	3749	185608.93261457122	16.620200420551
1	3778	186666.056400050807	130.13606011596
1	3793	187422.102078871751	879.64682489758
1	3808	188224.394177496255	1681.0167930571
1	3823	189010.675139610535	2438.8402327983
1	3835	189527.711373628073	2626.0542834972
1	3840	189766.899214232028	2102.4157875782
1	3848	190109.203834528248	2134.225666418
1	3853	190112.83773331252	1390.5614285727
1	3862	190445.275177646017	1405.8623185631
1	3867	190495.429786400053	717.30882356376
1	3872	190514.538741888432	290.3367123989
1	3880	191084.857006011747	472.15138583086
1	3894	191432.786694574679	11.169874184211
1	3965	193475.758896184267	9.500818470843
1	3978	193666.161073620708	56.106292151944
1	4006	194247.532687927048	271.41149565731
1	4012	194654.976003631645	514.70949663299
1	4070	197327.799870077012	213.25990910899
1	4083	197913.444397599762	39.482202408788
1	4100	198830.520131783262	255.67681673356
1	4140	201020.252003529146	185.39673727797
1	4154	201754.776859138903	306.57048230254
1	4177	203263.975121787922	0
1	4207	209078.210272011511	23.033298178421
1	4216	209829.80934070643	265.38674667394
1	4225	210030.069172422453	0
1	4233	210269.013331124364	0
1	4241	210288.655963802711	4.431141764535
1	4282	211319.908484188706	0
1	4290	211451.065276558872	0
1	4319	215434.800430902753	0
1	4331	216186.579612752196	538.25728930772
1	4336	216461.159957484283	752.6071148372
1	4362	218126.571598736244	0
1	4371	218977.914940553441	0
1	4407	222404.540150711975	0
1	4424	223001.227392298207	0
1	4440	223481.872859567411	0
1	4455	224437.084877922289	691.93194374782
1	4461	224661.431371130405	686.73766593767
1	4492	226880.689645315422	0
1	4500	227061.4484544687	11.467347379861
1	4515	227394.291387383019	313.90831793654
1	4523	227648.786636785023	409.31630167594
1	4531	227768.084888067236	100.871898396
1	4543	228070.235603184121	266.80728363207
1	4562	228290.882343297868	66.091261703918
1	4576	228780.434943460764	17.156088048477
1	4585	229399.457379941828	163.46750794076
1	4614	230806.9558246265	497.77374841339
1	4629	231662.542742915584	701.33479443087
1	4634	231672.960997223095	147.27709378615
1	4665	233358.405388790154	139.37071536813
1	4709	235774.958318909447	497.87582259379
1	4717	235864.432716119057	76.135988277158
1	4728	236392.665909259249	249.03678653745
1	4748	236914.392173391381	86.55618849589
1	4774	238075.688458784124	646.48215498794
1	4779	238176.54647678358	704.32499578801
1	4785	238293.288732631676	443.58492721728
1	4793	238926.61690680597	923.11119228852
1	4798	239090.187562806452	555.01161244493
1	4827	239486.608581808435	0
1	4852	240772.122883953855	272.43656586141
1	4886	241828.390607895762	130.61992793725
1	4912	243479.743152924174	0
1	4932	243823.964754854294	295.963687629
1	4937	244114.603009258133	506.30531279964
1	4942	244241.574744293679	463.30771092826
1	4970	246004.835499606273	0
1	4988	247569.616508941177	0
1	4997	247737.639106284662	6.369603942902
1	5015	249451.266975640436	0
1	5032	250810.603981083234	0
1	5050	252016.923699241239	0
1	5066	252428.854825726005	64.841206240462
1	5081	253487.84789750167	301.77909467649
1	5086	253596.938643861236	307.6875363796
1	5111	254036.421667592768	26.69834171892
1	5132	254565.818680933914	122.32822607634
1	5167	256338.445891410792	0
1	5185	257548.671361296247	363.10396564286
1	5194	258656.814698433794	1215.3415654962
1	5200	258899.254230915248	943.24450855083
1	5233	260453.164077123907	129.27617443681
1	5238	260549.330562885795	132.04919526292
1	5261	262113.236245085952	668.68609179391
1	5270	263068.03560665046	0
1	5293	263626.388454308959	196.01565011158
1	5321	264912.668880865702	0
1	5329	265125.974266586173	0
1	5338	265819.957170507377	0
1	5346	266279.222132604101	0
1	5363	267419.799899092962	0
1	5394	270035.194412076846	850.39366175346
1	5399	270335.73224338642	712.14649585154
1	5407	270720.682760379285	197.2788661677
1	5442	272041.331984834525	296.10429389647
1	5447	272215.519998182342	386.91161422418
1	5487	274585.593570769247	394.58646846722
1	5503	275144.325575593355	65.338288193064
1	5512	275520.304784298945	328.44898418145
1	5520	275735.243616412143	72.99629734531
1	5559	277036.38776128181	28.086647433885
1	5586	279804.717111904199	384.62127337132
1	5594	280254.755405473969	0
1	5603	280826.505607643288	0
1	5638	283451.079116876939	0
1	5647	284404.219059881326	0
1	5658	286890.469837313297	0
1	5692	288768.415020169235	0
1	5709	289480.025441722846	0
1	5718	290065.615032004032	0
1	5735	291324.769080015141	0
1	5744	291798.316847178801	342.33171096385
1	5755	291970.596722779999	160.99887201769
1	5780	292848.446628004372	248.41297349777
1	5814	296956.475775383712	0
1	5832	298774.248914198153	0
1	5850	300816.976712049767	0
1	5865	301326.208429509881	481.39853541347
1	5870	301453.766855909863	269.28579342735
1	5875	301457.476836721319	251.10709450422
1	5884	301912.930984430715	417.76988071727
1	5901	302994.226395909979	173.94925541126
1	5935	304514.283023699274	181.8726397048
1	5943	305091.65323660754	504.81190099858
1	5960	305952.036482410007	0
1	5977	306387.960088654644	0
1	5992	307008.068177919355	339.04948552734
1	6036	309431.862716362706	0
1	6046	310639.678676060996	0
1	6054	310864.169307599767	109.80572398618
1	6073	312914.782563423746	0
1	6084	313115.75994846063	143.64585063254
1	6098	313456.912295405588	245.77247850106
1	6137	315383.685163690653	674.59299133049
1	6143	315447.114350091375	509.38741720943
1	6149	316334.869282203802	1108.4038809971
1	6157	316488.875546645571	0
1	6199	318142.351715378846	0
1	6210	318676.761666519547	231.20061137208
1	6224	319169.581604503065	375.59454102778
1	6232	319294.710604473224	0
1	6264	320788.760846235581	104.02297686153
1	6272	320808.622960728301	9.126474832522
1	6280	321006.542766852323	134.88787162782
1	6292	321820.224688455837	31.567251196939
1	6314	322494.027549602009	209.05448931177
1	6322	322709.271200980523	284.09283462399
1	6333	322816.859275959577	10.310178792826
1	6360	323628.751073549193	197.811956919
1	6400	325982.150613233384	0
1	6408	326244.32097621802	0
1	6418	327644.289068860399	0
1	6430	328523.761523856409	43.404908904389
1	6442	329627.746074574098	302.07843224319
1	6464	330666.747136210925	111.82320073382
1	6494	331711.03107904829	0
1	6504	332702.016725883684	0
1	6530	334442.459181500296	0
1	6547	335320.550345578771	0
1	6564	336113.472929711303	0
1	6589	337208.175829412855	0
1	6598	338101.794995199231	0
1	6624	339208.076496444638	347.83735040036
1	6638	339726.86758438177	47.676154878606
1	6646	339944.793995546864	144.83881243584
1	6665	340497.59247305637	71.403245997533
1	6698	341492.967712964466	29.53632801343
1	6706	341946.490467486327	0
1	6723	342718.683975679292	0
1	6741	343763.785517571944	0
1	6749	344029.364721264395	190.70708100901
1	6764	344596.193489458621	341.43306330885
1	6772	344770.254918739916	505.7285553492
1	6780	344944.303954613873	600.77353854852
1	6785	344993.887793935025	340.81928708911
1	6819	346267.788504053724	486.62133875861
1	6825	346982.390419349523	852.62358259953
1	6867	349020.633707597434	33.93785374067
1	6875	349221.388776702339	0
1	6904	351264.885707338641	25.583344850132
1	6913	351900.787975834991	651.9843006664
1	6919	352369.270085650032	671.43873235856
1	6961	354331.305324005652	181.88516390711
1	6987	355984.48434132064	0
1	7012	357133.638264979372	226.69396128558
1	7025	361373.337941166763	0
1	7035	362869.461424892296	0
1	7043	363086.839551081897	52.896288009479
1	7051	363248.212748677225	137.28264540713
1	7060	363597.388550560057	0
1	7068	363716.106331882975	105.07733356603
1	7076	364227.574112289715	0
1	7093	364793.421098213399	65.088775886525
1	7110	365796.33170349121	25.409848007323
1	7118	365811.751485183243	1.184169250356
1	7161	367858.746420769661	0
1	7169	367979.44867387634	47.227789033071
1	7192	368470.486093990677	375.26961724037
1	7201	368692.44286925917	589.64012247843
1	7206	369204.834603324651	985.54183976547
1	7221	369837.56336322736	1184.4146466882
1	7236	370764.726129157842	1376.4038772775
1	7247	370938.314064120213	1126.9744377491
1	7253	371165.8267796491	608.25145592315
1	7261	371840.353381161692	1104.3413845986
1	7279	372338.538494883384	437.69692064113
1	7290	372641.832512418356	611.10272395425
1	7295	372715.639128463713	455.32530734296
1	7405	377280.057117119828	481.94482739457
1	7427	378058.334278978884	136.53157813528
1	7435	378258.300605191219	57.176914285304
1	7471	380088.597693307264	0
1	7480	381192.51566475585	0
1	7489	381525.353086203892	0
1	7506	382505.295408350313	0
1	7523	383294.082237552021	507.96962766296
1	7540	384293.388348289	0
1	7548	384650.076132396627	0
1	7557	385306.685618619231	0
1	7569	385856.44363942421	427.5059766393
1	7580	386194.222732880076	386.1553507826
1	7586	386605.251530793645	603.73986549779
1	7599	386892.3521283277	7.240925991535
1	7610	387376.134795076318	110.60284625636
1	7627	388104.106359981678	342.46669595378
1	7650	389016.700541169112	624.05744600844
1	7674	389753.548498542403	0
1	7691	390735.005547193604	99.642559537859
1	7732	392629.2373438838	514.45549500925
1	7740	392679.461755577927	19.338564432265
1	7753	393219.088246726221	425.18337447091
1	7765	394284.593510837686	933.53157558804
1	7771	394538.737006336258	433.02920614406
1	7779	394668.99998092455	121.95772170061
1	7804	395794.148362991275	323.81364190387
1	7819	396034.182496808225	257.69500923608
1	7824	396051.903942927085	248.57916612626
1	7845	396932.084744518332	877.33318187032
1	7853	397285.660827248787	758.78317653099
1	7861	397679.628343001669	1121.5806962116
1	7943	400684.394120245504	115.36769952219
1	7957	400831.417651520859	100.45681166685
1	7962	400998.381929272654	240.26531976868
1	7985	402608.599922536625	0
1	7994	402937.773140011885	0
1	8022	403865.792919541114	172.87398209294
1	8036	404383.111864683516	652.49264723566
1	8048	404817.090969228633	871.47191642905
1	8064	406344.182599289617	2159.3718474179
1	8072	407119.613933792476	2739.6394326539
1	8078	407427.067378767861	2603.943225536
1	8086	407524.833521298285	1885.8091405212
1	8097	407764.606632242096	208.96831526693
1	8106	408242.924973384404	546.33452238768
1	8114	408843.576691067322	1064.3317339286
1	8149	409648.174036002024	39.403767286599
1	8161	409825.204066670561	166.60890654261
1	8191	410593.758504900929	436.44895928518
1	8199	410858.844678815728	158.53635226368
1	8207	410930.019087981168	68.135956412244
1	8232	411528.000005814959	225.32975765461
1	8237	411670.352794795779	315.78294649471
1	8264	412840.447004338424	122.62730535635
1	8301	414630.955077951717	359.45846231287
1	8322	415396.616569630091	973.02556989864
1	8327	415628.70003316978	858.48672191278
1	8333	415746.32849763287	499.10999307102
1	8347	416050.205014868422	221.64163129416
1	8355	416097.552831346667	258.36152556737
1	8360	416110.109682596801	182.02280885807
1	8365	416124.022287408669	42.010224777615
1	8383	417123.951057946023	193.77079735859
1	8391	417352.812895916388	294.11663165818
1	8400	417628.281645460256	44.30785687721
1	8445	419151.475153100304	85.567765970024
1	8466	420196.003032867847	837.3706385501
1	8471	420305.176354490481	599.6433737457
1	8510	422360.048766736667	425.23042032325
1	8518	422451.049371838691	432.8785812585
1	8558	423488.446960792333	32.398247310974
1	8569	423851.228107076616	332.47341244779
1	8634	426881.263561656478	397.82056920259
1	8639	427133.113531507559	446.93484212531
1	8677	429587.923199201531	1444.437744827
1	8682	429652.298334878547	1419.2121976268
1	8687	429781.409284946332	910.16879428471
1	8692	430066.185748791389	806.083393176
1	8700	430169.972054128816	58.783682891616
1	8722	430898.928835586417	0
1	8734	431948.564410841233	877.77722767221
1	8783	435182.972282990405	310.31704575231
1	8795	435502.404565134487	139.22774618776
1	8800	435713.084531249409	215.04918633761
1	8808	435868.428927948718	0
1	8825	436815.630370007493	0
1	8833	436988.155109968436	146.57938935324
1	8858	437869.905795951718	0
1	8890	439209.824070439268	173.8961667146
1	8907	439811.606450389542	139.18493148989
1	8915	440342.618603368064	507.65148088919
1	8947	441655.960061212265	794.3081453089
1	8955	441861.636130047683	861.49325745403
1	8960	442003.871310368703	293.7060857119
1	9002	444168.779712104249	0
1	9020	445856.558335397939	0
1	9038	447912.360876025863	0
1	9057	450608.430193598646	0
1	9074	450994.941350593782	49.235241506399
1	9091	452292.561514890825	0
1	9100	452658.504708236062	191.40658824052
1	9123	453958.642212455772	793.52382049047
1	9142	454832.859350955909	0
1	9151	455212.674942379753	0
1	9159	455464.497504166144	146.17815581586
1	9179	456741.450291879432	365.66949136349
1	9204	457587.509901385013	508.46381619623
1	9209	457610.526288548238	274.56439486339
1	9243	459348.343287426971	206.75913647572
1	9251	459412.187672023036	0
1	9260	459645.383310452393	145.64776261446
1	9268	459888.988620956068	5.769330111861
1	9276	460234.558213907409	0
1	9285	460481.71734407687	37.76262990719
1	9322	462518.853103178472	47.726072147005
1	9372	466788.123232789872	0
1	9383	467015.786633072895	149.22783651354
1	9388	467062.066783781211	184.57215599231
1	9397	467377.624240529949	0
1	9414	468602.341269466848	0
1	9434	469290.859236838205	484.13812982657
1	9439	469349.508500664044	169.09910304631
1	9468	470551.464298817464	453.14352646792
1	9480	470955.961621749622	258.35424462183
1	9494	471648.002813512669	514.02194548992
1	9506	472336.679530258437	310.32577638615
1	9519	472510.433217116095	52.567277904442
1	9546	473439.7399560972	442.72850692338
1	9551	473841.530222869239	706.94648003529
1	9580	475092.07271254134	184.55842864762
1	9595	475802.197873853626	614.65084961544
1	9603	475953.292887264395	291.95701583491
1	9608	476163.895304401547	248.98449093337
1	9655	478099.416010426761	254.85634716012
1	9669	478335.125160006793	213.63449837107
1	9685	478945.628947421174	92.629458077168
1	9694	479430.459011347071	215.44022771389
1	9705	479743.35961316954	238.14635304069
1	9714	480343.81959723527	428.12510509003
1	9753	481874.968284554512	150.97213331973
1	9761	482100.750538793836	166.8591445309
1	9793	483718.852372604759	255.82160084226
1	9807	484451.541550163499	229.0509866584
1	9826	485548.728423656611	0
1	9834	485751.933127304125	0
1	9848	485989.912774314785	36.809507319639
1	9857	486427.789439129444	104.14896465673
1	9885	487897.949967939317	0
1	9902	488991.074972338928	0
1	9919	489914.636347171614	447.66288461611
1	9940	491253.139395710648	83.86509672171
1	9958	492184.828227261234	610.03204863442
1	9966	492617.368629524337	755.25561281659
1	9971	492631.63079913279	496.44377686597
1	9989	493356.688241688717	570.19656829187
1	9998	493939.919686682716	896.41678361246
1	10006	494205.471093356706	737.36229481428
1	10018	494777.698574082365	189.40163694887
1	10026	495092.041201200863	387.26623035415
1	10038	495920.738289138362	944.66739106311
1	10053	496969.212059530617	1872.2552649649
1	10058	496991.139665055067	694.13241909729
1	10066	497144.606310057614	630.23026192517
1	10084	497538.469629249282	584.99979704724
1	10089	497735.450743560101	650.28165598111
1	10094	497783.400129734756	449.29974398962
1	10102	497926.940578772783	532.1706156651
1	10114	498023.064944380253	51.665375102637
1	10163	498986.848608099958	131.00732666212
1	10168	499034.315803002809	138.0147244011
1	10183	499915.254456901056	584.67341888299
1	10194	500157.535988340504	761.27536792946
1	10213	501005.058248572164	260.61096116334
1	10290	504076.867211841971	190.09940412884
1	10304	504517.337080339312	177.45782972934
1	10309	504860.344497720598	389.07414737172
1	10343	506571.403524352472	1030.7869084183
1	10349	507095.292301603192	1024.4243002324
1	10374	508017.144932874855	227.30002906427
1	10383	508376.634059847635	44.811522309323
1	10394	508521.687644048569	16.955602647233
1	10402	509042.951733779234	310.2466520148
1	10455	511706.44503021265	258.58450815335
1	10493	515488.716086087254	0
1	10501	515720.78626484805	43.161029455849
1	10534	517761.727108209719	60.003847788181
1	10553	519079.401870621448	217.43059508131
1	10562	519576.547276117317	10.135352787705
1	10579	520434.148447912102	0
1	10587	521145.001246005158	0
1	10596	521469.687021598294	0
1	10630	523663.189166261813	0
1	10653	524151.266766025175	158.47399128474
1	10661	524493.575275451177	492.68463321839
1	10673	524859.421209357825	664.16051568244
1	10681	524952.62204417413	332.8634664158
1	10689	525109.120488388269	363.82571609272
1	10694	525306.908379230098	406.94164736682
1	10739	526598.855386196105	484.60191345555
1	10744	527001.404922589209	475.77302710649
1	10760	528073.866271085318	605.00553975029
1	10771	528415.390368349141	605.50915127709
1	10776	528808.94505232295	479.01589190799
1	10793	529441.227437547073	380.34472807385
1	10813	529996.239110669047	145.88096650981
1	10833	531110.564932516057	448.81695763016
1	10838	531314.900242265329	494.69151659125
1	10870	532160.125692271679	198.57806901453
1	10876	532479.781498679711	370.20946009667
1	10889	532861.639102384785	129.38420823572
1	10906	533185.226537458524	0
1	10914	533550.554248762722	92.120856188799
1	10935	534457.496943998249	431.62657842499
1	10940	534497.126107903779	164.31951169632
1	10945	534498.023721572375	93.41389974043
1	10971	535585.540351211824	685.29189502216
1	11001	536482.824790267155	294.9331629514
1	11013	536861.980464444941	358.0737237999
1	11116	542332.25128000874	0
1	11125	543321.146093106312	0
1	11134	543444.974101536646	0
1	11149	545142.919234048396	1312.2742520552
1	11155	545556.137345831001	1546.441305836
1	11168	545642.377069635182	0
1	11177	546622.717001905282	0
1	11194	547016.657072060245	5.970004348154
1	11209	547755.253898538123	100.80505424433
1	11217	547812.375366080116	117.49251657602
1	11230	547860.958436358668	0.342175870248
1	11295	551843.610503709175	0
1	11304	552447.425537717676	0
1	11340	556118.032924368099	0
1	11349	556542.016185914209	0
1	11358	557328.706284718703	0
1	11375	558247.431504157876	0
1	11384	559311.624947537476	0
1	11393	559744.049605659517	0
1	11401	559940.501294574775	0
1	11409	560216.4300236023	0
1	11425	560552.967073006668	107.55451186537
1	11477	563552.337569932669	0
1	11485	563706.476446116019	0
1	11511	565381.46419310547	67.167511186472
1	11523	566113.836707811727	623.08076065542
1	11534	566453.120177691996	757.49375991616
1	11540	566586.733097801014	433.38093979432
1	11562	567475.367606603246	0
1	11581	568245.543940155463	80.346787062459
1	11621	570127.984540548723	0
1	11633	571143.431393785714	571.92224313874
1	11641	571459.845538642683	105.47763128395
1	11664	572508.756920274598	918.12529893756
1	11670	572703.289707841136	578.64228448191
1	11718	575770.085065084209	525.20090179556
1	11724	576211.269592383891	547.52738291697
1	11732	576320.341912194703	44.788494885352
1	11740	576559.647146015974	0
1	11749	577012.629366535232	423.2034334368
1	11757	577059.93529089888	27.50674796913
1	11769	577808.581296147995	158.7847171989
1	11789	578586.295141583939	335.77045954192
1	11827	579892.327097239774	133.3458088579
1	11832	580074.454058321078	224.08686758997
1	11868	582317.420875354069	382.79844821208
1	11883	583112.311564146681	629.18826001352
1	11888	583361.986555478151	573.54497084329
1	11897	583919.775555756235	832.09241018548
1	11916	584357.771792994009	284.58008135206
1	11925	584990.548539778441	613.88653175016
1	11949	585395.948388603922	86.350583410679
1	11992	586900.915973166984	60.137104910131
1	12001	587706.294001193562	0
1	12020	590064.632631121303	0
1	12028	590379.265723255634	0
1	12036	590431.268721310009	0
1	12070	591774.433606760826	0
1	12080	593349.434016807507	0
1	12088	593853.80118350035	0
1	12097	594736.175391007506	0
1	12106	594878.35675110555	0
1	12114	595386.128903351673	0
1	12172	597241.463877604174	185.4162717865
1	12189	598046.430177958019	56.421359560695
1	12215	599902.364722487135	593.39683436391
1	12224	600679.646801282955	0
1	12258	602553.908493433048	0
1	12268	603463.083417668131	0
1	12286	605440.581366210863	0
1	12303	606478.197000743344	0
1	12315	607041.070221005698	151.49979243268
1	12326	607400.272111800419	327.31628847684
1	12331	607546.994664342056	316.11932626135
1	12372	610320.458532627141	0
1	12380	610892.774226208084	145.29460020495
1	12389	611674.451347022698	226.75116893872
1	12404	612267.063344563604	250.12274532902
1	12412	612483.407965961567	398.39815194834
1	12417	612509.416789082013	410.9055876596
1	12439	613356.817743610732	143.63299939037
1	12464	614039.609310155263	0
1	12475	614379.283606318268	169.2316076155
1	12480	614414.25094837272	134.87001157053
1	12489	614675.079931612861	237.17477892759
1	12514	616225.779343990738	0
1	12531	616559.445269886466	139.24111195336
1	12547	616838.548953397532	85.911087436949
1	12564	617420.540381207051	17.763604052103
1	12585	618590.515842987366	289.48719111329
1	12591	619381.593181501869	919.21072938937
1	12651	623270.719289828882	0
1	12667	623826.478388283408	415.00215862799
1	12679	624732.32084904297	587.55812123659
1	12685	624903.193330005532	255.0223167275
1	12719	626869.706671233607	36.945135511351
1	12727	627068.603596600261	57.133342410297
1	12735	627255.789718565553	0
1	12744	627512.194962507835	0
1	12755	627845.998057197795	16.567486055298
1	12777	628959.687780999002	0
1	12789	629259.250196124902	154.32059283964
1	12823	631405.819913659116	341.14025675488
1	12836	631632.76202286672	0
1	12872	634345.704500644085	0
1	12889	635617.445436110539	0
1	12906	636396.438244210777	0
1	12915	636874.852114538716	0
1	12923	637014.523059817605	24.899403190251
1	12948	637735.762296960137	0
1	12956	638050.706370992473	0
1	13007	640495.618892132792	0
1	13016	641577.4198924654	0
1	13024	641877.028184274195	253.56763404572
1	13033	642368.281349176188	232.63768333466
1	13055	644036.528555421096	931.09401874089
1	13060	644161.001303263598	833.48140671657
1	13065	644260.07636345946	789.47682461032
1	13084	644739.419466090455	0
1	13101	646171.276847524866	0
1	13110	646624.805260282289	0
1	13126	646951.306449633416	167.72245961513
1	13178	649091.290230009568	889.24726043996
1	13183	649457.660172501454	1200.2266248593
1	13189	649893.776010940805	1137.1544197767
1	13194	649955.709824187764	922.15914763344
1	13202	650031.561681849257	0
1	13220	651220.226725400675	825.57397276382
1	13235	651744.581984137213	895.05279575489
1	13253	652746.016248324901	1196.4437472266
1	13258	652795.008378134811	772.45896761144
1	13263	652810.043639096395	405.95174365884
1	13284	653007.923655969492	92.564956447128
1	13314	655058.745072251962	774.26826204333
1	13367	658039.385008956757	729.70096398634
1	13376	658317.337549794651	967.20413654956
1	13399	659117.09364797634	328.25243664105
1	13411	659691.832034907477	460.40745094719
1	13419	659996.09779587946	12.36258082793
1	13433	660593.053163602885	0.972413565338
1	13485	662685.456259334189	973.80467941756
1	13490	662945.046191636453	901.52009406965
1	13501	663216.604372157288	936.81240210892
1	13509	663251.410716163494	276.55447312581
1	13518	663998.059685553313	933.5915851932
1	13530	664536.760406556822	518.11267755462
1	13541	664839.642095343979	426.25948614264
1	13547	665448.488224218624	877.8323917092
1	13601	667164.489783522626	206.73391166642
1	13606	667252.195699728913	226.64324732616
1	13614	667554.89431855999	211.15354623553
1	13641	669832.995241796988	0
1	13674	671034.188611858184	0
1	13708	672432.032255120721	0
1	13737	673946.817943961437	495.77719762547
1	13742	674198.723753700777	537.08576283685
1	13752	676172.740158610852	0
1	13761	676588.683458887744	0
1	13773	677645.020523632953	538.74137669993
1	13781	677678.894952468328	15.539827387174
1	13792	677911.552765662787	55.239918010164
1	13797	677991.593224921558	112.45842677758
1	13826	679623.158256537836	184.22397546961
1	13835	680170.917124231312	457.7140956634
1	13848	680390.228332139831	38.674982647347
1	13868	681362.584890536237	880.29037180259
1	13887	681601.608221581902	0
1	13895	681986.70459558667	0
1	13903	682146.982003387828	119.51438574365
1	13912	682726.138720703902	0
1	13920	683077.127647402206	0
1	13951	683537.564647773795	308.25812357202
1	13965	683848.438140095861	611.65177605385
1	13977	684044.975138202644	384.23601135094
1	13982	684137.312411739211	206.08835124391
1	14003	684802.37853431965	126.29063721208
1	14039	685530.996139546731	300.62566382286
1	14044	685578.262831271734	188.7231052936
1	14059	685848.851799276171	249.17998008187
1	14079	686604.943172254721	148.37432740197
1	14090	686882.800848540536	118.11091279571
1	14122	688530.787787425197	216.12967450715
1	14139	689279.39347606778	217.41120483436
1	14158	690273.832247598958	55.988076832358
1	14188	691395.008966787096	390.22010305154
1	14200	692018.977790255577	571.34102136139
1	14262	694660.172555375961	313.01582417106
1	14274	695671.538009760548	178.76106183462
1	14308	699697.72027001956	0
1	14322	699927.984322532252	113.14645204746
1	14327	699981.141384635539	66.795341326496
1	14336	700683.97697144569	765.97221747321
1	14341	700871.93913158348	645.16467119474
1	14349	700983.320194303992	84.075453940642
1	14384	703214.432485790318	0
1	14393	704202.873999289975	0
1	14401	704354.606830617571	0
1	14437	707164.410023809534	0
1	14462	708540.759568041883	66.248809958569
1	14474	709287.763647271568	569.76178785883
1	14506	711827.721524083258	226.11750948088
1	14530	713447.2529226221	607.90163319472
1	14545	714114.99724207479	963.24141237512
1	14550	714246.037694595571	668.01003461264
1	14556	715147.987275163604	1326.0155743703
1	14571	715870.513951896737	1790.6506046357
1	14582	716165.370525912814	425.87665853101
1	14587	716180.511363536173	50.794815831976
1	14633	717797.790244700107	0
1	14656	718751.509849193486	184.19775142041
1	14674	719305.99956486647	482.34919885323
1	14679	719336.202073826625	230.28399450987
1	14684	719342.733685721676	186.08053271239
1	14696	720852.069505075871	1672.5747458648
1	14705	721101.033246209019	80.453608491827
1	14719	721609.774545464794	493.34761206074
1	14724	721633.60842961045	240.4198746173
1	14776	723472.325115268366	0
1	14784	723741.309393042331	83.51817347604
1	14836	727319.082502309133	0
1	14845	728086.53972078548	0
1	14865	729348.422044398402	184.50682064201
1	14875	730357.772987390195	1015.9404558062
1	14880	730496.709040437245	634.96384830107
1	14898	732019.971834400195	0
1	14926	733309.006899790553	191.24918679892
1	14934	733379.458212069258	69.653588092932
1	14956	734121.584065393706	0
1	14964	734401.751382398438	140.67703156911
1	14973	735255.654885507641	0
1	14985	735938.438918452152	326.25893634234
1	14996	736271.857565708334	273.45098304576
1	15012	737346.168120562716	1091.1082759951
1	15021	738131.479797809457	1396.3361281725
1	15026	738199.471481755663	1218.7257964782
1	15051	738904.078870819388	103.14692919283
1	15081	739879.249369647257	94.004917987008
1	15094	740091.203453728422	24.672356837792
1	15122	740894.80682522335	492.08936527944
1	15164	742712.812279972726	224.96193130252
1	15169	743038.291516361544	432.04219856628
1	15192	743335.725939344642	139.53820688799
1	15197	743399.480200284939	99.656939833781
1	15206	744037.673754894668	560.02583765521
1	15229	745280.181027778793	512.43822474112
1	15235	745854.547205832201	1062.8432546396
1	15240	745904.894409943035	701.24290337294
1	15258	746217.767830437384	0
1	15291	747081.733308452978	0
1	15306	748260.063442202838	971.26141511767
1	15311	748260.454839831551	930.19196001022
1	15342	749324.009457244775	0
1	15350	749472.593385827649	0
1	15378	750830.477579832681	231.71975472974
1	15418	753173.519312116579	0
1	15435	753840.052852667886	142.54422489104
1	15443	754266.700018592416	0
1	15455	754810.660458781037	372.59400604112
1	15460	754911.754842271472	358.41159029102
1	15468	755127.155988771317	0
1	15477	755587.528644101821	197.44722585911
1	15505	756699.208139556825	300.20219934642
1	15531	758559.233122106072	356.89566898585
1	15562	759923.833305601233	0
1	15582	760914.824966149423	197.9740794012
1	15587	760957.978692494631	195.90983397604
1	15627	762688.586351784237	919.48641096616
1	15633	763137.049102672485	828.92874204069
1	15646	763400.714447677451	142.75000464164
1	15654	763477.547753689021	0
1	15689	765511.939383006483	116.56173821
1	15697	765855.162772427962	64.201005249486
1	15706	766780.015773995015	0
1	15729	767247.311860439556	173.76825232234
1	15737	767590.943803568611	246.16130709521
1	15745	767973.154800456743	83.898510086427
1	15789	769301.614787672098	0
1	15798	769752.73259740312	391.08915699951
1	15816	771590.425894424559	312.78301484044
1	15833	772675.278544393251	0
1	15842	773384.659030667019	0
1	15871	775320.773372720368	374.2969345772
1	15876	775353.86870169385	53.479916931367
1	15893	775771.858306460972	0
1	15901	775893.207943536018	120.79385475856
1	15920	776232.69175941478	199.07054860413
1	15945	776998.224741220407	150.50402216635
1	15960	778196.148075265979	499.71612388635
1	15972	778909.230341444766	193.68309609505
1	16002	780614.406013164194	223.73371861326
1	16020	781848.111341005823	133.92148443727
1	16028	782082.473430952489	0
1	16057	784214.478035701974	298.58785934805
1	16063	784381.89752211732	245.66057652842
1	16098	786928.996994118095	73.405061388356
1	16106	787439.088353345697	0
1	16134	790730.951046300172	0
1	16151	791815.833158249026	38.462176249146
1	16169	793649.325383550278	67.248828416944
1	16187	795154.099904416497	0
1	16202	795911.172242049363	502.33580864012
1	16207	796038.915172339192	460.06473928675
[...]
7	13354	657254.22000890524	2
7	13369	658145.647417480112	1
7	13374	658317.337549794651	2
7	13379	658379.440554429591	3
7	13405	659280.137237144095	2
7	13409	659691.832034907477	3
7	13417	659996.09779587946	4
7	13423	660318.547201658598	5
7	13436	660614.649818359871	6
7	13443	660816.292033958169	5
7	13448	660867.296413333491	4
7	13457	661316.66502017786	3
7	13472	662245.38405150471	2
7	13479	662606.387835436752	1
7	13488	662945.046191636453	2
7	13499	663216.604372157288	3
7	13503	663243.401226009117	2
7	13507	663251.410716163494	3
7	13512	663633.411044878317	2
7	13516	663998.059685553313	3
7	13528	664536.760406556822	4
7	13535	664628.878038144553	3
7	13539	664839.642095343979	4
7	13545	665448.488224218624	5
7	13550	665666.669814494275	6
7	13554	665746.388332040362	5
7	13578	666742.41582280382	4
7	13604	667252.195699728913	5
7	13612	667554.89431855999	6
7	13616	667673.483258996717	5
7	13621	667752.474532925177	6
7	13625	667823.975099327633	5
7	13643	669909.593667729267	4
7	13647	670009.30552248623	5
7	13652	670340.907860037252	4
7	13655	670482.314407831075	3
7	13678	671174.461026780513	4
7	13680	671280.477251283779	3
7	13685	671740.538473962107	2
7	13697	672113.421829791532	1
7	13711	672564.613662031921	2
7	13714	673354.262686567713	1
7	13719	673424.590267563802	0
7	13740	674198.723753700777	1
7	13745	674323.099074184365	2
7	13756	676322.230369318661	3
7	13767	677233.432667848262	2
7	13771	677645.020523632953	3
7	13779	677678.894952468328	4
7	13790	677911.552765662787	5
7	13795	677991.593224921558	6
7	13801	678086.420384283205	7
7	13805	678191.758444086526	6
7	13814	678946.121552002235	5
7	13820	679446.682764843284	4
7	13833	680170.917124231312	5
7	13838	680231.103579569749	6
7	13851	680419.316362361161	7
7	13859	680746.545740665123	6
7	13862	680936.628146253527	5
7	13871	681413.96514128708	6
7	13890	681689.52108303313	7
7	13901	682146.982003387828	8
7	13907	682422.902766463024	9
7	13915	682861.443729455096	10
7	13922	683107.875721218029	9
7	13926	683113.718319612911	10
7	13934	683229.14822189862	9
7	13945	683318.654893488108	8
7	13956	683724.374028267967	7
7	13959	683845.25555312877	6
7	13963	683848.438140095861	7
7	13967	683916.537099691032	6
7	13975	684044.975138202644	7
7	13980	684137.312411739211	8
7	13985	684330.829082520218	9
7	13989	684468.184398548032	8
7	14005	684831.169118686417	7
7	14010	685113.520829585639	8
7	14024	685154.346454636312	7
7	14027	685207.508489617432	6
7	14042	685578.262831271734	7
7	14049	685605.658040974814	6
7	14052	685664.732494523497	5
7	14057	685848.851799276171	6
7	14062	686049.779550788121	7
7	14066	686063.307195222797	6
7	14073	686600.3906270404	5
7	14081	686666.235129717791	4
7	14088	686882.800848540536	5
7	14093	687110.598502310316	6
7	14098	687557.209118354237	5
7	14101	687589.685714213277	4
7	14104	687713.732163744918	3
7	14107	687736.764568980007	2
7	14125	688743.075762430568	3
7	14129	688854.18852227977	2
7	14142	689618.342999219029	3
7	14161	690311.191289365001	4
7	14176	690968.13861260014	3
7	14182	691347.556457970401	2
7	14193	691632.391863366527	1
7	14198	692018.977790255577	2
7	14203	692071.182472721779	3
7	14207	692250.082467966545	2
7	14215	692335.32172377995	1
7	14265	695404.702443767933	0
7	14272	695671.538009760548	1
7	14278	696048.061200790382	2
7	14286	697458.701080070374	1
7	14291	697680.480679475892	0
7	14320	699927.984322532252	1
7	14325	699981.141384635539	2
7	14334	700683.97697144569	3
7	14339	700871.93913158348	4
7	14347	700983.320194303992	5
7	14353	701227.136996782478	6
7	14355	701351.944387934372	5
7	14360	701514.21467106645	4
7	14368	701746.861250357669	3
7	14387	703450.208567697509	4
7	14396	704303.772476898694	5
7	14405	704593.423061640271	6
7	14408	705620.835696117128	5
7	14413	705763.981700693299	4
7	14425	706611.278088457974	3
7	14440	707306.987486889668	4
7	14442	707442.437349681595	3
7	14447	707904.768404486318	2
7	14468	709182.012198820928	1
7	14472	709287.763647271568	2
7	14477	709789.50399423417	1
7	14481	710205.630168258512	2
7	14495	711535.372589861997	1
7	14509	712008.11031381719	2
7	14512	712554.512822538097	1
7	14517	712602.811893249917	0
7	14543	714114.99724207479	1
7	14548	714246.037694595571	2
7	14554	715147.987275163604	3
7	14558	715562.49365051525	2
7	14565	715826.420716593911	1
7	14569	715870.513951896737	2
7	14573	716084.270659681133	1
7	14580	716165.370525912814	2
7	14585	716180.511363536173	3
7	14590	716238.04758966598	4
7	14613	717211.3765520882	3
7	14619	717475.384067659078	2
7	14636	717821.894897409628	3
7	14638	717909.378504574563	2
7	14643	717922.277892594323	1
7	14647	718533.686828105805	0
7	14672	719305.99956486647	1
7	14677	719336.202073826625	2
7	14682	719342.733685721676	3
7	14686	719952.663608128864	2
7	14690	720273.2340941519	1
7	14694	720852.069505075871	2
7	14703	721101.033246209019	3
7	14710	721206.799192655756	2
7	14717	721609.774545464794	3
7	14722	721633.60842961045	4
7	14728	721732.0908571166	5
7	14732	721822.025398609069	4
7	14764	723442.94710498258	3
7	14782	723741.309393042331	4
7	14786	723788.821218758272	3
7	14789	724087.260524656045	2
7	14792	724172.074627637689	1
7	14797	724488.252786017255	2
7	14801	724721.787132655902	1
7	14824	726210.931167051142	0
7	14839	727672.622119919821	1
7	14849	728974.49768066246	2
7	14851	729126.364339237925	1
7	14873	730357.772987390195	2
7	14878	730496.709040437245	3
7	14883	730533.104205451424	4
7	14886	731840.713467995327	3
7	14901	732061.021161145702	4
7	14903	732599.360134163462	3
7	14908	732614.130655921916	2
7	14911	732788.140269803146	1
7	14932	733379.458212069258	2
7	14937	733666.163545516439	3
7	14945	734052.37589354878	2
7	14962	734401.751382398438	3
7	14967	734550.785813497108	4
7	14975	735439.069592226353	3
7	14983	735938.438918452152	4
7	14994	736271.857565708334	5
7	14999	736360.228997700722	4
7	15010	737346.168120562716	5
7	15014	737847.711885321463	4
7	15019	738131.479797809457	5
7	15024	738199.471481755663	6
7	15028	738365.995017089542	5
7	15031	738368.634403775281	4
7	15035	738503.174405626488	5
7	15054	739159.659681984378	6
7	15068	739470.910063309704	5
7	15075	739813.556658463746	4
7	15084	739887.709108749249	5
7	15096	740149.067894915711	4
7	15099	740184.671630616328	3
7	15103	740194.595362887738	4
7	15116	740791.245262348261	3
7	15125	741195.098335048228	4
7	15138	741629.911714789066	3
7	15143	741983.578793353973	2
7	15158	742707.143787170395	1
7	15167	743038.291516361544	2
7	15172	743115.047265141305	3
7	15177	743174.952004877425	2
7	15183	743289.974132254604	1
7	15195	743399.480200284939	2
7	15204	744037.673754894668	3
7	15208	744257.738844334178	2
7	15212	744410.767299847188	3
7	15233	745854.547205832201	4
7	15238	745904.894409943035	5
7	15243	745939.321121697113	6
7	15260	746306.597682304771	5
7	15263	746456.305561836488	4
7	15267	746465.28863371776	5
7	15271	746510.392763564274	4
7	15300	747819.099647298867	3
7	15304	748260.063442202838	4
7	15309	748260.454839831551	5
7	15315	748419.574461910752	6
7	15322	748583.480861084183	5
7	15331	749214.357952030438	4
7	15345	749340.272688526921	5
7	15353	749477.122814724325	6
7	15355	749646.198092932846	5
7	15360	749648.20910390857	4
7	15369	750346.592976172473	3
7	15382	750941.379947146604	4
7	15389	751397.490446120705	3
7	15394	751598.134357919533	2
7	15397	751612.957182262295	1
7	15422	753531.940914512206	2
7	15424	753572.063669063364	1
7	15438	753891.461902761922	2
7	15453	754810.660458781037	3
7	15458	754911.754842271472	4
7	15463	754955.475439992497	5
7	15475	755587.528644101821	6
7	15479	755754.229066850879	5
7	15482	755816.995223269329	4
7	15486	756000.215081789745	5
7	15499	756472.981567750215	4
7	15508	756770.310112613623	5
7	15512	756865.95949978573	4
7	15516	756944.055261583579	3
7	15535	758684.205731054453	4
7	15539	759304.881833545095	3
7	15551	759539.759811129429	2
7	15565	759952.601631820591	3
7	15568	760420.296173744143	2
7	15585	760957.978692494631	3
7	15590	760966.323808166264	4
7	15593	761421.955202444403	3
7	15598	761429.988706866105	2
7	15606	761575.00098543089	1
7	15614	761712.716651914363	0
7	15631	763137.049102672485	1
7	15636	763177.994043996736	2
7	15649	763468.915131596849	3
7	15657	763515.020883668816	4
7	15660	764045.694436430943	3
7	15669	764786.084396916024	2
7	15674	764901.388666183922	1
7	15695	765855.162772427962	2
7	15700	766226.054384236001	3
7	15708	766784.700163685523	2
7	15711	766825.491268714668	1
7	15715	766827.176244373896	2
7	15719	766895.156767137556	1
7	15735	767590.943803568611	2
7	15743	767973.154800456743	3
7	15749	768585.055217250919	4
7	15753	768593.292075154686	3
7	15761	768803.120998360679	2
7	15778	769062.135367613722	1
7	15796	769752.73259740312	2
7	15802	770856.107427840086	3
7	15804	771097.76334446451	2
7	15819	771860.26146606445	3
7	15821	772017.427782341561	2
7	15836	773006.255583235454	3
7	15845	773437.474685860532	4
7	15847	773907.391630269017	3
7	15853	774397.050849933917	2
7	15874	775353.86870169385	3
7	15878	775437.589026783922	2
7	15882	775467.958711604995	3
7	15899	775893.207943536018	4
7	15903	775925.256578320493	3
7	15907	776013.830724078444	4
7	15914	776038.602590254217	3
7	15923	776372.250312212128	4
7	15927	776388.051294882018	3
7	15936	776722.793895921909	2
7	15947	777146.81885922758	1
7	15954	778082.255698836069	0
7	15958	778196.148075265979	1
7	15966	778776.192028211552	0
7	15970	778909.230341444766	1
7	15976	779851.704859038711	2
7	16006	781060.879853386248	3
7	16008	781712.210799829663	2
7	16023	782076.896854910169	3
7	16031	782380.907482769241	4
7	16035	783444.550178972683	3
7	16043	783761.544567759066	2
7	16061	784381.89752211732	3
7	16066	784399.394928806389	4
7	16068	784621.091550188629	3
7	16077	785607.72934484192	2
7	16086	786480.049480385976	1
7	16101	786945.765105028474	2
7	16108	787714.208216039656	1
7	16113	787916.144112766946	2
7	16121	789238.940960048508	1
7	16137	791039.596674846262	2
7	16140	791424.838069907113	1
7	16154	791894.341952438962	2
7	16158	793201.78035258385	1
7	16172	793700.710678164718	2
7	16175	794385.681523254929	1
7	16200	795911.172242049363	2
7	16205	796038.915172339192	3
7	16224	797204.386080557485	4
7	16228	797281.450360800264	3
7	16232	797366.21550446937	4
7	16236	797561.97041462704	3
7	16240	797632.26717415961	4
7	16245	797643.408878230183	5
7	16250	797655.365855651447	6
7	16259	798079.522024714876	7
7	16269	798358.023738971374	6
7	16273	798358.283537179862	7
7	16278	798371.120103125569	8
7	16283	798644.989047881058	9
7	16287	798798.548283096169	8
7	16291	798923.571821740982	7
7	16299	799068.675538929757	6
7	16307	799637.053482610656	5
7	16325	799907.046013830454	6
7	16335	800983.800874855483	5
7	16338	801389.239850466461	4
7	16342	801646.959368066791	3
7	16350	801892.853963041715	2
7	16382	803699.391915201674	3
7	16387	803728.874647334402	4
7	16391	803809.481560586212	3
7	16404	804729.597209624486	4
7	16408	804744.71654067966	3
7	16426	806254.921071016504	2
7	16431	806617.921967485867	3
7	16435	807062.348486542011	2
7	16454	808777.965995846853	3
7	16466	809186.092145040333	4
7	16470	809311.788451737123	3
7	16473	809312.760705279128	2
7	16476	809429.768708939152	1
7	16482	809523.68876198375	0
7	16486	809736.747735081049	1
7	16495	810361.216013503441	2
7	16500	810655.156858352407	3
7	16510	810974.787595212859	2
7	16532	812301.471806013737	1
7	16550	813361.637719597374	2
7	16556	813548.381470123334	3
7	16564	814035.775320056617	4
7	16566	814187.53304793888	3
7	16572	814330.083971410098	2
7	16583	814523.408788338069	1
7	16591	814984.19911413213	0
7	16601	815690.540991119664	1
7	16618	816601.480711391603	2
7	16623	816663.437358230484	3
7	16631	816795.283591067795	4
7	16634	817425.567826044546	3
7	16649	817924.956873624306	4
7	16651	818332.515224660647	3
7	16665	818543.217810764685	4
7	16668	818810.321903630144	3
7	16677	819495.264198846747	2
7	16685	819587.095274632003	1
7	16699	821323.848085902756	2
7	16704	821353.416997633747	3
7	16714	821609.077269141648	2
7	16724	822599.47305038546	3
7	16730	822962.540238104516	4
7	16746	823709.506534113969	5
7	16755	824213.837263442254	6
7	16762	824435.806256314021	5
7	16767	824624.206761305385	6
7	16772	824802.109057554582	7
7	16776	824824.357671472043	6
7	16794	825764.711911310488	7
7	16797	826644.243635403544	6
7	16816	828026.291806417194	7
7	16820	828091.900772031795	6
7	16824	828119.551864539093	7
7	16831	828697.395419981489	6
7	16840	828917.727151213588	5
7	16853	829433.531686573862	4
7	16857	829493.483203148507	5
7	16861	829629.184898715378	4
7	16873	829748.722636506993	3
7	16876	829812.939645192197	2
7	16885	830043.392166566057	3
7	16892	830209.991604607306	2
7	16902	830785.791223217773	3
7	16927	831786.43790517036	4
7	16936	832592.164422293388	5
7	16941	832594.498765802299	6
7	16946	832731.86838798009	7
7	16948	833037.885216042779	6
7	16957	833356.016864750333	5
7	16971	833837.95421580152	6
7	16974	834078.464687914208	5
7	16979	834147.646764669298	4
7	16982	834352.689832142866	3
7	16996	835003.637708093437	2
7	16999	835011.744209986907	1
7	17016	835874.025387503924	0
7	17030	836011.547934413855	1
7	17040	837631.018157451367	2
7	17051	837868.151863541687	3
7	17062	838265.926517537102	4
7	17071	838512.22879803591	5
7	17075	838592.137188485176	4
7	17079	838782.104491563707	5
7	17083	838866.614524094781	4
7	17087	839063.444110312853	5
7	17100	839963.535529142801	4
7	17106	840028.182143935772	3
7	17109	840035.654510279302	2
7	17120	840659.928175265868	1
7	17130	840946.131565602803	2
7	17150	841934.419226800157	3
7	17155	842019.074968106439	4
7	17159	842552.467877685764	3
7	17166	843059.887149341848	2
7	17171	843488.902854083406	3
7	17182	843984.420647846587	4
7	17191	844802.393772163185	5
7	17198	845036.502676917671	4
7	17202	845046.037756344279	5
7	17207	845141.377733813965	6
7	17213	845285.79496652575	7
7	17217	845288.373479413919	6
7	17235	845682.750599619515	5
7	17250	846059.573840767737	4
7	17253	846084.820852143535	3
7	17256	846158.801111238026	2
7	17260	846238.16505548373	3
7	17268	846409.824374146273	4
7	17272	846824.094868909022	3
7	17277	846986.659846707958	4
7	17301	847379.046786850474	3
7	17313	847781.086114003529	2
7	17322	848153.47963357004	3
7	17340	849027.452063947514	2
7	17345	849635.491185419473	3
7	17359	850381.462230950938	4
7	17367	850466.527894164849	5
7	17375	851052.265026681676	6
7	17378	851746.353038728995	5
7	17383	851929.623931220617	4
7	17398	852390.189241812039	3
7	17402	852439.519227012579	4
7	17409	852598.889143744789	3
7	17417	853034.843259621646	4
7	17422	853180.32908600127	5
7	17426	853583.658024276335	4
7	17429	853648.389943321406	3
7	17433	853684.914495707876	4
7	17448	854068.544440768968	3
7	17472	856705.716450911708	2
7	17477	857044.149295678521	1
7	17496	858097.340888899609	2
7	17504	859075.699815225679	1
7	17508	859233.346264981004	2
7	17521	859787.207187294072	1
7	17525	859936.751596328204	2
7	17538	860168.235323590265	3
7	17545	860422.03081563916	2
7	17552	860462.351400775058	3
7	17560	860661.062966082633	2
7	17564	860693.481299320345	3
7	17572	861194.616462875368	4
7	17580	861667.231652346853	3
7	17584	861771.127842841137	4
7	17592	861954.128792451816	5
7	17597	861976.375497022597	6
7	17612	862960.841977160568	5
7	17619	863299.871458224016	4
7	17631	864128.713811904161	3
7	17634	864130.924117706794	2
7	17638	864139.838295028554	3
7	17642	864658.697182135817	2
7	17650	865459.625434365744	3
7	17655	865532.691759183901	4
7	17665	865757.114042112573	3
7	17676	866239.005780397348	2
7	17680	866457.840751988515	3
7	17694	867071.756376606458	4
7	17706	867409.397345114833	3
7	17710	868050.398902680753	2
7	17719	868260.612878039469	3
7	17739	868892.422918695289	2
7	17750	869065.370134459471	1
7	17760	870187.487552668753	0
7	17777	870652.412234439734	1
7	17782	870724.46323011119	2
7	17785	871636.591045100691	1
7	17796	874106.56929161984	0
7	17811	874907.57610398999	1
7	17813	875066.961003325392	0
7	17830	877707.283442192099	1
7	17842	877971.336860607733	2
7	17849	878151.916790437005	1
7	17854	878698.339734034352	2
7	17859	878766.742182029581	3
7	17863	879057.0237457141	2
7	17876	880305.666549564979	1
7	17891	881710.644886214456	2
7	17902	882769.506164031805	1
7	17907	883037.621154210817	2
7	17911	883248.68126746833	1
7	17915	883259.397548296671	2
7	17928	883934.259343713327	1
7	17942	884297.66200779719	2
7	17944	884374.874339720832	1
7	17953	885123.788723950252	0
7	17970	887892.90603689429	1
7	17980	888970.687547465614	2
7	17982	889072.195361442145	1
7	18002	889674.939871058253	2
7	18008	889903.431163210368	3
7	18012	889943.854498696834	2
7	18016	890030.147118720287	3
7	18029	890687.222319484831	2
7	18033	890835.644540238078	3
7	18037	891065.173565112986	2
7	18055	891838.352376950434	3
7	18063	893117.823700212775	2
7	18067	893131.835967292474	3
7	18072	893210.764215172298	2
7	18089	894266.430773568902	1
7	18093	894412.967162813887	2
7	18100	894754.567044079228	1
7	18115	895549.422177315408	2
7	18125	897248.573268233603	3
7	18134	897929.84991732972	4
7	18137	898361.537465651474	3
7	18145	898872.851154460225	2
7	18154	899557.121322127282	1
7	18171	899833.750030968727	2
7	18176	899854.209639318689	3
7	18178	899975.333400245459	2
7	18188	901556.859800651023	1
7	18203	902510.688607416746	2
7	18212	902648.747884194399	3
7	18214	902785.491458617449	2
7	18223	903854.253909383004	1
7	18238	904445.836892704229	2
7	18240	904668.371693750069	1
7	18248	904771.673431878574	0
7	18258	905308.153610410838	1
7	18271	905542.675872276789	2
7	18274	906212.447248438283	1
7	18283	907423.142378049312	0
7	18307	910603.741968003415	1
7	18312	910625.188959236925	2
7	18317	910648.521407688451	3
7	18324	911049.837705528617	2
7	18329	911242.783452654938	3
7	18342	911607.176273001628	4
7	18344	911869.259131916906	3
7	18361	912185.082088532281	2
7	18365	912317.643010682258	3
7	18370	912454.937871556878	4
7	18374	912573.085924407627	3
7	18378	913010.462375379419	2
7	18401	914192.16795755926	3
7	18403	914310.981415261731	2
7	18426	916580.5277481259	3
7	18431	916613.846773406078	4
7	18435	916824.315830632697	3
7	18439	917062.727577718777	4
7	18453	918105.067855522736	3
7	18457	918171.9728754794	4
7	18470	919452.94330363223	3
7	18474	919589.484455506127	4
7	18494	919973.817653998561	5
7	18499	920135.990997439757	6
7	18503	920242.628634291509	5
7	18507	920342.169813049646	6
7	18515	920757.000693836254	5
7	18520	920760.439945059482	4
7	18537	921298.032584386538	5
7	18540	921771.738780142654	4
7	18546	922546.493144568921	3
7	18564	923497.263729362778	4
7	18566	923580.811370446572	3
7	18571	923708.051426821041	2
7	18583	924439.477245395393	1
7	18587	924632.019263400311	2
7	18613	926373.899303173393	3
7	18619	926905.625299199637	4
7	18624	927262.179954313705	5
7	18635	927609.884703361856	4
7	18638	927698.497428163957	3
7	18642	927945.469822736381	4
7	18647	928113.779687600941	5
7	18657	928417.623087111614	4
7	18660	928589.33343417916	3
7	18668	928791.870226388012	2
7	18681	929202.849833649353	3
7	18690	929607.586743734913	2
7	18709	931460.142578023538	3
7	18720	932205.916005003733	2
7	18728	932643.314311797123	3
7	18736	932726.916024516814	4
7	18744	933517.452463747395	3
7	18747	933764.958295796945	2
7	18754	934257.070136382416	3
7	18760	934706.91781939978	4
7	18764	934738.901986617378	3
7	18769	935236.412735587832	4
7	18774	935290.756911327877	5
7	18793	935835.887824654573	4
7	18812	937417.455312405993	3
7	18816	937505.341508616972	4
7	18821	937562.353647547324	5
7	18830	938073.730633032792	6
7	18839	938818.252353007529	7
7	18843	938971.886836922375	6
7	18853	939295.3162294423	7
7	18859	939556.873546192125	8
7	18863	939809.308806545272	7
7	18869	940268.545544450989	6
7	18874	940496.628659692162	7
7	18879	940520.23064740581	8
7	18894	941239.889106478438	7
7	18897	941290.362646273471	6
7	18914	941945.751109871317	7
7	18928	942772.559078657572	8
7	18932	942778.529098601958	7
7	18935	942872.865243044904	6
7	18949	943633.439220722181	5
7	18953	943986.055160832315	4
7	18961	944512.205250281628	3
7	18974	945044.494489291769	4
7	19000	947592.18175863084	5
7	19003	948619.382259317987	4
7	19017	948809.716397180616	5
7	19028	949244.44450576065	4
7	19036	949815.386879626865	5
7	19041	949928.145789237668	6
7	19046	949956.095247700687	7
7	19058	950323.660829676561	6
