file 343466 1483967714                                          
version 2
run QueueMeasurement-110-20170109-14:15:14-6084
attr configname QueueMeasurement
attr datetime 20170109-14:15:14
attr experiment QueueMeasurement
attr inifile queueStudy.ini
attr iterationvars ""
attr iterationvars2 $repetition=110
attr measurement ""
attr network controltower.SimNetwork
attr processid 6084
attr repetition 110
attr replication #110
attr resultdir results
attr runnumber 110
attr seedset 110
param SimNetwork.a.parkingLot.parkingDelay exponential(45min)
param SimNetwork.a.runway.landingTime exponential(5min)
param SimNetwork.a.runway.takeoffTime exponential(5min)
param SimNetwork.a.runway.throughputCheckInterval 14.286min
param SimNetwork.wg.interArrivalTime exponential(14.286min)

vector 7  SimNetwork.a.parkingLot  parkingOccupancy:vector  ETV
attr source  parkingOccupancy
vector 4  SimNetwork.a.takeoffQueue  queueLength:vector  ETV
attr source  queueLengthSignal
vector 3  SimNetwork.a.takeoffQueue  queueTime:vector  ETV
attr source  queueTimeSignal
vector 0  SimNetwork.wg  responseTime:vector  ETV
attr source  responseTimeSignal
vector 5  SimNetwork.a.runway  landedThroughput:vector  ETV
attr source  landedThroughputSignal
vector 6  SimNetwork.a.runway  tookoffThroughput:vector  ETV
attr source  tookoffThroughputSignal
vector 2  SimNetwork.a.landingQueue  queueLength:vector  ETV
attr source  queueLengthSignal
vector 1  SimNetwork.a.landingQueue  queueTime:vector  ETV
attr source  queueTimeSignal
0	1445 44280 1783 19033 79561.200031712077 949849.276748539551 1024 535.19905534737 24795.314379586 5846202.5018455 44936589054.882
1	45725 39553 1808 19043 80266.543720346704 950324.163672939968 1012 0 1972.539924645 331344.86371817 284099727.96948
2	85278 59501 1797 19043 79934.786117332965 950324.163672939968 2024 0 8 1806 3556
3	144779 40268 1780 19026 79339.23237931314 949593.217355183849 1024 0 7842.6218641279 1168995.3397855 3965833238.1936
4	185047 59864 1780 19026 79339.23237931314 949593.217355183849 2036 0 16 3862 18858
5	244911 19536 1787 19031 79715.88 949733.28 1016 0 6 1013 2109
6	264447 19536 1787 19031 79715.88 949733.28 1016 0 8 1024 2310
7	283983 59483 1778 19041 79339.23237931314 950324.163672939968 2024 0 11 7498 34456
