version 2
run QueueMeasurement-3-20170105-15:37:19-4633
attr configname QueueMeasurement
attr datetime 20170105-15:37:19
attr experiment QueueMeasurement
attr inifile queueStudy.ini
attr iterationvars ""
attr iterationvars2 $repetition=3
attr measurement ""
attr network SimNetwork
attr processid 4633
attr repetition 3
attr replication #3
attr resultdir results
attr runnumber 3
attr seedset 3
param SimNetwork.a.parkingLot.parkingDelay exponential(45min)
param SimNetwork.a.runway.landingTime exponential(5min)
param SimNetwork.a.runway.takeoffTime exponential(5min)
param SimNetwork.a.runway.throughputCheckInterval 14.286min
param SimNetwork.wg.interArrivalTime exponential(14.286min)

vector 7  SimNetwork.a.parkingLot  parkingOccupancy:vector  ETV
attr source  parkingOccupancy
vector 4  SimNetwork.a.takeoffQueue  queueLength:vector  ETV
attr source  queueLengthSignal
vector 3  SimNetwork.a.takeoffQueue  queueTime:vector  ETV
attr source  queueTimeSignal
vector 5  SimNetwork.a.runway  landedThroughput:vector  ETV
attr source  landedThroughputSignal
vector 6  SimNetwork.a.runway  tookoffThroughput:vector  ETV
attr source  tookoffThroughputSignal
vector 0  SimNetwork.wg  responseTime:vector  ETV
attr source  responseTimeSignal
vector 2  SimNetwork.a.landingQueue  queueLength:vector  ETV
attr source  queueLengthSignal
vector 1  SimNetwork.a.landingQueue  queueTime:vector  ETV
attr source  queueTimeSignal
0	1588	79909.788381192975	12312.559448713
0	1599	80205.465901464589	2423.3099268652
0	1621	81429.924512970509	5335.0462071075
0	1634	82535.986492296182	3662.2321643168
0	1639	82627.30369760392	8182.573715285
0	1647	82676.342124750642	2638.8581529909
0	1656	83639.595040169493	7049.2446644324
0	1707	85738.502866724572	921.98401741593
0	1715	85910.645444713095	1478.1187921634
0	1734	86364.435560138651	1987.0271467343
0	1743	86652.120889987437	2833.4461869739
0	1748	86914.746086150243	10915.585443288
0	1758	88852.408871492134	3529.9530354589
0	1776	90515.483923243872	9966.4907041794
0	1800	92059.529227321758	6073.7107698097
0	1818	92473.468495035044	2243.864671706
0	1827	92766.442410121622	879.77785086461
0	1932	97054.936242045327	3517.951591529
0	1943	97527.915202183419	6467.7798253602
0	1962	98284.325351505375	4508.7388953007
0	1971	98603.705076993355	6440.7905239095
0	1981	98831.290901019955	4209.9445843936
0	1986	98878.388801097773	3830.1346487581
0	1994	99049.152347675262	4705.5473920528
0	2006	99626.431926362978	5839.8416434681
0	2014	100066.206872414173	2568.6423798345
0	2023	100317.358250134712	6504.384371298
0	2028	100324.961371868031	5551.5902531948
0	2047	100970.53075329997	2610.7049230049
0	2055	101132.538552172231	3856.4632644661
0	2061	101395.60914805587	5607.5083519378
0	2097	102495.022583115121	6236.1161126474
0	2113	103824.709224096589	2298.4132670572
0	2178	107833.196354714465	6303.2355519255
0	2183	107866.724473091132	7151.0478769318
0	2192	108043.855143753783	3769.1409909394
0	2211	108562.945471986515	5406.5194018425
0	2217	108865.116512148852	4026.8337739734
0	2225	109319.359226157304	7546.7592858584
0	2255	110468.199159953283	1502.1782720556
0	2264	111048.777019520201	1726.1610104988
0	2295	111927.887496458041	4038.971338226
0	2303	112264.449046118436	6235.1548203824
0	2312	112640.909602014111	3136.3128696288
0	2321	113357.869347410755	7865.8300050849
0	2326	113518.414504644867	2255.144012065
0	2334	113895.959780269861	7518.023971824
0	2389	116793.525693473613	5281.4566893334
0	2399	117363.750694953102	3842.8954893067
0	2415	118735.718871691095	3217.7167389653
0	2426	119542.805356468184	4803.0697984036
0	2434	119811.051617241403	15649.970389398
0	2443	120204.550253402897	4980.7027074071
0	2459	122074.98799873103	7414.7532625186
0	2494	124821.67297662732	2862.8360119549
0	2587	129689.927789932382	10995.770512392
0	2603	130100.077757030562	5781.624633468
0	2617	130480.493485529458	5238.0234456006
0	2628	130640.021997342315	6256.6713376589
0	2633	130809.672712911047	8955.4873240032
0	2654	131830.60441147744	15074.368434678
0	2683	132446.284860312956	8782.0315560306
0	2694	132535.419830431745	5513.1355943713
0	2712	133753.093656039025	5053.3182522005
0	2720	134419.26966813812	6541.939507243
0	2737	134979.548603749609	9698.951349175
0	2742	135312.571424350865	9069.0873787974
0	2748	135553.967558265829	6182.63760266
0	2756	136236.344294604533	5017.1939071531
0	2770	136782.463806511958	5655.6592894974
0	2784	137280.398221645187	6013.6582297112
0	2789	137327.603219937004	7230.6628336193
0	2794	137330.574937253549	5936.7356970405
0	2802	137561.86499016456	5069.3814161782
0	2807	137587.882934249011	3606.4689674753
0	2825	139582.854859591328	2928.4237322406
0	2835	141270.42499830456	5454.0400946344
0	2911	147640.502554747225	3047.5868615074
0	2949	148976.313388540409	9944.0261381581
0	2958	149556.7562091784	4929.4194924655
0	2966	149595.336446361867	4535.4637297556
0	2971	149714.691061140362	5994.2389862455
0	2976	149778.926497323488	2297.3247701572
0	2981	149805.983882247275	3618.3708862767
0	2990	150750.3051328169	3921.1449697708
0	3014	151991.407363925821	3982.3661481104
0	3085	155838.315204235041	4328.5430183283
0	3090	155915.637425916887	7937.7192042794
0	3096	156034.915858223224	8508.6435249611
0	3101	156472.897513424934	4023.2350842431
0	3118	157597.42957805734	2365.469111833
0	3143	158326.43802798165	850.40293368275
0	3161	159432.562923799308	4126.5258043564
0	3197	160726.789055990605	8271.3693178702
0	3205	160928.359787951316	3070.4327053816
0	3217	161635.361002106117	9721.1008039288
0	3243	162292.05627648535	8531.3402512905
0	3310	164904.923096157925	4483.2656273346
0	3315	165153.834382505745	6370.3194142823
0	3323	165356.194842225705	5230.5630319952
0	3332	166156.648373455822	4527.5434454182
0	3340	166256.814004773838	3947.1254862597
0	3351	166556.881750370449	3834.9131967876
0	3356	166570.41711944031	6921.461538536
0	3361	166774.978164265786	2736.0035410504
0	3373	167497.751515342663	5484.3608660855
0	3418	169433.82348267213	5886.7728638651
0	3429	169674.137407000568	5596.5961980214
0	3478	172227.434127840123	4815.9746353252
0	3483	172255.593008473807	10335.360733672
0	3492	172601.483461283198	4546.4791241726
0	3497	172659.778665251369	6483.8883801714
0	3502	172884.352695017218	21014.930573838
0	3508	173156.716907658958	3646.6608752859
0	3513	173282.043489620563	2237.5092028066
0	3529	173884.181406883736	3987.843866589
0	3538	174268.343527466419	5880.5123051712
0	3585	175479.847332894105	769.03689999907
0	3591	176138.559925859054	18299.904150301
0	3596	176269.723058534331	1693.0865089063
0	3605	176864.800419804599	5493.8629528534
0	3637	178233.17617652377	10098.479934284
0	3662	179544.159419060112	4588.255365255
0	3681	180177.417254294028	6588.3935090199
0	3692	180674.586836950943	1450.9579693652
0	3717	181250.494692214933	4087.1723619723
0	3722	181626.41599553387	3422.040241041
0	3732	183149.213377793806	3543.5604089378
0	3741	183585.295756360991	9303.7775638397
0	3753	184661.42750711949	6893.6775174757
0	3779	186032.503406655458	1922.8608738939
0	3805	187747.468215339312	9811.9471756542
0	3810	187801.058416995846	6939.6665015695
0	3839	189821.225385400746	4042.6920825357
0	3851	190292.877121955441	9857.2890850819
0	3864	190632.596722033569	1727.6652889802
0	3873	191152.155031120512	1836.3067905338
0	3938	193719.197489722562	2945.5807517754
0	3949	194183.360407754782	7001.1749976953
0	3963	194988.409649867352	2816.9852028218
0	3971	195264.710760375333	10227.242973563
0	3976	195407.986653812848	5226.4621636033
0	3982	195588.302020894995	3200.9608690758
0	3987	195885.214119007945	3660.4234325941
0	3996	197013.809312131614	5259.1507368877
0	4005	197241.586531613169	5390.1498738056
0	4026	199669.259464546348	5602.5508376807
0	4060	203396.070140552049	4057.6201999389
0	4072	204605.842965114865	6886.1706770076
0	4092	205645.923483208522	3529.6596155869
0	4114	206360.03097479777	3909.2907057584
0	4122	206542.634363294557	2032.6336690129
0	4161	208257.867448659033	2777.3687037064
0	4176	208997.380920440272	2629.6167584179
0	4190	209294.84999320444	2541.8194929392
0	4207	210013.538782246338	4891.2555650947
0	4224	210931.632776939071	1642.1773362842
0	4241	211949.156213039233	2015.2663723002
0	4246	212177.148495786159	3356.6478847303
0	4276	214768.741257582679	7540.4691175778
0	4291	215157.820935793155	2762.9023434918
0	4310	216141.715364691412	9542.7121632622
0	4318	216774.83060412581	5942.7587080534
0	4324	216941.83838499871	1989.8313908141
0	4387	219496.5015550152	6432.6331357581
0	4405	219689.194298043686	2612.8243151103
0	4417	220530.519108964518	5436.5736890294
0	4449	222446.089791352876	4382.1960647876
0	4460	222968.782325571179	4579.746651055
0	4465	223386.845568047004	4353.9745575967
0	4476	223629.287480197066	4455.1988109216
0	4490	223838.779218007445	6746.8594869717
0	4518	224784.972782374354	4601.4756964554
0	4523	224881.305145941354	2493.4237960858
0	4528	224963.845320306951	5730.707504878
0	4533	225113.880987877996	3740.1395377539
0	4542	225934.515074745359	2266.0215739208
0	4551	226856.283126149499	3333.9194914502
0	4573	228917.596540088441	5028.7144109364
0	4597	231773.54492566135	4688.2289064483
0	4605	231947.239894569066	3099.6337415709
0	4667	235778.583355771588	3728.6425763792
0	4687	236998.15902795384	3505.723118957
0	4701	237639.398219148672	6820.7564602002
0	4714	237818.230450606433	4193.3877079757
0	4730	238259.878475963506	6096.1308833391
0	4744	238772.127427701484	2205.660058104
0	4749	238786.164902160895	1644.6961987724
0	4783	240788.357709891655	1827.0416205309
0	4812	242509.624743509027	2276.9070067349
0	4818	242590.729632839843	10157.401599809
0	4841	244097.062462487384	4084.5762037113
0	4846	244143.390058958097	6463.1039670012
0	4859	245243.39469116468	4301.7361383724
0	4875	245807.156923663855	10035.035684296
0	4881	246282.565334129041	3059.1285991486
0	4889	246737.891512541334	4936.510743319
0	4977	250283.731750131444	3972.7275281529
0	4988	250670.295300950615	12660.905653982
0	4999	251128.708462770077	4032.2702954598
0	5015	251725.118639414869	3658.9184229285
0	5020	251904.671675542426	3713.9707356843
0	5028	251936.620652218013	2872.0292444094
0	5051	252811.876740145078	5186.355859586
0	5057	253061.106208040899	8239.8528972669
0	5062	253271.849190968968	3295.1767814905
0	5070	253411.820464425639	2637.6913862785
0	5078	253486.605544709355	3750.8006081342
0	5107	255138.671306830236	2973.6370318964
0	5112	255230.298840737801	1522.4709232566
0	5132	258102.85756774284	9039.4005312132
0	5152	259437.302619873061	5653.3290097993
0	5175	260507.165731033663	5061.105996028
0	5200	261364.645675322201	10506.650383116
0	5225	262710.807393339053	3421.2106708358
0	5252	264458.289943509895	3498.0191159931
0	5262	264695.921771282378	3478.3602478657
0	5267	264813.564891366362	4946.7845603432
0	5304	265783.579980926593	5391.2042025746
0	5309	265833.364692190697	2629.7250171011
0	5317	266018.418712858727	7801.5900380945
0	5334	266837.991085513299	4596.5962067783
0	5352	267822.14418476129	3542.2478812356
0	5367	268074.967099674237	3154.1130350082
0	5376	268504.566951192362	1542.9289010571
0	5393	269191.261128896055	1516.1845115227
0	5404	269781.024948924103	4502.0346775764
0	5434	270832.571923893135	4468.9721882732
0	5443	271567.765676234718	1497.14676414
0	5500	273499.619546712273	8444.5342436718
0	5526	274770.430967079065	6261.6784126323
0	5633	280076.584092206205	7948.009662305
0	5647	280638.581738339944	8990.7436897058
0	5658	281075.573159571685	8970.5858349428
0	5669	281575.383450222686	12117.941566328
0	5674	281705.312990098174	9114.9920289087
0	5682	281832.664847904907	11371.763404333
0	5688	282124.640244132223	7658.6183399884
0	5699	282699.015249681672	7037.0867432547
0	5733	283833.953730960564	11843.955077111
0	5742	284806.564477811356	10684.10960489
0	5755	285192.272001055438	11950.981684857
0	5763	285203.559292325705	8263.2287416884
0	5788	286192.385894809821	8250.2499247158
0	5793	286207.686789943412	10462.113188906
0	5798	286265.637270046316	8428.5078069901
0	5804	286644.749123124284	9257.1903555162
0	5812	286787.684154925624	5866.0385329146
0	5824	287508.253772419275	5220.3113312767
0	5829	287687.352324894689	9345.6408030694
0	5834	287873.853924968982	4978.5255292631
0	5840	288007.92158011714	7965.9995197288
0	5848	288512.724591819128	5361.8851540517
0	5858	288778.048602689714	4456.7449536246
0	5864	289291.943664909218	4098.5840735794
0	5873	289744.267370088724	4357.1282563947
0	5891	292269.653247312548	4019.8921674455
0	5925	293453.448981476179	3012.8852944991
0	5971	295806.164564514131	3523.0076891388
0	5979	296328.877006154929	2688.4792629225
0	5984	296493.88804591407	1886.8547786056
0	5994	297585.284643223022	3021.6449470232
0	6027	298420.788123779634	6143.0054280624
0	6070	300557.384038090527	7921.6194222307
0	6076	300958.362513170042	3131.7161052286
0	6081	301276.36386434305	5758.9111019468
0	6086	301382.940262355621	3442.469789558
0	6094	301565.7518147947	3002.9605803705
0	6111	302440.305834806412	4487.8928119847
0	6166	304619.990786492177	4898.2747624319
0	6182	305385.293167726537	3427.8128974073
0	6187	305438.674928919569	5853.3002282993
0	6195	305547.251717348163	2645.6346808463
0	6204	306268.862823554776	1901.5804882506
0	6213	307272.412722978444	4440.5352008617
0	6221	307414.141939213794	4805.0881446888
0	6239	308839.657750789185	6344.1604820086
0	6248	310255.195018136384	5674.0395285867
0	6284	313575.726517172137	6042.636858989
0	6293	313826.45184622558	630.53702850003
0	6309	314526.677474161474	3711.3402480586
0	6328	316973.725991095338	3583.0910024007
0	6362	318305.617916080803	4035.998552493
0	6392	320245.367045883452	2775.0644505425
0	6422	321256.173511700028	4281.3169362675
0	6431	322156.467528410715	7264.1253745881
0	6438	323709.092980311693	6423.8040496082
0	6446	323973.406953568425	4775.9885677362
0	6463	324790.918861001661	6410.5260531753
0	6474	325131.771752462563	4871.2718730763
0	6486	326568.98108210257	5647.1033033363
0	6551	329863.747963645455	6152.8963963978
0	6566	330564.602909592081	3275.2795764374
0	6594	331642.150658296186	4294.9170699699
0	6612	332578.793784060645	6123.6865895253
0	6617	332585.268482939713	2173.5823725808
0	6628	333025.585141354465	4844.2654452218
0	6641	333373.622851850913	8960.9258333481
0	6647	333694.9856518516	5644.6967896625
0	6655	334100.481970819603	5296.3292616639
0	6660	334116.427061382963	3600.9655846034
0	6678	335238.858469878065	6468.0802699208
0	6712	336247.680214188267	3222.8947354427
0	6727	336731.086448967494	5359.6085133192
0	6745	337265.353555214043	1384.7480612076
0	6822	341021.117906937346	4995.0794641776
0	6828	341400.945265956268	6149.4583013445
0	6833	341563.545521750066	5444.233262899
0	6841	341819.852526581148	4884.6719049623
0	6852	342063.056004152329	7566.1943436182
0	6866	342413.256045965737	3950.0761724693
0	6881	342851.653260357316	5449.8803563011
0	6890	343533.161027755793	3597.4492624194
0	6911	345285.222389218506	3483.8454321017
0	6916	345387.750306072713	5812.6735332854
0	6922	345711.235681401728	3529.9693602764
0	6960	348521.754188980567	8770.9334893649
0	6980	349517.839030957508	3559.7160342677
0	6991	349793.248165561649	12088.262743329
0	7014	351335.842669838757	2969.8043842466
0	7028	351792.177041043359	3797.8517132352
0	7039	352269.421725177606	3258.52595992
0	7063	353366.293837040514	10402.960515922
0	7121	357397.079666140491	7173.7735541039
0	7138	358044.15284976441	11300.081788726
0	7165	358742.860343333757	6620.2183359221
0	7170	358806.442205583419	5665.4079107158
0	7179	359242.963898138421	4663.0270542545
0	7193	359792.507277545101	6449.7261685329
0	7212	360244.259319979396	9027.5254596053
0	7217	360366.743968205134	2529.2660128563
0	7231	360854.470819872378	7348.4765777272
0	7271	362330.436026135444	4350.0236679548
0	7300	364211.333761929949	7940.0560135659
0	7306	364357.748227061677	5072.623439562
0	7314	364394.738627713684	22153.939946275
0	7324	364605.289177581508	6025.6107553129
0	7336	365373.162856301372	5448.4321503703
0	7341	365713.972786697598	4596.0868858641
0	7346	365839.399808605756	5133.4011678129
0	7352	366046.31250761515	4430.3420804095
0	7357	366251.469288368218	5630.0863184433
0	7365	366561.609763945861	9607.0992422816
0	7371	367091.101898659462	5465.6464222966
0	7407	370637.176062941256	6265.1026715662
0	7424	371669.599868268185	3864.3060201116
0	7435	371989.493704262473	2113.336386762
0	7444	372394.300979551434	2204.3539943302
0	7495	375286.047571102385	2990.4487803107
0	7501	375564.230273631905	4329.283421632
0	7509	376289.865105793827	3803.4331336695
0	7518	376850.45642765829	4188.1670422899
0	7535	377629.564843543479	4677.0184566288
0	7587	381369.415909109403	1832.1410560046
0	7596	382210.514096939009	4493.0288126343
0	7625	383458.20271257094	6483.603827609
0	7636	383784.488923631018	10679.344161398
0	7655	384258.485804361078	3686.4463539842
0	7668	386392.409815036261	3599.8053609213
0	7700	388685.627337091138	5140.9543808972
0	7708	388754.822670180573	1112.6863075424
0	7716	388939.997049782637	2971.4930239118
0	7734	390342.476206559679	9446.2219836469
0	7746	391084.536278122948	8743.7082941503
0	7787	392167.737437914549	1440.0551093952
0	7795	392418.601943881881	3209.9743793011
0	7810	392978.073032561641	1869.4053855121
0	7858	395239.103484171673	11658.400783933
0	7863	395422.632419442743	7597.8238894949
0	7868	395600.113429487047	16039.207761181
0	7885	396581.049431675458	3726.9839857515
0	7894	397190.600177660629	4420.751812619
0	7914	398195.057020501482	6668.1283052644
0	7922	398352.759205320122	6904.2620427412
0	7930	398443.351531319993	4386.0556866415
0	7976	400224.670029937659	4557.780928422
0	8000	400600.266448548784	1956.3696831753
0	8005	400701.797804660377	8230.6614874387
0	8010	400774.609148265083	3274.9639095568
0	8031	402304.090892957846	3036.0749784757
0	8042	402806.709363228941	2621.656179432
0	8053	403047.047869524311	8868.8656402591
0	8065	403758.974651445426	2778.6873872687
0	8087	404662.924054862988	5862.9431763642
0	8108	406483.504971089838	6287.9705056438
0	8124	406723.976495616662	1936.5484809821
0	8136	407515.327952747974	4975.8485036643
0	8146	407637.798509772981	4138.1543905682
0	8165	407930.955223973212	4137.4377922564
0	8180	409055.178381883708	10619.22078239
0	8198	410797.775068087211	3781.890216718
0	8206	411314.489448350642	4847.5748092793
0	8232	412713.765131898593	4980.001747771
0	8241	413437.35847426927	1580.9275821554
0	8258	414478.914478071726	4502.2233711837
0	8285	416882.432715241109	4898.9208403631
0	8310	418488.04076727294	3955.1832852331
0	8392	421061.694938685433	13135.764837644
0	8397	421143.264725082755	3791.3203907076
0	8402	421622.684381932105	3606.1824322564
0	8427	422239.188064800046	8276.6800445234
0	8435	422407.456522475203	2614.9652831024
0	8525	425683.901876898195	4053.2160791046
0	8592	428214.47270697506	10032.368234747
0	8606	428429.255404322529	5950.3491290146
0	8640	429353.20132983895	7610.623821504
0	8646	429636.925836438682	7013.1766245055
0	8651	429834.571668506477	10817.123264785
0	8659	430216.939359384185	11641.130379758
0	8692	432157.43373100633	9410.8244135181
0	8700	432376.361480417863	9866.7700982352
0	8706	432938.011299417667	17711.035537137
0	8714	433058.919592979955	14342.610149856
0	8740	434982.542530062296	8433.5952365115
0	8761	435414.314064352645	17179.509053989
0	8767	435440.887874575741	11346.72858354
0	8772	435578.163484658075	12548.56097238
0	8777	435688.748749777086	9611.6779385792
0	8785	435695.985333613799	8301.0041980804
0	8799	436584.757964282136	10918.916776166
0	8809	436828.665443096039	19095.296774804
0	8814	437150.430504106202	8908.8139559223
0	8830	438022.121369116647	18797.79024851
0	8851	438686.548263297324	10264.953894752
0	8866	439363.624784906444	14356.187495007
0	8873	440668.740419260381	12678.071747731
0	8878	441127.705411021809	11233.705672958
0	8883	441174.955703915712	14238.454094287
0	8888	441270.810098109401	7110.5667452252
0	8899	441405.190427771547	5710.5544785756
0	8970	444208.25737034581	13952.152505596
0	8975	444231.415035103653	7766.0048389948
0	8993	444915.258282915398	7533.292963715
0	9003	445087.696031139896	12090.940693758
0	9008	445174.019085991851	11773.503660384
0	9013	445493.349729510201	10394.750797373
0	9018	445522.360697434161	7282.1129944001
0	9026	445629.696878292559	3894.8257392285
0	9048	446272.700271826924	2655.7023034869
0	9059	446466.813218357298	5159.9732295213
0	9081	447229.14397880887	5800.2258135966
0	9118	448697.980611228883	6006.6735115656
0	9123	448788.918872534438	4862.2715012055
0	9138	449276.404219692247	5299.6710228851
0	9171	450853.228894484347	5155.1575394197
0	9186	451234.441597969216	5688.243579194
0	9213	452289.07945545383	7924.2143570226
0	9222	452630.120754043828	6200.9862372709
0	9240	453377.81019208818	5875.8345054104
0	9258	453781.440096467975	6505.1727141273
0	9291	454907.947024358861	8378.9014628455
0	9309	455103.167834290299	7879.0408343877
0	9315	455331.815380883882	4302.8091516373
0	9329	455828.470976758944	4820.3221355008
0	9343	456266.705289114409	7458.4665607453
0	9348	456526.845256365547	7499.5886829901
0	9363	457262.175679415254	3352.4491408728
0	9383	458354.546207142995	5785.8683844246
0	9400	458874.745211710884	5391.3495155419
0	9405	458904.227995860675	3979.1787257548
0	9416	459213.04974963259	5607.9094882476
0	9422	459501.957890902167	10104.736243294
0	9427	459517.915119241314	6858.8413322744
0	9432	460072.359228483072	4364.9374685796
0	9437	460117.506064204661	3467.596608161
0	9449	460714.072096299278	5857.7965392177
0	9529	466794.90736881426	14915.676561399
0	9540	467277.283074833457	7092.1255651037
0	9548	467625.113808404521	9887.0164746139
0	9583	468718.994150098867	7385.0699478271
0	9589	469005.193369855399	6716.3516610523
0	9594	469018.510267418709	7925.592141469
0	9617	469866.807921407387	9567.9464197581
0	9622	469939.363015939451	7385.7492367803
0	9630	470355.383247832485	7629.8537089838
0	9635	470580.394203590581	2980.2590692939
0	9644	471408.906775086225	3233.2292137028
0	9653	472235.411996679558	4444.3070039454
0	9671	473641.730933072309	7416.329244864
0	9689	475388.747254484197	7656.7950004828
0	9709	476235.623249604015	1959.866103696
0	9714	476264.003839710363	7064.6681785697
0	9729	476607.625067415513	4070.110673103
0	9781	478947.399784793647	2374.0435307402
0	9809	479885.355721968867	2822.7837165374
0	9815	480021.093300542788	3573.9871531937
0	9843	481366.35107748715	3045.4776482009
0	9848	481573.339750492144	2258.8929506056
0	9860	482351.778193739981	5190.27065246
0	9865	482388.767071694496	3003.8744012872
0	9877	483130.390331779553	3066.4751157235
0	9900	484439.060037459778	1545.1334529758
0	9908	484834.417423622311	6862.4841615664
0	9917	485281.069254979335	9593.2080163618
0	9967	489301.4546138785	5490.2002729667
0	9985	490672.928955927304	10257.811761609
0	9999	491329.944312525055	4092.7769097482
0	10016	492052.902955445011	1713.5773654613
0	10021	492085.433553850414	5543.3814138682
0	10058	494052.445963982632	5759.2578988897
0	10076	494797.96774177531	3593.2767095979
0	10086	495014.874430055575	7710.6414693951
0	10091	495018.10360676055	5994.7275037636
0	10096	495174.685261199415	2729.0553036496
0	10152	499454.951315441768	3847.3978552837
0	10157	499583.327469139569	5333.6509906417
0	10173	501163.809454913682	8288.4999528403
0	10202	502509.526800403812	5441.5824469918
0	10207	502643.98867519909	4847.0390241365
0	10212	502646.913894852687	9691.9340010532
0	10220	503112.389488692209	2137.8313148623
0	10226	503337.608679140148	4975.479568826
0	10243	504232.383248752412	2813.246061637
0	10264	505965.263200048983	2054.0779676827
0	10324	509390.169131919634	3224.5665592585
0	10329	509613.075368508269	2972.0123127281
0	10338	510576.106456291306	3149.5185349742
0	10347	511206.255313892578	13996.300918631
0	10356	512204.166497502328	7749.5472550204
0	10377	513880.150856621345	8397.5096369061
0	10383	514342.667428054679	7271.0796996182
0	10419	515846.951715549843	3092.7649117557
0	10425	516074.311121685111	8508.6659372616
0	10462	518313.959727703718	3154.0008700524
0	10468	518872.375979418044	4132.1963789483
0	10505	520932.226949637151	1452.2018849645
0	10518	521118.443027345387	4386.1182131799
0	10530	521309.724761913227	3412.4407980167
0	10544	522240.452822774301	5737.3539408994
0	10566	524752.689040054318	4091.6372250334
0	10571	524789.102079049189	4837.1626143621
0	10581	526444.641765264488	11455.57426549
0	10589	526547.666552058281	5256.8178742474
0	10606	527379.557425376715	4719.8524400775
0	10617	527965.823019410183	8041.1674051798
0	10652	529921.40228186984	1552.9797538795
0	10660	530132.36757020489	3025.2193865836
0	10668	530536.831469602041	2936.7264720848
0	10720	533278.20823336468	2852.878167252
0	10733	533655.372841963941	1607.9971537223
0	10741	533988.992198943312	1583.8409941837
0	10760	535186.125750426305	3092.2564557818
0	10776	536465.831633649385	8069.2946745555
0	10791	537357.047847538721	6220.6895512426
0	10826	539834.110023161865	6768.6984397688
0	10836	540000.95882087866	5780.5899248412
0	10848	540432.46268390517	5666.9929821268
0	10856	540725.737888775585	2823.709020086
0	10871	541964.208332382078	4925.1549579512
0	10914	545714.652672705599	8678.8549646536
0	10934	545916.741667033264	5398.8874386302
0	10939	545924.516998127543	1617.7991390177
0	10948	546376.667483417133	6731.1914598872
0	10965	547055.340793645643	2483.43550743
0	10973	547529.090625721683	1863.1271683037
0	11002	548622.857242336661	2933.2498368348
0	11007	548654.118153628736	3172.9779485496
0	11032	551387.090098966804	5007.8866847298
0	11042	551513.103759853531	3795.439529758
0	11058	551583.475001499996	3578.35237886
0	11086	552637.833747753254	1097.1336097454
0	11105	555280.55007945246	4086.3519061504
0	11127	555924.65449944901	879.18073996485
0	11136	556412.676201368751	6671.4585376485
0	11161	557784.59360570673	896.34908388329
0	11181	558733.748293231639	6939.7640341895
0	11187	559198.259720622071	6679.4973531347
0	11195	559321.273955964097	7342.5148826472
0	11204	559864.294301865943	4405.8356375091
0	11247	562656.103110970311	2354.6133670553
0	11266	564153.329357198879	3674.1989773096
0	11289	565437.413104445877	8272.7425815421
0	11323	567493.051210888548	9411.6478621618
0	11331	567562.391682086459	6371.6877187789
0	11339	568052.024538711112	3675.958133198
0	11344	568185.342174876865	4230.9946343513
0	11349	568252.893523543158	3576.9485111966
0	11368	570155.392142871802	5351.8861686157
0	11385	571492.115444461718	5855.9463132912
0	11401	572595.232954965483	3502.3891478431
0	11443	574646.860223931992	13441.253197145
0	11448	574683.747484849649	3556.5002914379
0	11453	574783.170406265974	2387.3294366828
0	11464	574866.322091659948	1397.3412226251
0	11469	574931.041561892284	2371.8270029699
0	11513	577791.054638721275	2794.6696595185
0	11538	578773.950465145233	5215.2135925799
0	11549	579178.217192033803	2875.5922937023
0	11563	579710.899488637112	2282.160937504
0	11583	581024.439616251912	5076.8591299211
0	11604	582089.646828437974	1817.7528790547
0	11609	582153.215974128239	3090.0485405538
0	11615	582878.00046078872	5027.7487590775
0	11662	586691.198877574187	8651.0140625659
0	11720	589772.708518986126	4286.8750247932
0	11725	589985.828550818643	3772.5727388213
0	11734	590685.408511229627	5395.8509595342
0	11739	590980.909797103714	9987.687908414
0	11744	591018.476998556499	6984.6184537014
0	11770	592098.279915702929	4021.6701706264
0	11781	592360.371434018354	6789.1249404033
0	11786	592709.336980404713	5728.3501139132
0	11808	594216.99896364859	5809.3695023888
0	11832	595305.392091343032	3799.0030904447
0	11840	595645.318112974205	8007.9990877252
0	11854	595819.128576192814	3956.3783847615
0	11866	596912.134619061382	2768.5224520061
0	11914	599688.195514925732	6652.9611335464
0	11922	599991.956410345739	1774.9478717114
0	11951	601123.312080067396	5575.3395763084
0	11964	601387.422389057356	831.21826582017
0	11981	601906.84953283632	3168.6331036803
0	11990	603218.454554267106	5342.8306261432
0	12021	603827.853357923979	2754.991329182
0	12029	604018.279354182634	7214.5212914768
0	12037	604167.752656580116	5674.2976033795
0	12043	604591.966504891191	1347.0665251062
0	12048	604647.865484189541	3166.8117967004
0	12056	604957.986472037405	11365.700383871
0	12092	605940.654430426458	5077.8322367872
0	12098	606019.033394530546	752.2458179912
0	12126	607586.270206718609	2210.319472146
0	12132	607730.930078675351	1083.0290731974
0	12150	609545.840566488604	4066.0264697515
0	12162	610638.714604151674	3387.2815656278
0	12184	611626.068228401458	1038.9421160314
0	12193	612115.374984185287	3020.7741135272
0	12214	616479.888866456335	13105.040640452
0	12245	619771.932861018427	1689.2244386098
0	12275	620819.982005621578	9928.9317524819
0	12287	621491.833193159007	2745.0025383103
0	12301	622782.960107566726	2790.8274725023
0	12310	623173.069576653388	2747.6637026385
0	12325	624385.074851441534	11422.485393644
0	12358	625284.59754994468	5805.5500302396
0	12368	625509.22631329863	1285.3287511096
0	12380	626496.354778549996	1950.9936664964
0	12386	626660.769778120763	5531.4701104826
0	12432	629699.265139195275	885.24112828251
0	12440	629984.721102972743	4763.2928066585
0	12454	630591.755173231412	6387.9212278258
0	12480	631908.399259911881	2153.3054714448
0	12488	631982.047994226279	3687.5902123003
0	12515	632552.732741875212	5496.5872945302
0	12521	632707.254756230514	1616.029402678
0	12529	633076.11057478797	1059.5572384177
0	12541	633734.103182754201	2929.9039154244
0	12549	633925.706351092991	4592.1802915194
0	12574	634867.566141907424	2786.1847591915
0	12596	635243.770394518714	1299.1381802899
0	12605	636064.133716717572	2255.7215555422
0	12642	638013.199799793128	3137.062974633
0	12656	638783.177438856001	1472.5718595333
0	12668	639565.639856473065	2712.6769362056
0	12681	640160.578203084567	5402.7463139531
0	12713	641710.346209713816	3817.9759641918
0	12723	641748.346309726365	4722.1855116712
0	12733	643070.230063804017	2361.151447266
0	12744	643302.556854721685	3915.5093436883
0	12749	643389.643688053464	3037.9642384261
0	12784	647323.964683559054	5967.6489737599
0	12862	651689.474782863795	5932.554561869
0	12897	652882.509911067091	6996.6332385196
0	12902	652994.374752264299	6464.0269908162
0	12923	653981.17422528164	7207.78751979
0	12956	654786.672087561949	3580.0495132801
0	12962	655080.132544259407	4561.1083648207
0	12970	655179.414004181872	5588.5362491744
0	12980	655467.094305457745	3316.3077391846
0	12985	655709.799483730058	2649.7482873297
0	13000	656345.744299173131	6854.9186300427
0	13017	656630.073712327208	4292.7007670835
0	13048	658338.409179694078	7118.2890329821
0	13058	658649.014776316374	4582.498322542
0	13066	658859.162481620024	9422.3657881615
0	13072	659341.202095342438	3052.7025140462
0	13080	659504.724348193591	6310.7136894503
0	13091	659828.838400091519	4724.7376486841
0	13100	660277.464808755394	11802.421689816
0	13114	660999.307189791479	4551.2757163544
0	13125	661212.687986410755	3022.06012482
0	13167	663200.00450749977	2015.2298261111
0	13181	663533.343438499719	6776.2437977813
0	13189	663756.178516453836	1788.5907161411
0	13205	664211.652252795018	2184.285614397
0	13247	665760.526821722669	1904.5771945979
0	13256	666041.88553962744	1560.0969089428
0	13287	667117.078318964886	4296.5207130956
0	13292	667387.121131831979	6033.6682520772
0	13297	667489.717566963781	2729.87970782
0	13313	668779.311258320189	2493.5620207945
0	13318	669139.868055582314	8953.6467554491
0	13323	669424.65063074109	4701.3508334351
0	13378	673830.668484357378	16372.994452577
0	13383	673975.133617267381	2748.3002550783
0	13391	674165.974149425085	3236.3419857684
0	13411	675442.255892304016	8726.096632106
0	13426	676874.049938360363	2885.310210746
0	13518	679589.447510275697	3166.85557802
0	13544	680237.420525451715	6050.3913060089
0	13582	681016.094346778732	3447.0795914113
0	13599	681636.229512983675	4512.9925924716
0	13613	682079.910804504113	17035.660308029
0	13696	685418.498976944108	13307.453833679
0	13706	685714.870627143828	7081.7911367588
0	13712	685730.722863357668	7631.0328252974
0	13723	686058.016702396737	6217.2380517281
0	13740	687282.972983583319	9549.2413426125
0	13746	687807.856095930671	7697.7878550745
0	13767	688707.564537884593	12054.203710318
0	13797	689557.524449835986	10252.41985546
0	13802	689843.023354132057	11801.623192676
0	13807	689882.025503604215	18062.31152579
0	13816	690198.385594082125	12666.671120253
0	13829	690605.338624838388	9769.6069928942
0	13842	690817.191812408286	8836.336721927
0	13854	691266.378758834729	9119.5853083706
0	13862	691307.020228165304	7979.6366587325
0	13873	692060.858074271172	6674.3583859129
0	13881	692191.543382673082	7786.1743714546
0	13886	692289.692360959057	9827.0416030683
0	13898	693144.0877833991	9167.5808929574
0	13921	695116.315778648089	9172.8962348315
0	13927	695377.337319573674	15508.107345303
0	13932	695432.595818482678	7608.2374442309
0	13937	695545.406158033096	15193.357978783
0	13942	695619.021819843439	7398.9609096035
0	13951	696060.763120998259	7523.5274065618
0	13961	696295.21478193571	13639.607906453
0	13966	696326.985707857844	5736.1180713806
0	13971	696409.024236110562	4003.3691247948
0	13980	697288.282746605654	4191.4662579237
0	13997	697905.063445792761	7722.7414940619
0	14033	699361.334021350443	8071.3844414557
0	14038	699380.043049490591	1814.6567657876
0	14047	700196.113545775801	4452.1451556741
0	14056	700826.533057950453	2707.0420274638
0	14110	703691.900861096455	1934.5456204491
0	14116	703738.36295622048	2326.243853247
0	14124	704501.487765805377	6143.692437706
0	14143	705883.273008482806	3595.8528067304
0	14167	706652.453110691868	4148.588511159
0	14179	707288.614351361876	9153.0197108934
0	14187	707618.2752494865	2368.7011229827
0	14227	709335.113521919917	7209.8878672716
0	14237	709495.071454644772	3947.8388609806
0	14242	709550.009107736127	2251.6531083744
0	14251	710225.173044926045	2204.8368980482
0	14320	713835.321525673645	6190.0673793149
0	14329	714484.236296650296	8726.6926663822
0	14337	714652.975419884941	3742.7759258931
0	14356	715354.265591250867	6518.6590201336
0	14361	715468.757312155898	4330.4255153557
0	14376	716396.279361147373	4138.5347601498
0	14396	717413.650235451439	5361.3786575552
0	14405	717813.60895753346	5567.8025539289
0	14416	718445.142116236169	5258.5203817298
0	14424	718525.282367094794	3916.5718271441
0	14449	719647.997297688901	2007.8688518066
0	14468	719832.389538076676	1357.2625009987
0	14478	719941.7008425693	5151.6597296205
0	14489	722033.769436251964	2735.65828905
0	14539	723320.972643054366	4580.1961024653
0	14545	723496.349177104048	7137.4670818138
0	14550	723500.446235573436	1385.2214797466
0	14558	724133.683597072034	4304.8437225085
0	14564	724993.711790919289	2821.3836607919
0	14608	727280.09488886588	1670.649530428
0	14635	728412.205774744591	5957.0730033064
0	14647	729028.741226146265	1787.9985092345
0	14675	729932.940751225364	2910.3789542844
0	14692	730327.275080480389	2326.4137017559
0	14743	732136.171458531886	5952.5512495582
0	14771	734174.282891125641	5401.470309271
0	14779	734408.478650051868	5692.3770011419
0	14794	734746.105414526533	4462.0450787313
0	14812	735242.555023270637	9941.6865350144
0	14818	735858.525611917391	6174.9861766141
0	14826	735929.280872518491	4204.3022118638
0	14835	736362.472452230384	5114.9941472644
0	14843	736962.384633654981	6600.5824425864
0	14852	737204.027443185606	2642.0408296312
0	14862	737371.499974317718	14779.257332786
0	14867	737377.524857318774	4195.4174268472
0	14890	738351.385587023163	6443.1568648451
0	14901	739106.513942884034	4527.3933901535
0	14914	740603.775600081764	3039.6786768811
0	14922	740756.13629609292	9387.713933613
0	14939	741597.095842481365	4394.4238576411
0	14964	743156.345833611485	2480.6567713636
0	14994	743784.209154065328	5778.1192863016
0	15014	744796.452180282027	1878.4432757021
0	15029	745787.908947349498	2397.8554324741
0	15053	746582.207515280481	5146.892562402
0	15062	746704.656496545395	2005.8689010833
0	15071	747752.509064215622	4562.7161942957
0	15108	749294.903038870618	3295.152119353
0	15119	749754.904778892584	7385.8477347744
0	15129	749808.659663867265	1864.1446119297
0	15154	750514.321041857545	627.76091419131
0	15165	750855.679037579833	4714.7404961525
0	15170	750861.230875395572	1159.9490406844
0	15179	751100.899706508913	2548.5287220099
0	15187	751721.613754534567	7883.0969821116
0	15288	756938.096523396533	3572.1239645283
0	15305	757356.092988630455	5024.3558475809
0	15382	759657.339547203047	6089.739851617
0	15417	760827.553088799994	5653.7241440712
0	15422	761080.191721178479	13138.774250535
0	15434	761761.616831542678	11829.346563721
0	15443	762067.786696348121	6894.673052211
0	15460	763041.556322617201	6048.1825805176
0	15465	763456.640542776653	8122.5723902493
0	15470	763635.708872828897	10125.878162971
0	15483	764734.660253969599	10140.770188362
0	15496	764838.106552591155	8666.2468924041
0	15509	765052.354396166119	5606.202501135
0	15514	765072.834065030051	7149.7139618237
0	15519	765190.19836158751	6724.7758418282
0	15534	765608.34056927524	5539.5290668414
0	15539	765862.870040046978	8138.8061104722
0	15555	767343.199630492086	10142.637036128
0	15573	767939.559838492846	8492.535307629
0	15583	769377.225279882636	12232.936277006
0	15606	770737.169273509822	17266.897135091
0	15618	771581.738795118697	9687.5506163997
0	15623	771726.196779429148	11570.472355694
0	15628	771901.543081096805	7719.5328110333
0	15633	771958.687115283048	5396.6219889775
0	15644	772099.363074840228	7275.8956445234
0	15660	772316.822234084411	5265.2774297444
0	15671	772795.158774869175	3284.1360734063
0	15718	775231.893950313532	2487.5261606308
0	15796	777705.484288985496	5619.7041150208
0	15801	777861.995743055171	4909.3754475411
0	15809	778230.19498525109	8951.4287827796
0	15831	779130.342134742326	5902.0044733329
0	15837	779359.960510482844	7343.9677332115
0	15842	779558.551119129455	3806.9374008607
0	15850	779738.902270456713	5115.0359780674
0	15855	779748.419129837087	3330.5631365113
0	15860	779835.671260101647	2968.6450039561
0	15877	780323.909910060174	5547.1562839999
0	15889	781115.254760632397	4315.2727942673
0	15894	781330.07125932246	6187.1991473613
0	15915	782643.165505303582	5527.7339573432
0	15920	782774.418859553735	2686.9523475927
0	15960	784814.909587209696	2884.4487293164
0	16085	791160.963447619448	7113.5422635957
0	16090	791224.281125469108	6721.5267990019
0	16101	791529.103601271737	6119.9355833408
0	16115	792061.292496246736	7184.9752627839
0	16127	792888.159180183826	8794.3592973706
0	16132	793035.881750087412	14448.974258688
0	16137	793205.253848347777	7890.8650531807
0	16145	793496.042389602677	5468.6782468363
0	16156	793847.042489153737	6686.3311953688
0	16181	795644.188776282549	11843.610234389
0	16276	801277.853949740065	13360.088819347
0	16286	801327.970653823491	16252.293943611
0	16298	801845.544094901755	13241.50222585
0	16316	802034.262581329021	24044.52684703
0	16327	802288.053254525887	12299.919030072
0	16358	803336.066999125923	10107.412698096
0	16366	803519.314481713588	12269.411109247
0	16371	803539.389388469014	14161.500851002
0	16382	803948.653210693633	9165.9585243491
0	16410	804995.561608648179	9934.9324831391
0	16418	805267.659602231224	9905.8144122984
0	16423	805297.270073761477	8989.8239610541
0	16434	805628.106345056487	11229.013130704
0	16453	806206.309668505739	8869.9937820791
0	16464	806492.662720690538	4620.4239311719
0	16469	806494.067828912238	9598.5602240577
0	16478	807094.528754792325	4834.1519711861
0	16495	807781.855633225024	6810.0478517781
0	16508	808001.087390743018	6633.7777468023
0	16516	808108.046701867885	5937.2965351858
0	16521	808199.618518020591	4406.4502419514
0	16527	808662.621433956904	6000.8336629743
0	16532	808741.273825831848	3363.0006973754
0	16537	808772.064603787613	3261.5394937749
0	16546	809489.015602345128	2814.7816447678
0	16566	810577.994727188378	11235.874048784
0	16579	810832.871387764755	15852.358244168
0	16589	811970.286950950004	8230.4011882033
0	16611	813124.549280420807	2898.2173248578
0	16623	814201.310150424395	4997.1828457617
0	16629	814374.365647477972	9837.5275168622
0	16649	815647.885875699303	7909.3745843448
0	16662	815998.875923431131	3643.0972496961
0	16683	817315.245393859757	2026.6135646449
0	16706	818675.263400585835	6825.4832104217
0	16739	820063.644785039098	3819.4095589127
0	16771	821268.993852526044	1966.6695151315
0	16804	822832.249447859587	3823.5237363491
0	16810	823014.068315975957	2935.8089062742
0	16821	823655.313253748372	4259.7683786705
0	16845	824617.721790525583	3447.986665866
0	16855	825084.654592527685	8260.9942027048
0	16860	825106.311178592929	7345.0269305752
0	16868	825231.397803093473	9590.7280443441
0	16877	825752.689685876185	4319.1108532478
0	16903	827404.518800454963	7032.2199839451
0	16908	827426.760669099144	5938.1497670216
0	16916	827640.094137162944	2089.1621820701
0	16933	828235.047824595348	3923.9106187752
0	16950	829249.878410620972	2634.6655228108
0	16971	830684.901539103939	7278.0349990199
0	16976	830699.226654186305	2250.3701469309
0	16999	832191.436169612024	4310.9689420199
0	17018	833080.975345560853	1147.3301722211
0	17030	833984.150301203963	4596.9479359149
0	17048	834937.504129008914	3862.71402347
0	17061	835406.385332430048	1443.5607041297
0	17078	836181.52994049024	1548.7776758823
0	17098	836910.604566129731	4809.7197601345
0	17115	838217.299419159316	1942.8572382612
0	17129	838717.816394458825	3008.3065230061
0	17154	839676.335953604664	1504.0889500174
0	17163	840305.373765944283	1224.1201667104
0	17225	842870.584065207951	3591.792199921
0	17230	842872.996519544009	1673.2387950053
0	17242	843565.572579032606	2491.8946678096
0	17263	844450.738205002602	7728.9333182342
0	17339	848481.094811028813	6668.6071260693
0	17347	848587.442775712214	4986.6768218196
0	17353	848766.732211636836	7227.9989620665
0	17367	849291.701933950013	7991.0806758229
0	17390	850970.145262690922	7292.4115539349
0	17404	851263.223694977098	5846.4099759153
0	17410	852313.900207741013	5530.3498249144
0	17419	852934.997321811049	8720.5519760869
0	17424	853060.770181522807	8642.6610651048
0	17435	853211.882852369178	10789.860867774
0	17457	853824.249648393951	3906.0949228388
0	17462	853971.19798327786	7456.8779598346
0	17470	854450.042204652864	5516.7770005286
0	17484	855238.73492196785	4458.7244539079
0	17493	855970.04927711774	8821.7341866089
0	17505	856764.481957276487	3551.2511733088
0	17518	857099.928364655645	2981.7734751035
0	17553	859269.683342102959	6204.3916270463
0	17570	861553.720434027496	4920.2513232508
0	17575	861710.187312442538	3125.9848571983
0	17580	861823.25702638297	3942.0170869306
0	17600	862990.128353494904	4264.5731142927
0	17622	863559.872640223486	1395.7461686928
0	17671	868670.03485409179	2047.2891264148
0	17676	868873.156442176371	3033.9037995416
0	17748	873632.842811369014	6914.4419167818
0	17761	873895.460619049664	10788.146622951
0	17766	874038.16518407194	3542.971162799
0	17771	874176.608510888102	3500.2215506853
0	17776	874281.135663770551	3767.3216201454
0	17782	874681.916972491637	11727.889642089
0	17787	874702.50808873359	3530.3942251623
0	17813	876729.115640337715	5003.1338563937
0	17838	878685.755786316806	2885.0645580902
0	17848	878819.299276173255	11699.243296736
0	17856	878931.691966374927	5462.2301374628
0	17868	879456.919297184832	3265.8169667413
0	17873	879462.636630740365	1577.6873222598
0	17981	883694.944186876381	3602.8052844851
0	18005	884344.381374263559	2813.2703879834
0	18016	884623.285658373652	3178.4156387028
0	18021	884667.797691577559	2409.0750761824
0	18026	884737.546934777836	1840.1338167692
0	18034	885233.25512562495	4948.8561503165
0	18040	885495.819121491666	5561.2538117058
0	18065	886798.628371460536	2867.0224821777
0	18088	887644.014367779467	1810.6982218769
0	18093	887704.002661792722	6010.1152991059
0	18105	888327.905573523308	5198.4904451358
0	18127	889389.338960447203	3537.9438533376
0	18132	889471.273415179517	10843.585435201
0	18186	891538.918491633687	3133.8526441141
0	18197	891589.144184458374	2081.4218855081
0	18225	892424.530790830125	4119.1362372691
0	18242	892653.424321115858	2608.5080839401
0	18261	893196.071095944627	3589.3505825358
0	18266	893210.541681545776	10123.62713289
0	18271	893244.217333088446	12016.795457457
0	18276	893274.834885421136	12223.739307121
0	18284	893838.015141822513	3430.4224681583
0	18301	894426.385091596295	1943.1076230226
0	18309	894526.845962663988	4723.5137831229
0	18315	895042.930986873903	3479.2080580906
0	18392	900100.363291746856	7384.8707497341
0	18400	900390.413914604293	4487.517015111
0	18405	900521.973475761002	13722.276804185
0	18410	900743.37532592823	4164.2221561031
0	18416	900928.651896941387	7449.9844639636
0	18427	901556.888634162399	4770.0653617587
0	18442	902610.604771750903	10951.908766467
0	18450	902635.297494186986	6287.5586269966
0	18460	902916.78218882996	5334.7314302059
0	18478	905079.886366296134	3715.8077026099
0	18507	906320.544245951291	8120.5231095713
0	18512	906541.592712938886	2216.0209251644
0	18537	907315.288814744055	2223.0601416645
0	18552	907903.356348436905	2391.2076914008
0	18562	908224.439983395512	5600.3697082018
0	18584	910619.721865110785	3107.655437053
0	18592	910943.006006606389	4287.0523692612
0	18598	911449.057569191369	4677.1937687822
0	18633	913901.985631191548	1844.0551605447
0	18642	914818.275100502429	2484.4790827959
0	18666	915247.298671984515	6380.9109226514
0	18684	916334.556661956535	3011.7331733551
0	18701	917589.047965744063	2755.9196453285
0	18710	918121.158405371274	2568.3584563097
0	18764	920678.193853829103	1546.4288749533
0	18772	921085.588478227906	1896.2782869049
0	18797	922299.635565149013	7279.4639409102
0	18803	922362.749872807373	5764.3889281885
0	18822	922849.432352102607	1098.1693286267
0	18831	923364.359399777366	2549.6848414923
0	18836	923364.638540458556	3667.6919857117
0	18844	923615.673037782201	4369.9479772894
0	18864	924768.977115655373	5595.2530158136
0	18882	926128.612238656155	3703.185939627
0	18913	927574.770880692218	1777.1020863922
0	18938	928487.426049430109	4258.6135973928
0	18956	930662.867388870418	3428.8257921257
0	18976	931405.999251566532	3750.4188410907
0	18993	931893.879565467535	2097.5856129417
0	19001	932160.978407487242	4574.7790415232
0	19034	933012.855181454389	2333.5078427787
0	19048	933378.502142419007	2343.5181850366
0	19059	933947.315331759218	1733.106708389
0	19064	934021.75936609426	9316.0347282485
0	19073	934373.821824957649	7262.6234981668
0	19093	937832.688225346134	5734.9250238713
0	19101	938137.116176107566	4992.8911420692
0	19110	938908.871840951966	6226.8572605335
0	19179	945338.610170233392	4626.9523883108
0	19196	945941.918234241946	9355.3387337293
0	19210	947150.838023414846	3329.955116934
1	1601	80205.465901464589	167.98192970489
1	1609	80548.993219064448	0
1	1661	83818.674703013584	0
1	1673	84511.771604314739	134.36319091039
1	1682	85158.188423580925	725.66177103126
1	1687	85179.49222877271	362.97337946406
1	1695	85322.455836033198	0
1	1720	85985.818457512104	0
1	1765	90229.603823329073	0
1	1782	91060.135376823191	0
1	1802	92059.529227321758	172.86466806475
1	1810	92347.801281599324	184.88672851547
1	1833	93536.984650516359	0
1	1841	93775.586456204714	0
1	1849	93786.590282894852	0
1	1864	94640.341342856423	827.36746401973
1	1881	94981.704935800005	638.09998017757
1	1900	96262.87950927915	1641.5331926527
1	1905	96411.639932078637	1638.2688134054
1	1910	96425.860575218704	1377.6064228791
1	1915	96599.496387790053	811.39559167199
1	1920	96739.051515506606	480.14504503891
1	1945	97527.915202183419	251.83991447733
1	1954	98033.782402965459	536.21791038578
1	1973	98603.705076993355	243.87924669825
1	2033	100715.676596159372	0
1	2066	101526.295957039362	0
1	2074	101558.096744488274	28.135941699323
1	2085	101925.406732071769	152.8067917729
1	2115	103824.709224096589	668.28315395257
1	2130	104889.15490910193	728.073681259
1	2136	105447.385500769858	1172.6713479554
1	2144	105735.571651444415	897.28891326894
1	2153	106319.184244839164	827.14490251328
1	2164	106877.084556613101	847.79033087705
1	2169	106889.978578093541	512.04276964766
1	2194	108043.855143753783	154.93898552179
1	2227	109319.359226157304	353.33833825962
1	2235	109355.482550943744	32.866541922385
1	2243	109606.159583054327	101.56285066901
1	2269	111263.270492579827	0
1	2281	111783.1482783016	271.07927416144
1	2336	113895.959780269861	375.10457462351
1	2345	114660.234736212449	0
1	2354	114868.518413167001	128.78285510238
1	2365	115605.87086434726	382.02331835147
1	2370	115674.936251097232	156.9341183714
1	2391	116793.525693473613	37.289716673888
1	2417	118735.718871691095	41.561594150645
1	2461	122074.98799873103	220.80260982323
1	2466	122505.779436329003	546.94247165654
1	2476	123664.253304282386	0
1	2496	124821.67297662732	503.2198530648
1	2504	125103.408348173066	720.05768848964
1	2516	125306.120274602296	63.650234673406
1	2521	125775.537347023438	494.94009244883
1	2534	126992.435163650495	748.95111809707
1	2549	128211.372151556222	1189.0879154958
1	2557	128465.356518209309	588.02635731419
1	2569	128836.674048236187	136.89864439766
1	2589	129689.927789932382	318.59783432658
1	2605	130100.077757030562	3.13737071287
1	2656	131830.60441147744	703.79989446291
1	2661	131831.242758372095	612.09237092062
1	2666	131901.848000516763	635.10800858277
1	2671	131975.095829982348	581.25658976929
1	2696	132535.419830431745	42.936256445346
1	2722	134419.26966813812	437.85570136437
1	2758	136236.344294604533	419.95939093435
1	2772	136782.463806511958	128.03267916127
1	2814	139032.287250382272	0
1	2843	143720.452074894884	0
1	2852	144592.915693239853	0
1	2860	144627.33671671286	0
1	2869	145059.872716606302	0
1	2878	146187.612995970606	0
1	2893	147028.668337252912	199.5081742068
1	2913	147640.502554747225	158.90082758091
1	2918	147882.35219410344	356.07986084131
1	2929	148045.456519027612	67.538297390087
1	2941	148918.91421503783	909.87299922237
1	2996	151509.772185906762	0
1	3016	151991.407363925821	121.98524274648
1	3028	152924.71241443206	1010.4522162547
1	3033	153157.508537430676	707.84610824889
1	3049	154984.89778428387	2529.4780461635
1	3058	155240.091318368075	1479.3752931732
1	3066	155314.888935619477	82.928469395121
1	3071	155480.459922473466	174.4228030306
1	3107	157476.035094298901	0
1	3124	157838.655775558499	0
1	3132	157946.886291928279	88.959209358515
1	3149	158783.514968223485	0
1	3166	159648.955580904355	0
1	3174	160125.631810230505	0
1	3186	160529.745908864242	108.08844004092
1	3219	161635.361002106117	6.256074068447
1	3245	162292.05627648535	371.8240016839
1	3253	162477.4092070679	464.01855781072
1	3265	163627.999318145189	1318.3107996311
1	3274	164005.508981153641	1283.5404275708
1	3285	164165.012836362676	617.96221755567
1	3290	164546.357147969537	507.38252475415
1	3299	164742.934460361804	665.39325138263
1	3342	166256.814004773838	80.923719693856
1	3375	167497.751515342663	86.292022827779
1	3384	168055.004337110548	0
1	3401	168465.38257003637	330.68632779613
1	3406	168630.937226274912	243.10600397974
1	3431	169674.137407000568	164.08137462755
1	3440	170048.902997861307	152.5654575666
1	3459	171587.082475949398	542.54818913542
1	3470	171826.126458905368	455.18899195415
1	3518	173589.02374527412	0
1	3543	174281.518192521328	0
1	3554	174711.894246925822	135.25769729775
1	3560	174889.417772208039	178.607339313
1	3568	174955.904053805083	0
1	3610	177163.32233024265	0
1	3639	178233.17617652377	465.42618687998
1	3645	178346.239877663232	410.71883797816
1	3650	178464.817201429164	260.4414469363
1	3664	179544.159419060112	320.53055147442
1	3672	179788.009084451654	182.35611559568
1	3694	180674.586836950943	238.99880007742
1	3706	180911.42839683222	50.036481405923
1	3755	184661.42750711949	551.78497435791
1	3764	185337.135969244611	299.66818243219
1	3781	186032.503406655458	253.97010379037
1	3790	187182.185410059434	0
1	3816	188904.931433053367	0
1	3824	189315.848240586677	0
1	3853	190292.877121955441	111.35263174594
1	3875	191152.155031120512	378.53829317335
1	3883	191754.658575243901	0
1	3891	191851.436657807541	0
1	3909	192440.057158954405	268.6327119088
1	3917	192767.900490102091	543.10980368823
1	3922	192777.883317289394	390.54216547015
1	3951	194183.360407754782	116.65178088916
1	4010	197719.672288107296	0
1	4028	199669.259464546348	330.80952393321
1	4039	202116.263867621581	0
1	4048	202450.740269039338	0
1	4074	204605.842965114865	95.842270833208
1	4094	205645.923483208522	523.6402660569
1	4100	205762.434673979021	281.93592902634
1	4124	206542.634363294557	174.87020127215
1	4133	206694.335874448429	95.332673019192
1	4141	206753.030500265272	0
1	4149	207358.27091459269	129.99877458785
1	4178	208997.380920440272	176.8803093844
1	4192	209294.84999320444	5.394552549529
1	4209	210013.538782246338	79.648941507303
1	4226	210931.632776939071	99.560880866642
1	4251	212394.918592301321	0
1	4260	213176.064329900431	112.19591064336
1	4293	215157.820935793155	205.81394160858
1	4301	215705.635605695364	611.6901857602
1	4329	217076.36998293337	0
1	4337	217415.654775441795	323.73504440607
1	4346	218106.568409935732	42.674683370472
1	4361	218698.911268761836	309.87559424569
1	4372	219065.200765248611	32.329754798329
1	4389	219496.5015550152	322.41288573975
1	4394	219548.451535879973	315.31372045101
1	4419	220530.519108964518	347.02202304553
1	4434	221691.337567018983	317.59611689489
1	4451	222446.089791352876	58.208441497332
1	4478	223629.287480197066	106.92384549777
1	4492	223838.779218007445	170.28571718285
1	4500	224395.029638855769	506.14750970377
1	4556	227085.316019213035	0
1	4575	228917.596540088441	69.990387090233
1	4585	230818.641758948455	0
1	4610	232049.94077939242	0
1	4622	232435.223698775125	271.47610615074
1	4627	232775.301348438743	341.97331540802
1	4636	233492.435908996827	0
1	4644	233624.84274263074	0
1	4669	235778.583355771588	6.462116404014
1	4689	236998.15902795384	431.69165835638
1	4703	237639.398219148672	497.92951576015
1	4716	237818.230450606433	137.94435864958
1	4732	238259.878475963506	250.48882899474
1	4754	238961.316089360747	0
1	4764	240012.486258776085	0
1	4772	240232.717736774173	0
1	4789	240941.65855279226	0
1	4798	241801.38076922232	0
1	4823	243223.436734980464	0
1	4861	245243.39469116468	422.14138039071
1	4891	246737.891512541334	426.8872905628
1	4900	247096.438167310239	0
1	4908	247625.520880559122	0
1	4921	248628.836307510205	562.63609102382
1	4938	249361.038377281973	1170.3374374238
1	4947	249522.660907131388	459.2038706017
1	4952	249595.547021879359	530.95561407073
1	4963	249779.143255722507	43.338319147398
1	4979	250283.731750131444	307.05934065299
1	5001	251128.708462770077	354.57938462292
1	5007	251252.535782758284	394.54049055199
1	5034	252165.034274933852	0
1	5083	253707.827917481226	0
1	5092	253794.569872192512	10.596262118783
1	5118	255446.059735005666	0
1	5137	258216.828674764259	0
1	5154	259437.302619873061	147.70589736977
1	5177	260507.165731033663	640.38540001048
1	5183	260709.21302550474	316.83724715277
1	5202	261364.645675322201	404.3748478054
1	5208	261883.763849817339	666.20232640063
1	5216	262288.439043071822	47.044164336811
1	5231	263203.639675089592	0
1	5254	264458.289943509895	178.3936399842
1	5273	264920.854064665995	0
1	5287	265276.883664050067	221.79836100956
1	5295	265306.011155149522	27.020883801793
1	5322	266363.599735619977	0
1	5354	267822.14418476129	860.50613462598
1	5359	267862.20194948224	187.12533210891
1	5381	268508.75255444676	0
1	5406	269781.024948924103	323.5830650298
1	5415	270352.901583656308	282.28267156158
1	5426	270719.142989019235	258.24154544688
1	5448	271647.838048634153	0
1	5470	272803.120999498333	813.12234564919
1	5475	272823.060992006225	718.07366737732
1	5480	272857.038683836053	728.46425393488
1	5485	273131.400169645597	541.0792084561
1	5502	273499.619546712273	258.32923051431
1	5528	274770.430967079065	647.97609415792
1	5536	274988.370970960595	522.34906681682
1	5552	276403.954408849905	742.02590242295
1	5557	276508.208638085352	762.63503704793
1	5569	277295.210301260636	354.87975062335
1	5593	278208.586400079038	821.02763247094
1	5609	279482.765712897723	1645.6362498415
1	5617	279518.31459223706	1576.178622143
1	5622	279887.267331015987	1545.5558091907
1	5635	280076.584092206205	34.662031817828
1	5660	281075.573159571685	153.92753756065
1	5701	282699.015249681672	411.07280853909
1	5710	282946.741440263831	51.413044557932
1	5721	283405.068100383568	254.22866261612
1	5744	284806.564477811356	485.26082874624
1	5765	285203.559292325705	10.199700995876
1	5780	285935.096133940785	547.9570202468
1	5850	288512.724591819128	262.9635119521
1	5878	290440.563686977063	0
1	5896	292277.78269571722	0
1	5905	292396.114237405937	112.95736203061
1	5917	293193.306724377107	557.54210851725
1	5930	293640.397743232424	0
1	5939	294563.63969619978	0
1	5947	294698.830787056044	91.797519747544
1	5956	295517.45276239628	0
1	5999	297826.646407941408	0
1	6007	297940.470472797638	0
1	6015	298174.867457992324	222.45443517061
1	6032	298562.791234424174	0
1	6047	299662.239393342375	76.864692722088
1	6058	299773.567786554404	51.851762494159
1	6100	301957.480270319208	0
1	6116	302495.497268780563	0
1	6125	302747.866909945769	138.81311542076
1	6146	303768.087464355004	936.20994223828
1	6151	304062.712466826509	1161.0954303246
1	6168	304619.990786492177	252.70845118797
1	6173	305079.481655696233	498.32616614658
1	6226	307533.089658183087	0
1	6254	310815.337226102855	0
1	6265	313195.914817725553	0
1	6276	313406.058928006298	15.423939311654
1	6298	314269.619363587758	0
1	6315	314892.342153822584	0
1	6333	316974.85657543249	0
1	6342	317285.28893070348	0
1	6350	317470.30259534097	0
1	6367	318380.39280782641	0
1	6394	320245.367045883452	1047.9486600512
1	6403	320711.738024300499	451.23814491422
1	6411	321118.531509000024	196.6537302338
1	6448	323973.406953568425	262.55538632077
1	6465	324790.918861001661	378.22184249881
1	6488	326568.98108210257	113.8738875672
1	6497	327289.323333154694	0
1	6505	327347.233588326262	0
1	6514	328050.28886218915	0
1	6532	328831.873179412726	650.55348328007
1	6538	329209.401457942951	438.62325798571
1	6543	329381.960651595365	577.80794243966
1	6568	330564.602909592081	152.91679923319
1	6573	330582.256577654365	66.795100874836
1	6596	331642.150658296186	270.6727226479
1	6630	333025.585141354465	0.799662608881
1	6666	334496.86166053416	0
1	6683	335251.486964611732	0
1	6691	335880.605494006412	0
1	6714	336247.680214188267	221.64177142855
1	6719	336253.23821733639	133.92595848535
1	6747	337265.353555214043	330.17293359517
1	6755	337689.644312076632	287.87140802043
1	6770	338515.492293053417	810.50687082105
1	6780	339584.173081513061	1120.9932080166
1	6794	339984.68994195635	409.61316916908
1	6802	340183.866205754999	433.04550613931
1	6808	340332.968308850925	397.25654351448
1	6843	341819.852526581148	18.475569464364
1	6868	342413.256045965737	231.98972484045
1	6873	342556.122533756467	315.3238523181
1	6892	343533.161027755793	569.82770663766
1	6927	345958.122996689852	0
1	6936	346744.071061038319	0
1	6945	347994.325327808201	0
1	6962	348521.754188980567	155.71590338838
1	6982	349517.839030957508	506.94326569994
1	6996	350223.306112036606	0
1	7016	351335.842669838757	119.10880946462
1	7041	352269.421725177606	146.77971776597
1	7065	353366.293837040514	225.25954217294
1	7073	353812.469839670712	469.68873065856
1	7079	354391.722931893503	885.72868974837
1	7088	355006.70443572771	426.76759184382
1	7104	356709.853142631444	438.5753942674
1	7123	357397.079666140491	442.56914447623
1	7140	358044.15284976441	206.67489441562
1	7146	358530.672520933144	550.26016275254
1	7157	358678.950876567596	99.272454299029
1	7195	359792.507277545101	507.38249004543
1	7204	360067.19396588737	142.46325995632
1	7233	360854.470819872378	233.0878499475
1	7238	360862.506918475673	156.50827768286
1	7250	361296.562465090461	178.67656425699
1	7273	362330.436026135444	714.46559892978
1	7282	362704.847359225081	1079.3918828622
1	7316	364394.738627713684	22.665236338646
1	7377	367805.29384815658	0
1	7387	369876.157317500514	0
1	7395	370189.946985221259	0
1	7413	371234.946851999936	0
1	7446	372394.300979551434	98.702188759749
1	7454	372486.431972124349	0
1	7469	373412.300520198364	750.01113483002
1	7482	374840.423420909919	1887.8770339953
1	7487	375036.497654339908	1931.3528921071
1	7523	376974.598884961932	0
1	7540	377717.485284304727	0
1	7550	379537.274853104769	0
1	7559	380183.357515416062	622.45184710999
1	7567	380572.039450376881	0
1	7576	381025.571577075239	129.31735416241
1	7602	382340.827983972672	0
1	7613	383130.67269278876	338.06823867379
1	7638	383784.488923631018	239.81596743703
1	7647	384170.722409976241	590.0197097372
1	7670	386392.409815036261	423.90578916546
1	7686	387974.522297918278	332.38593528009
1	7691	388239.798369426774	414.98983947894
1	7722	389208.627564580822	0
1	7748	391084.536278122948	356.85394960359
1	7756	391432.527325498853	323.85967844927
1	7764	391489.314437350734	40.817274771794
1	7773	391952.212590408712	425.28387517168
1	7812	392978.073032561641	506.93671533993
1	7824	393871.653179768544	1101.8048147269
1	7829	394032.504679691726	1178.4392337678
1	7844	394559.623653144845	502.32780846639
1	7849	394903.824350511606	725.6421212464
1	7873	395666.889101515681	0
1	7899	397499.645238708317	0
1	7932	398443.351531319993	7.393931826387
1	7941	398738.319403219031	94.422637845501
1	7952	399030.779162162777	230.79828366398
1	7978	400224.670029937659	956.65411545551
1	7987	400320.754099533817	135.70091573692
1	7992	400380.443240849631	184.90877540361
1	8015	400980.287264176763	0
1	8044	402806.709363228941	267.22991414523
1	8067	403758.974651445426	259.33053224068
1	8078	404174.871187011564	381.35375529472
1	8092	404787.428014634608	0
1	8110	406483.504971089838	16.590332018488
1	8138	407515.327952747974	499.44310137871
1	8151	407733.763384127634	0
1	8167	407930.955223973212	5.02512293161
1	8186	409976.691106887987	0
1	8212	411856.430892113851	0
1	8220	411983.511874878027	0
1	8246	413962.508020276612	0
1	8263	414532.857482039791	0
1	8272	415226.975762280721	0
1	8312	418488.04076727294	1136.0964328978
1	8330	419202.667808590226	1469.2991402978
1	8338	419434.291284595302	1417.7893349196
1	8343	419788.898667303638	1606.7941950753
1	8351	419825.968395609609	1591.1633852463
1	8359	419962.444804108294	1386.6358244817
1	8365	420025.505131466196	1309.1956883426
1	8370	420135.620336121307	1118.1719324003
1	8375	420545.5659899257	1321.2348693188
1	8380	420625.187413804261	832.69617443149
1	8407	421630.685797793639	0
1	8416	421742.577508334931	0
1	8440	422478.906275307886	0
1	8464	423045.387501331588	535.79611914897
1	8469	423077.787660359393	454.03844842625
1	8474	423398.088439272591	651.47912178433
1	8486	424147.437608177664	1117.8350958993
1	8501	424706.378084203745	612.21879316787
1	8527	425683.901876898195	676.46458699872
1	8549	427123.743801852387	1457.9026137367
1	8557	427557.763105410909	1480.6922942131
1	8562	427600.472195670092	1051.5249021193
1	8567	427719.821013373301	783.31940374439
1	8573	427940.206221695363	545.22508616198
1	8581	428069.605972527783	78.937300998113
1	8608	428429.255404322529	187.6388561386
1	8617	428740.628985678861	319.03461713304
1	8661	430216.939359384185	322.93962132087
1	8670	430344.310285632711	88.205420883027
1	8716	433058.919592979955	62.16425559789
1	8728	433951.251810872704	550.7363852644
1	8742	434982.542530062296	822.29917717809
1	8753	435263.296817301273	164.69788516367
1	8787	435695.985333613799	1.349384417858
1	8801	436584.757964282136	119.34776817329
1	8832	438022.121369116647	640.15604991621
1	8843	438403.682907289315	163.4352042553
1	8901	441405.190427771547	98.350438935595
1	8914	442407.959293950316	979.04112873807
1	8925	442752.048827969026	1017.177688905
1	8934	443250.693299613429	559.38619995015
1	8942	443624.089336103059	7.091367763063
1	8957	444053.788974931567	127.14160360267
1	8962	444093.524794744308	116.79159793713
1	8995	444915.258282915398	550.3931844842
1	9028	445629.696878292559	83.49885951738
1	9040	446118.33079470933	420.25943964471
1	9061	446466.813218357298	37.678701584365
1	9070	446608.518929859726	79.473368346329
1	9083	447229.14397880887	5.016978906262
1	9095	447627.815481649257	351.54809930861
1	9103	447934.729052174218	432.75336549646
1	9140	449276.404219692247	468.16549132316
1	9148	449505.114490990759	477.8579176153
1	9154	450274.580426758248	877.35877915054
1	9188	451234.441597969216	226.29275671108
1	9196	451449.988036662623	420.98180741601
1	9205	452108.222337481848	228.99153006704
1	9224	452630.120754043828	61.442931325465
1	9232	452660.421066921927	1.347279955009
1	9260	453781.440096467975	298.04440029904
1	9271	454143.787929864884	538.64766847985
1	9280	454604.246335989783	694.51979744737
1	9293	454907.947024358861	51.671467277243
1	9301	454969.142322944181	44.093052838305
1	9331	455828.470976758944	121.04921685549
1	9365	457262.175679415254	612.26622337157
1	9385	458354.546207142995	616.44887335234
1	9451	460714.072096299278	528.9145865695
1	9456	460784.108463647443	485.24696199817
1	9469	462096.860725570973	1003.9425996212
1	9480	462479.859897084241	1145.9356948125
1	9491	462768.561228558885	479.7195197558
1	9501	463747.278290076012	1193.6645109168
1	9506	464538.457807916926	1812.9282690682
1	9531	466794.90736881426	569.50568060597
1	9550	467625.113808404521	24.978674107877
1	9565	468197.089689105911	465.13743510452
1	9570	468346.315182634262	555.21018990014
1	9575	468498.486326128455	322.80876474501
1	9599	469199.335661140615	0
1	9659	472537.514394312502	0
1	9677	474275.757145908012	0
1	9694	475687.861238617525	0
1	9731	476607.625067415513	160.51892006645
1	9736	476996.884384218584	423.52813016517
1	9747	477173.263221360058	110.69121592855
1	9753	477588.099852420492	426.5923111405
1	9761	477971.933262055869	0
1	9770	478320.87342928622	0
1	9787	479314.446799886556	0
1	9795	479384.892670407271	0
1	9820	480063.915216056006	0
1	9828	480701.522223317992	286.40502899935
1	9879	483130.390331779553	236.46374729558
1	9888	483811.254340911775	0
1	9923	486542.0521399822	0
1	9935	487422.986784889186	185.81938211232
1	9940	487483.353859447086	179.12089878664
1	9949	488293.188065092905	0
1	9969	489301.4546138785	278.07851088159
1	9987	490672.928955927304	333.6033659436
1	10001	491329.944312525055	125.25328034768
1	10026	492445.629957549803	0
1	10035	492875.30950207343	0
1	10043	493178.701287727531	223.72139392806
1	10078	494797.96774177531	548.2912632774
1	10102	495607.553460158041	0
1	10111	497087.425773281561	19.481419869578
1	10120	497277.764646196198	67.810250934353
1	10128	497796.949651062575	0
1	10144	499296.983354609062	934.85424429492
1	10175	501163.809454913682	189.25128108377
1	10184	501624.152047523929	205.01486040854
1	10231	503911.185232366239	0
1	10248	504454.619242481944	0
1	10266	505965.263200048983	482.62198033377
1	10274	506303.723949211654	138.12137655057
1	10283	506641.063055780141	0
1	10291	507071.587728436506	0
1	10299	507426.587921317059	0
1	10312	508469.272137111758	903.62695268824
1	10362	512754.186803794132	0
1	10388	514740.179600469742	0
1	10396	514989.067499774725	0
1	10405	515159.958857651311	0
1	10430	516503.098881874948	0
1	10438	516732.324814165488	0
1	10448	517897.283963896534	0
1	10474	519480.025064672626	0
1	10482	519924.655614230335	0
1	10490	520097.49936608258	145.55990139547
1	10507	520932.226949637151	271.1751346162
1	10532	521309.724761913227	18.876084102361
1	10549	522659.704985299203	0
1	10594	527107.148183621318	0
1	10619	527965.823019410183	365.71802189294
1	10628	528368.42252799032	0
1	10637	528917.675905013181	521.13894591927
1	10670	530536.831469602041	111.50140348939
1	10679	531136.358296296095	0
1	10688	532047.375688241604	0
1	10696	532093.869294644535	0
1	10708	532633.98737520957	228.83617044991
1	10722	533278.20823336468	212.79664997162
1	10762	535186.125750426305	965.75685438886
1	10767	535217.399974675487	451.9302728971
1	10793	537357.047847538721	321.2501394867
1	10799	537590.583175596894	551.52980116603
1	10808	538468.959504730507	566.93063604094
1	10828	539834.110023161865	188.63399963193
1	10858	540725.737888775585	207.88366037251
1	10879	544306.717859109834	0
1	10890	544921.879201024281	349.97391480868
1	10916	545714.652672705599	233.51246762644
1	10921	545776.358816741347	110.39535932336
1	10926	545791.453254204761	101.84584870292
1	10953	546379.203414237003	0
1	10978	547717.664230095496	0
1	10987	548005.122622640044	0
1	11013	549741.217663720217	0
1	11034	551387.090098966804	192.89192566477
1	11047	551540.700138007853	0
1	11063	551793.984259042132	0
1	11071	551978.759073316913	0
1	11088	552637.833747753254	119.07138026588
1	11107	555280.55007945246	235.0763199683
1	11116	555458.458664356873	0
1	11141	556888.244521823437	0
1	11150	557245.101008398038	80.430485494224
1	11167	558081.403348726769	0
1	11209	560301.489743914965	0
1	11218	560760.0708234957	280.94044360639
1	11226	561201.705837862345	11.001874554797
1	11235	561665.612336369569	460.00530958221
1	11268	564153.329357198879	198.98181667334
1	11291	565437.413104445877	1061.3466989328
1	11296	565460.710289071988	784.76527672538
1	11305	566170.610224936004	1367.1042506799
1	11310	566184.454588909617	548.28545773913
1	11355	569092.843807122344	0
1	11374	571127.247193411718	0
1	11403	572595.232954965483	199.39198538227
1	11411	573319.972307250315	760.75774832797
1	11420	573503.362057991051	34.381188956166
1	11431	574081.702297209536	522.96542464423
1	11474	574996.384979202809	0
1	11483	575947.580486330766	0
1	11492	576302.62489833155	0
1	11501	577428.738551133116	0
1	11518	577850.251701711192	0
1	11526	578040.184815008332	0
1	11551	579178.217192033803	115.04975845932
1	11568	580271.893949383322	0
1	11585	581024.439616251912	31.217727562205
1	11621	584033.858544855062	0
1	11630	585289.557551695415	0
1	11639	585485.833494192953	0
1	11647	585571.246493615008	0
1	11664	586691.198877574187	477.94306557689
1	11672	586980.986866491555	0
1	11681	587637.319025248969	0
1	11702	588517.412836712005	440.8030916355
1	11710	588782.103835464487	374.47437420468
1	11750	591506.389000898363	0
1	11772	592098.279915702929	235.52972427161
1	11810	594216.99896364859	1181.7645822693
1	11818	594473.983985222146	881.69789705604
1	11823	594550.367528902861	406.75536184758
1	11842	595645.318112974205	97.345609215197
1	11868	596912.134619061382	108.37655635551
1	11877	597875.623928123915	0
1	11885	598217.008538634336	0
1	11894	598493.455053200617	0
1	11906	599304.616801342559	566.40037218653
1	11928	600556.204123237188	0
1	11940	600884.647881836816	21.825688197584
1	11953	601123.312080067396	50.450051325392
1	11969	601481.053687489189	0
1	11995	603244.899979785018	0
1	12010	603645.204384639889	270.35615863596
1	12062	605266.787576539345	0
1	12070	605375.950734572574	0
1	12078	605479.814096737087	0
1	12103	606647.901005477958	0
1	12115	607283.907946123061	32.474907599144
1	12138	609094.600870658092	0
1	12164	610638.714604151674	51.588491781567
1	12172	610891.050253139645	0
1	12199	612962.589457797684	0
1	12221	618082.708422408606	0
1	12229	618746.830654848658	0
1	12247	619771.932861018427	292.88534131333
1	12258	620277.326004931253	285.19336986688
1	12266	620566.990701327241	141.58482731233
1	12289	621491.833193159007	362.53352552085
1	12327	624385.074851441534	181.24090603597
1	12335	624605.165954461709	381.26839227267
1	12340	624635.475674655009	90.114562601364
1	12360	625284.59754994468	63.169253630471
1	12391	627056.145447344982	0
1	12400	628294.457781925935	0
1	12409	628814.024010912762	0
1	12418	629333.526059573639	0
1	12442	629984.721102972743	229.62731450564
1	12459	630804.199267329759	0
1	12468	631091.225353552471	0
1	12493	632016.553336370313	0
1	12504	632321.978872622597	240.59748990663
1	12551	633925.706351092991	117.29418991767
1	12559	633999.897797812786	55.265583584016
1	12576	634867.566141907424	109.73425277601
1	12584	634916.250737130341	40.113911970165
1	12610	636852.96292026743	0
1	12619	637026.160798055203	0
1	12631	637758.600365384136	447.99478606143
1	12644	638013.199799793128	120.8295542711
1	12670	639565.639856473065	178.59234543969
1	12687	640351.679449627321	0
1	12699	641163.891386807171	454.81277026918
1	12715	641710.346209713816	354.03049991466
1	12757	645756.920220994754	0
1	12765	646003.481606403596	117.60493385607
1	12786	647323.964683559054	793.61692211094
1	12794	647773.322920081632	999.93621459001
1	12804	649135.946978853813	660.90385991412
1	12824	649714.346308758126	277.54961529963
1	12834	650866.108026030355	1375.2823568999
1	12842	651044.456924175217	1453.5791691677
1	12847	651063.700131125494	544.67595168675
1	12864	651689.474782863795	482.85220858195
1	12876	652502.644748653112	1282.5246019411
1	12881	652692.662360738806	541.87579446571
1	12886	652698.672512746689	361.29956750299
1	12925	653981.17422528164	921.12302888124
1	12934	654169.245084871924	975.23442612864
1	12939	654313.467657980647	246.9512042063
1	12972	655179.414004181872	75.313252774446
1	13002	656345.744299173131	57.244717876885
1	13019	656630.073712327208	182.04223889017
1	13028	657442.796756157336	685.69711543888
1	13036	657818.544078932469	360.870047152
1	13050	658338.409179694078	147.78131810332
1	13102	660277.464808755394	91.243508622148
1	13127	661212.687986410755	27.913305022101
1	13142	662065.604778889713	712.15189913498
1	13147	662191.459752408742	223.87195209596
1	13155	662396.802243888943	369.43560549093
1	13169	663200.00450749977	379.44690163051
1	13194	663855.949627124814	0
1	13211	664481.788630684644	0
1	13219	664723.299797306003	0
1	13227	664878.753305011081	118.91544586729
1	13236	665503.173795263581	458.92329878837
1	13261	666285.749237525689	0
1	13269	666716.159260198011	0
1	13330	670929.632163656707	0
1	13339	671347.81919009468	120.9858279056
1	13347	671819.713977814105	0
1	13356	672111.045143265364	0
1	13393	674165.974149425085	177.23442181069
1	13402	674960.195576424208	773.16635698144
1	13428	676874.049938360363	451.45800610471
1	13436	677145.489367646979	492.12854008073
1	13448	677607.782540854346	484.54562034227
1	13466	678159.853377307434	628.13890347804
1	13474	678333.922587901277	764.9078325338
1	13479	678508.343986448637	774.61234547784
1	13487	678718.175190037903	676.77502858144
1	13492	678720.928472015458	621.2384339552
1	13497	678782.592980180087	149.51348979504
1	13520	679589.447510275697	284.34291589971
1	13546	680237.420525451715	396.6418747831
1	13554	680425.7262822644	556.49630799387
1	13559	680460.84626044876	350.77801959257
1	13568	680593.295067309027	241.24688805851
1	13584	681016.094346778732	180.36271483456
1	13615	682079.910804504113	99.055714022846
1	13627	682565.877546578086	419.08409611394
1	13642	683470.354678864106	1007.7039209733
1	13660	684194.944521192842	1539.3376457104
1	13669	684922.202414920168	1594.8188454874
1	13677	685097.26328997037	1120.7563995287
1	13685	685259.57714901748	854.20813779895
1	13698	685418.498976944108	31.999288585854
1	13725	686058.016702396737	114.59715858011
1	13769	688707.564537884593	883.2061636328
1	13775	689412.459625344263	1192.3987151043
1	13780	689415.227653873145	877.9919394367
1	13818	690198.385594082125	16.063642351231
1	13831	690605.338624838388	14.470988361096
1	13864	691307.020228165304	17.070648270553
1	13900	693144.0877833991	738.43267208337
1	13905	693188.660733297909	91.844244615954
1	13953	696060.763120998259	316.79473089652
1	13985	697565.386283703024	0
1	14002	698119.491030486667	0
1	14013	698421.087297136342	285.49265666788
1	14018	698483.87836235204	126.08303425264
1	14062	701412.11910297347	0
1	14074	702202.555741076446	445.20050042906
1	14085	702614.796690351341	489.57103570299
1	14091	703078.466023359089	791.04582160665
1	14096	703173.827060126779	669.96246059394
1	14145	705883.273008482806	633.69888197904
1	14150	705896.857203593585	349.62460992943
1	14155	706099.466371755966	341.92274148791
1	14189	707618.2752494865	319.91925012473
1	14197	707781.765282379588	136.51113602089
1	14212	708605.912680788271	585.57653391038
1	14229	709335.113521919917	499.50695080269
1	14257	710910.199493991818	0
1	14269	711980.094970874366	841.76317407421
1	14284	712434.115270598842	381.84369270265
1	14295	712944.70900747773	698.9026038732
1	14300	713054.507475628074	796.7628746305
1	14312	713269.743468156799	83.121733650475
1	14339	714652.975419884941	44.26487993428
1	14348	715208.880248272532	418.83913532372
1	14378	716396.279361147373	37.397265857117
1	14407	717813.60895753346	173.48051165119
1	14426	718525.282367094794	50.155330016846
1	14434	718740.776540589043	0
1	14451	719647.997297688901	349.88615048691
1	14470	719832.389538076676	3.549663513165
1	14494	722115.224755826808	0
1	14502	722260.321415844207	87.99328571681
1	14510	722455.132771438234	0
1	14525	722629.668054741871	37.425413210505
1	14570	725300.868488256194	0
1	14578	725609.445358437888	0
1	14587	726183.620208973684	0
1	14610	727280.09488886588	257.53309192489
1	14616	727767.96295293886	527.22023602712
1	14624	728008.02258148666	7.161202762131
1	14649	729028.741226146265	312.63957723627
1	14657	729313.787864425104	540.97528257048
1	14677	729932.940751225364	249.40131592203
1	14694	730327.275080480389	43.214744685151
1	14705	730814.702702283932	452.90051121538
1	14717	731480.319603845046	232.84129887903
1	14722	731492.697404117902	124.27504163795
1	14745	732136.171458531886	411.19279787722
1	14757	733323.131019973398	1414.9022977953
1	14763	733771.02161910141	588.91418862985
1	14796	734746.105414526533	184.11880097212
1	14801	734979.25824807727	400.1376953467
1	14854	737204.027443185606	1.35545834533
1	14872	737564.096923200642	0
1	14892	738351.385587023163	345.29571925943
1	14924	740756.13629609292	80.447233845036
1	14941	741597.095842481365	161.7808896029
1	14950	742369.05704411822	0
1	14966	743156.345833611485	238.33692903154
1	14978	743407.524989119891	217.73211919995
1	14983	743458.296898160926	68.243383285497
1	14999	743838.516772422928	0
1	15016	744796.452180282027	97.664584819964
1	15034	745999.750919517622	0
1	15045	746276.172615223793	135.23407379644
1	15076	747941.417470643429	0
1	15084	748109.944665120626	165.4296131831
1	15099	748891.390734631109	339.01975013207
1	15121	749754.904778892584	53.62294418146
1	15134	749886.560127666234	0
1	15142	749933.317951122537	1.047683300402
1	15193	752331.73714104955	0
1	15202	753365.972558868231	0
1	15217	753594.166255612304	123.89411719387
1	15222	753700.198139068012	190.36742920969
1	15234	754550.247660641826	982.64796505582
1	15249	755327.915261897963	734.0251962906
1	15257	755577.847102500716	404.73345836359
1	15262	755824.226199337323	650.39725460849
1	15268	756079.46086939674	745.39271686939
1	15276	756234.80243220547	62.942772018382
1	15307	757356.092988630455	362.7192465309
1	15312	757363.777352421615	219.48834954477
1	15330	757921.704678511023	721.14208414655
1	15353	758485.412681005452	761.34875143064
1	15358	758525.122615183808	602.0025119775
1	15364	758970.351317732802	504.92879797347
1	15384	759657.339547203047	211.18765217191
1	15389	759859.137146952405	412.11261608851
1	15400	760212.107735816026	143.29623338223
1	15409	760589.93832431153	434.21390057625
1	15445	762067.786696348121	173.59851762912
1	15485	764734.660253969599	552.64998390611
1	15498	764838.106552591155	14.639122274313
1	15557	767343.199630492086	781.13450418651
1	15565	767746.063558307093	694.51875396707
1	15585	769377.225279882636	98.459077411177
1	15594	769858.201628344017	347.17892688116
1	15646	772099.363074840228	83.370297568859
1	15651	772275.135057281641	189.35488331699
1	15673	772795.158774869175	50.790985186407
1	15682	773202.015042708004	249.39474719394
1	15690	773228.337661409381	0
1	15720	775231.893950313532	608.02765792425
1	15732	776017.88664137396	1241.1330153136
1	15737	776318.52494404079	1175.6528320796
1	15745	776479.640125570196	728.02640730148
1	15754	776767.034185398316	349.17819207253
1	15765	776898.439985708076	98.458019343005
1	15776	777211.67662125792	344.65036511241
1	15782	777462.28611601433	346.85456805399
1	15811	778230.19498525109	240.45925095212
1	15820	778619.528932143115	32.621440743645
1	15866	780087.466511961063	0
1	15900	781930.460857893334	0
1	15926	783800.578541893932	0
1	15934	784047.421184023749	0
1	15942	784095.257724693571	1.457841880328
1	15962	784814.909587209696	312.15526074252
1	15980	785426.44691177178	550.12967830892
1	15986	786134.963923728601	1059.287213516
1	15991	786420.014114271068	1105.625319104
1	15997	786880.680690043705	1471.5126721128
1	16009	787818.844046128479	658.13275234349
1	16020	788327.221415438551	409.4562850456
1	16029	788888.097415033229	860.73327226686
1	16040	789232.796810532138	628.75494148016
1	16048	789381.541456601033	3.65291913365
[...]
7	13606	681934.66193203975	5
7	13625	682565.877546578086	6
7	13632	682746.868391460968	5
7	13640	683470.354678864106	6
7	13644	683577.743238759317	5
7	13647	683659.124757583289	4
7	13654	684115.884803785847	3
7	13658	684194.944521192842	4
7	13667	684922.202414920168	5
7	13671	684948.248581428081	4
7	13675	685097.26328997037	5
7	13679	685146.770768160359	4
7	13683	685259.57714901748	5
7	13688	685352.512657990902	6
7	13701	685601.876377277298	7
7	13716	685770.621338335505	6
7	13728	686147.727790125691	7
7	13732	686165.57792055296	6
7	13736	686643.858953496376	5
7	13753	687900.000241213554	4
7	13760	688348.077725964859	3
7	13773	689412.459625344263	4
7	13778	689415.227653873145	5
7	13783	689473.542535020335	6
7	13787	689505.096188337334	5
7	13790	689535.631380744915	4
7	13793	689539.833343124058	3
7	13821	690300.2092546837	4
7	13834	690760.777844047787	5
7	13838	690760.878894355921	4
7	13846	690849.560773038642	3
7	13850	691166.324925748838	2
7	13867	691391.698240927817	3
7	13877	692165.57104399187	2
7	13903	693188.660733297909	3
7	13908	694157.46032298467	2
7	13913	694439.51800590648	3
7	13917	694548.02244131619	2
7	13956	696073.356773372321	3
7	13974	697014.836875013948	2
7	13988	697613.57163951957	3
7	13991	697882.280555301437	2
7	14011	698421.087297136342	3
7	14016	698483.87836235204	4
7	14021	698676.190183082221	3
7	14025	699063.073770615589	4
7	14029	699132.659397828029	3
7	14041	699598.284333275791	2
7	14050	700544.130790605984	1
7	14072	702202.555741076446	2
7	14083	702614.796690351341	3
7	14089	703078.466023359089	4
7	14094	703173.827060126779	5
7	14099	703427.388302731742	6
7	14101	703438.005998418689	5
7	14106	703593.984681377131	4
7	14118	704486.636502209947	3
7	14127	705158.774552913785	2
7	14148	705896.857203593585	3
7	14153	706099.466371755966	4
7	14157	706138.452778516486	3
7	14162	706416.029796165272	4
7	14169	706693.589917859127	3
7	14175	707274.179721453456	2
7	14195	707781.765282379588	3
7	14203	708193.401833676695	2
7	14206	708593.367542049422	1
7	14210	708605.912680788271	2
7	14215	708673.79500211452	3
7	14219	708710.187908742845	2
7	14232	709359.807675870552	3
7	14245	709940.804186142484	2
7	14259	711079.386273593421	1
7	14267	711980.094970874366	2
7	14282	712434.115270598842	3
7	14286	712595.125265644084	2
7	14289	712706.537576689936	1
7	14293	712944.70900747773	2
7	14298	713054.507475628074	3
7	14303	713161.225940255585	2
7	14310	713269.743468156799	3
7	14315	713539.637507830886	4
7	14325	714472.335026583961	3
7	14346	715208.880248272532	4
7	14351	715233.664963592383	5
7	14364	715792.636466340907	4
7	14369	716091.473401838278	3
7	14382	716624.004692009226	4
7	14386	716702.628739930763	3
7	14389	717106.202071105364	2
7	14392	717316.648974080524	1
7	14411	718331.48435935909	2
7	14429	718727.333566595982	3
7	14437	718860.177769783624	4
7	14440	719192.193861099708	3
7	14454	719672.03321831532	4
7	14456	719802.651272580292	3
7	14461	719822.71092801224	2
7	14473	719917.899014912868	3
7	14483	722002.395154324708	2
7	14500	722260.321415844207	3
7	14505	722337.533160114904	4
7	14512	722539.938563913386	3
7	14519	722596.896661583905	2
7	14523	722629.668054741871	3
7	14528	722910.880572989486	4
7	14532	723143.603471460466	3
7	14535	723247.492728502081	2
7	14554	723655.298453804015	1
7	14573	725320.521436937116	2
7	14581	725649.589277708931	3
7	14590	726375.800434175189	4
7	14592	726734.041008953186	3
7	14601	727080.836460085098	2
7	14614	727767.96295293886	3
7	14622	728008.02258148666	4
7	14627	728037.6076921042	5
7	14631	728207.85455982467	4
7	14651	729255.388999194649	3
7	14655	729313.787864425104	4
7	14659	729423.935142101231	3
7	14664	729556.025813922128	4
7	14671	729806.527126029606	3
7	14680	730180.369621114697	4
7	14687	730295.001884633024	3
7	14699	730774.642793596865	2
7	14703	730814.702702283932	3
7	14715	731480.319603845046	4
7	14720	731492.697404117902	5
7	14724	731644.574875467195	4
7	14728	731688.011790374301	5
7	14739	732050.701623363365	4
7	14747	732279.393034753316	3
7	14755	733323.131019973398	4
7	14761	733771.02161910141	5
7	14766	734150.257684031944	6
7	14775	734306.830819337876	5
7	14790	734664.629297019144	4
7	14799	734979.25824807727	5
7	14804	735023.911461363431	6
7	14808	735092.601058676324	5
7	14822	735871.117687772767	4
7	14830	736067.31818463085	3
7	14839	736837.485789051159	2
7	14857	737208.264555978415	3
7	14875	737582.011098821815	4
7	14877	737928.604929531	3
7	14886	738015.982991492704	2
7	14895	738577.639436556061	3
7	14904	740426.681256028134	2
7	14910	740589.355468470592	1
7	14926	741185.224249072001	0
7	14930	741410.171223603245	1
7	14944	741983.201779522002	2
7	14953	742534.06920124167	3
7	14955	742643.238755388743	2
7	14976	743407.524989119891	3
7	14981	743458.296898160926	4
7	14986	743519.997043938607	5
7	14988	743761.815958736864	4
7	15001	743895.41362921583	3
7	15006	744549.977728589103	4
7	15020	745176.849416901339	5
7	15022	745433.134440455133	4
7	15039	746205.974909656722	3
7	15043	746276.172615223793	4
7	15048	746576.205164792498	5
7	15056	746593.494356733784	4
7	15065	747456.853338239643	3
7	15082	748109.944665120626	4
7	15086	748154.702319177751	3
7	15093	748670.719245965707	2
7	15097	748891.390734631109	3
7	15102	748991.597025904528	4
7	15112	749342.66690708119	3
7	15124	749762.308687384658	4
7	15140	749933.317951122537	5
7	15146	750174.140505103003	6
7	15148	750244.06703160472	5
7	15156	750785.634148139991	4
7	15161	750832.385768560138	3
7	15173	751077.693404093851	2
7	15181	751568.735593929013	1
7	15196	752377.558442491964	2
7	15215	753594.166255612304	3
7	15220	753700.198139068012	4
7	15224	753977.046370766144	3
7	15228	754307.617916260537	2
7	15232	754550.247660641826	3
7	15247	755327.915261897963	4
7	15255	755577.847102500716	5
7	15260	755824.226199337323	6
7	15266	756079.46086939674	7
7	15274	756234.80243220547	8
7	15278	756364.908368733898	7
7	15282	756732.413218250899	8
7	15295	757084.937154588838	7
7	15310	757363.777352421615	8
7	15314	757697.748458004987	7
7	15317	757715.447623139158	6
7	15324	757757.17488564397	5
7	15328	757921.704678511023	6
7	15335	758080.461474398896	5
7	15338	758204.110729856441	4
7	15341	758412.908299004674	3
7	15344	758429.516175810562	2
7	15351	758485.412681005452	3
7	15356	758525.122615183808	4
7	15362	758970.351317732802	5
7	15367	759390.980920567519	6
7	15378	759636.566957639009	5
7	15387	759859.137146952405	6
7	15398	760212.107735816026	7
7	15403	760334.997648502858	6
7	15407	760589.93832431153	7
7	15412	760708.613414919641	8
7	15426	761155.882612451287	7
7	15430	761712.806373838466	6
7	15447	762145.35126464021	5
7	15451	762706.537900370181	6
7	15456	762919.531526376332	5
7	15475	764095.988116271308	4
7	15488	764750.351579850984	5
7	15501	764870.781188017349	6
7	15505	764994.338778758526	5
7	15523	765257.87750137804	4
7	15526	765335.021146483102	3
7	15530	765472.592086421004	2
7	15543	766293.256479297096	1
7	15559	767382.247491125512	0
7	15563	767746.063558307093	1
7	15568	767931.454973677372	2
7	15592	769858.201628344017	3
7	15597	770397.122602199749	4
7	15602	770625.016694305616	3
7	15610	770779.598188671194	2
7	15613	771058.526892402885	1
7	15649	772275.135057281641	2
7	15654	772280.509313178505	3
7	15662	772724.873235601483	2
7	15680	773202.015042708004	3
7	15685	773209.450743562351	4
7	15693	773772.073641969665	5
7	15696	774064.334684239189	4
7	15701	774386.608218096316	3
7	15711	775026.681507111539	2
7	15726	775855.067890160417	1
7	15730	776017.88664137396	2
7	15735	776318.52494404079	3
7	15743	776479.640125570196	4
7	15747	776582.731972623382	3
7	15752	776767.034185398316	4
7	15763	776898.439985708076	5
7	15767	777018.100015376929	4
7	15774	777211.67662125792	5
7	15780	777462.28611601433	6
7	15785	777560.610779486453	7
7	15789	777646.217979734119	6
7	15792	777703.659904809876	5
7	15818	778619.528932143115	6
7	15822	778920.206833196455	5
7	15826	779007.355683762501	6
7	15846	779687.406367596414	5
7	15868	780158.642274785341	4
7	15872	780280.996269531429	5
7	15879	780696.943047952267	4
7	15884	780815.892425535558	3
7	15903	782121.014836164629	4
7	15905	782568.750072715781	3
7	15911	782622.026891799355	2
7	15929	783845.784025742396	3
7	15940	784095.257724693571	4
7	15944	784172.161583922003	3
7	15949	784328.966855463272	4
7	15956	784667.934712161375	3
7	15978	785426.44691177178	4
7	15984	786134.963923728601	5
7	15989	786420.014114271068	6
7	15995	786880.680690043705	7
7	16002	787314.193322654604	6
7	16007	787818.844046128479	7
7	16018	788327.221415438551	8
7	16027	788888.097415033229	9
7	16031	788895.687507077748	8
7	16034	788957.427243271047	7
7	16038	789232.796810532138	8
7	16046	789381.541456601033	9
7	16050	789392.635317331946	8
7	16054	789674.394015422049	7
7	16057	789804.086477732073	6
7	16064	790191.384707638746	7
7	16069	790373.859088756423	6
7	16073	790560.134424911788	7
7	16077	790709.753597180045	6
7	16080	790897.936201490233	5
7	16097	791499.182791555221	4
7	16105	791820.851927183065	3
7	16109	791861.354175753961	4
7	16119	792422.263811471736	3
7	16122	792553.962359717377	2
7	16151	793772.151808547091	3
7	16173	795078.34108060924	2
7	16186	795751.777336462648	3
7	16190	796172.666098533421	2
7	16194	796306.964836265958	1
7	16201	796368.547873696045	2
7	16213	797598.517701430646	3
7	16217	797901.383081242974	2
7	16221	797999.536183270643	3
7	16226	798300.083472385126	2
7	16230	798510.117721463793	3
7	16234	798511.651321007441	2
7	16238	798867.642127563317	3
7	16243	799139.707727330608	2
7	16251	799902.83289288586	3
7	16256	800034.346009057189	4
7	16261	800195.873146821064	5
7	16265	800428.63276594267	4
7	16269	800606.283036294167	3
7	16281	801316.870836894183	4
7	16294	801581.113052992596	3
7	16306	801951.833553392105	4
7	16311	802017.09201255833	5
7	16333	802353.980475121907	6
7	16337	802545.231821401925	5
7	16343	802770.575371649672	4
7	16347	802798.022157809456	5
7	16353	803193.045400670068	6
7	16362	803485.002275650933	5
7	16387	804145.299806084963	4
7	16391	804325.595349216648	5
7	16399	804710.474712373512	6
7	16405	804969.686958750014	7
7	16414	805181.867766993419	6
7	16439	805705.457307318382	7
7	16445	805860.9304410751	8
7	16449	805887.855467432835	7
7	16457	806240.910692778487	6
7	16460	806478.618663833301	5
7	16482	807096.023895280611	4
7	16487	807716.623080624535	5
7	16500	807865.21669729365	6
7	16504	807934.951145383599	5
7	16512	808047.357315224915	4
7	16551	809765.314072724456	5
7	16554	810120.306496981635	4
7	16562	810369.562858407029	3
7	16570	810584.668658931996	2
7	16574	810817.098424056054	3
7	16594	811983.91346194968	4
7	16602	812451.58890735502	5
7	16605	812648.332115577767	4
7	16614	813849.794041563787	3
7	16619	814201.255630080988	2
7	16637	815375.100526818388	1
7	16641	815562.673710823967	2
7	16654	815649.771611755917	3
7	16656	815921.551647198866	2
7	16671	816276.817915864329	3
7	16673	816507.932582201447	2
7	16691	817889.732166921204	1
7	16695	818056.910324300984	2
7	16700	818491.535848633992	3
7	16714	819104.95449193581	4
7	16722	819390.899639767113	5
7	16731	819603.164157800781	6
7	16733	819944.399078288593	5
7	16750	820650.683679110021	4
7	16753	820740.453973746191	3
7	16757	820823.214378820023	4
7	16762	820915.256215000233	5
7	16781	821647.394764735463	4
7	16784	821790.867329827128	3
7	16789	822567.75906970322	4
7	16794	822609.393007346742	5
7	16799	822614.334599565374	6
7	16817	823614.756141507042	5
7	16825	823715.365518448146	4
7	16830	824025.089277064399	5
7	16834	824165.948953407552	4
7	16840	824430.759960033177	3
7	16850	824936.317912517654	4
7	16864	825185.318673411441	3
7	16881	825934.603701480762	2
7	16884	826187.474452176718	1
7	16892	826817.669063256223	2
7	16898	827339.059151070222	3
7	16910	827529.346220257459	2
7	16924	827887.918197478561	3
7	16927	828164.599352033235	2
7	16941	828616.0819972041	3
7	16943	828767.452846228528	2
7	16958	830101.982410264524	1
7	16962	830199.481696807831	2
7	16966	830241.781897406107	1
7	16983	831261.062611533224	0
7	16988	831669.580715187891	1
7	17005	832576.400812888937	2
7	17010	832686.899175400816	3
7	17012	832760.102078981843	2
7	17021	833921.802555878592	1
7	17035	834380.718006801434	0
7	17039	834626.585330687274	1
7	17053	834972.414615803418	2
7	17055	835378.083117112217	1
7	17070	835819.193466115749	2
7	17072	836125.783797617827	1
7	17085	836435.679080056517	0
7	17089	836579.25383278485	1
7	17103	837290.833812450073	2
7	17106	838077.68525679787	1
7	17120	838287.205987018215	2
7	17123	838506.132294262934	1
7	17137	839097.663862865486	2
7	17145	839305.276048430603	1
7	17149	839625.658908244013	2
7	17156	839997.83058598574	1
7	17172	841160.736430453071	2
7	17183	841494.570473112114	3
7	17194	842057.307254428267	2
7	17198	842302.225549429952	3
7	17205	842422.195396113617	2
7	17209	842435.515352937035	3
7	17214	842548.843451848653	4
7	17220	842620.482153090805	5
7	17232	843386.547283845613	4
7	17237	843431.561466000277	3
7	17259	844421.360396845272	2
7	17269	845206.157089498351	3
7	17277	845678.767365489855	4
7	17282	846074.478821291981	3
7	17285	846089.198321415746	2
7	17296	846874.552982570396	3
7	17300	846886.576900854005	2
7	17304	847098.510871538954	3
7	17312	847354.021485303666	4
7	17317	847583.138856646686	5
7	17322	847606.07037733662	6
7	17327	847743.785279267638	5
7	17330	847818.276631772822	4
7	17334	848440.495203631147	5
7	17343	848523.483807993306	4
7	17360	849031.191570606773	3
7	17363	849261.503709775846	2
7	17377	850611.123200999754	3
7	17382	850721.537948385421	4
7	17394	851063.669281826143	3
7	17399	851243.018504779145	4
7	17415	852910.989827312443	3
7	17428	853061.618626770322	2
7	17443	853382.961346164657	3
7	17448	853423.632275202161	4
7	17452	853652.052822791557	3
7	17476	854665.676358552096	4
7	17478	855089.563440414664	3
7	17487	855570.187620320002	2
7	17496	856624.184820635657	1
7	17510	856769.837095954771	2
7	17512	857033.373855044893	1
7	17527	858076.611409359493	0
7	17538	858958.936364707333	1
7	17543	859210.680551187972	2
7	17548	859262.622946802633	3
7	17556	860047.289077417737	2
7	17561	860236.653686732249	1
7	17565	861057.702994875033	0
7	17588	862284.943898889104	1
7	17591	862741.93652305245	0
7	17605	863073.465234736089	1
7	17614	863298.752432422868	2
7	17616	863498.735726179463	1
7	17633	866141.142667205294	2
7	17645	866774.790990459986	3
7	17650	867031.711412016312	4
7	17659	867783.682823871072	5
7	17661	868199.559572210321	4
7	17666	868222.371389653429	3
7	17692	870984.900489531443	2
7	17695	871013.519783250276	1
7	17702	871357.044175065189	2
7	17707	871589.142989217733	3
7	17715	871772.180535748184	2
7	17719	871776.552852089977	3
7	17724	872059.029136898733	4
7	17728	872257.378782913913	3
7	17732	872985.242631629384	2
7	17736	873074.232366768901	3
7	17740	873378.55756869786	2
7	17753	873650.618965758395	3
7	17757	873661.167518090111	2
7	17796	875851.139947881356	3
7	17804	876566.970008561144	2
7	17808	876620.494863931684	3
7	17822	877979.124811484804	2
7	17825	878052.899817213545	1
7	17829	878476.284366813074	2
7	17843	878714.282643728384	3
7	17850	878841.421513550171	2
7	17858	879082.626125347854	1
7	17863	879130.491334387338	0
7	17881	879945.625047729571	1
7	17893	880409.986775481368	2
7	17898	880883.114079378377	3
7	17906	881162.197376457019	2
7	17922	881735.324179714482	3
7	17928	882158.769389746763	4
7	17936	882644.714951659562	5
7	17941	882649.989157124611	6
7	17950	883039.939144136534	7
7	17961	883501.947388259417	8
7	17966	883596.22826176986	9
7	17971	883609.47339605496	10
7	17976	883643.659530004418	11
7	17984	883797.728205075913	10
7	17989	883826.281667077232	9
7	17992	883829.414558828104	8
7	17998	884016.056296282405	7
7	18001	884058.839710991011	6
7	18010	884472.453396502555	7
7	18030	884995.71888729648	6
7	18051	885988.224646986143	7
7	18056	886147.371912022985	8
7	18059	886362.095558004913	7
7	18072	886886.765647452325	6
7	18077	887345.615134773949	7
7	18081	887411.247640543312	6
7	18084	887561.684562668489	5
7	18097	887915.326807840545	4
7	18113	888635.423145300949	5
7	18117	888824.585864965669	4
7	18122	889152.849807946727	5
7	18140	889569.486282608985	6
7	18148	889709.300607269179	7
7	18159	890322.289984604623	6
7	18167	890912.085171431872	7
7	18171	891260.861302370075	6
7	18175	891339.058686353656	7
7	18180	891392.652836580294	8
7	18193	891585.357549972531	7
7	18201	891651.24307264778	6
7	18207	891978.376686876376	5
7	18211	892054.004181154527	6
7	18215	892083.996949283924	5
7	18219	892245.004196042013	6
7	18229	892449.250329778296	5
7	18235	892578.128101173157	4
7	18238	892645.546963556513	3
7	18250	892878.682873405022	4
7	18255	892977.170896443725	5
7	18288	893982.049584428078	4
7	18292	894325.843252835824	3
7	18296	894345.638502688162	4
7	18305	894434.107537564711	3
7	18323	896312.790016388834	2
7	18330	896456.332480483425	3
7	18339	896786.408359159175	4
7	18346	897165.405841494499	3
7	18354	897627.695323234372	4
7	18359	897901.690947732009	5
7	18368	898659.00389613362	6
7	18372	898690.957375774933	5
7	18375	898749.165935237697	4
7	18379	898782.297867331509	5
7	18383	898923.815843597346	4
7	18387	899459.191962409441	3
7	18396	900188.492543485346	2
7	18423	901376.110016829773	1
7	18432	901794.132762847919	0
7	18436	902473.152535138994	1
7	18455	902745.815659306153	2
7	18470	904463.104142318763	3
7	18472	904875.026092103281	2
7	18486	905131.258191722273	3
7	18494	905693.738972368717	2
7	18498	906107.974168703853	1
7	18502	906238.704194916688	2
7	18523	906927.858843714481	1
7	18527	907023.118197812595	2
7	18532	907202.751066051005	3
7	18539	907493.608344500729	2
7	18544	907509.009549093765	1
7	18557	907958.345381678051	2
7	18571	909110.469680321902	3
7	18574	909605.24058013716	2
7	18579	910001.484100903267	1
7	18588	910699.374149189971	0
7	18607	912211.464392690565	1
7	18615	912406.061582083717	2
7	18624	913399.024793625145	3
7	18627	913821.57121896452	2
7	18636	914713.745716256475	1
7	18653	915025.29729296307	2
7	18657	915095.245430408525	1
7	18661	915236.519088623697	2
7	18675	915558.410402754349	3
7	18677	916216.36151549522	2
7	18692	916759.21813836154	3
7	18695	917467.330746830007	2
7	18704	918093.679688418726	1
7	18728	919326.89984660915	2
7	18733	919409.665929386524	3
7	18737	919526.77127327969	2
7	18741	919537.90829868233	3
7	18750	920050.169309690907	4
7	18754	920071.138635319031	3
7	18758	920205.992784201307	4
7	18777	921109.261409195021	5
7	18785	921805.892554791411	4
7	18788	922177.262033778743	3
7	18792	922294.858491523191	4
7	18811	922509.48904990775	5
7	18813	922607.310477403027	4
7	18818	922742.268406299217	3
7	18826	922855.235046108421	2
7	18838	923453.749114811042	1
7	18852	924292.21702884217	0
7	18856	924538.926360152091	1
7	18870	925257.747304131695	2
7	18872	925560.23075154233	1
7	18887	926152.278757046044	2
7	18899	927315.344660991434	3
7	18903	927361.354722155592	2
7	18907	927406.181409781896	3
7	18924	927954.230660601074	4
7	18929	928389.676297668026	3
7	18933	928423.094884129608	4
7	18947	929934.991068793706	5
7	18950	930409.404279406384	4
7	18964	930842.360660775741	5
7	18967	930959.16848285366	4
7	18981	931417.814411611011	5
7	18983	931654.457265242482	4
7	18989	931738.97407787643	3
7	19008	932298.584514716692	2
7	19012	932358.645431748133	3
7	19017	932645.797845533253	2
7	19024	932790.450843068875	3
7	19029	932876.559830445603	4
7	19041	933279.066886939098	3
7	19044	933282.297465902226	2
7	19053	933400.838830461309	3
7	19066	934230.844225454892	2
7	19083	936650.644047974381	3
7	19086	937549.228543994773	2
7	19095	937845.104906897086	1
7	19104	938898.690250617321	0
7	19119	940233.668935740188	1
7	19128	940714.293463915618	2
7	19139	943128.438233162253	3
7	19147	943338.898837253765	4
7	19159	944252.420211264505	5
7	19164	944301.932148606181	6
7	19166	944525.093306843287	5
7	19175	945069.86369308725	4
7	19184	945423.337115481361	5
7	19188	945432.473382962556	4
7	19201	946021.403302410639	5
7	19225	947986.122933560961	6
7	19234	948430.857901452824	7
7	19249	949020.09272368326	8
7	19254	949139.562635904602	9
7	19262	949576.062538591719	10
7	19267	949630.140153185875	11
7	19272	949755.661381992806	10
7	19276	949789.06450195282	11
7	19281	950031.2232111319	12
7	19286	950108.544940034664	13
7	19290	950240.092362957863	12
7	19293	950286.418237596474	11
