version 2
run QueueMeasurement-141-20170109-14:15:34-6116
attr configname QueueMeasurement
attr datetime 20170109-14:15:34
attr experiment QueueMeasurement
attr inifile queueStudy.ini
attr iterationvars ""
attr iterationvars2 $repetition=141
attr measurement ""
attr network controltower.SimNetwork
attr processid 6116
attr repetition 141
attr replication #141
attr resultdir results
attr runnumber 141
attr seedset 141
param SimNetwork.a.parkingLot.parkingDelay exponential(45min)
param SimNetwork.a.runway.landingTime exponential(5min)
param SimNetwork.a.runway.takeoffTime exponential(5min)
param SimNetwork.a.runway.throughputCheckInterval 14.286min
param SimNetwork.wg.interArrivalTime exponential(14.286min)

vector 2  SimNetwork.a.landingQueue  queueLength:vector  ETV
attr source  queueLengthSignal
vector 5  SimNetwork.a.runway  landedThroughput:vector  ETV
attr source  landedThroughputSignal
vector 6  SimNetwork.a.runway  tookoffThroughput:vector  ETV
attr source  tookoffThroughputSignal
vector 7  SimNetwork.a.parkingLot  parkingOccupancy:vector  ETV
attr source  parkingOccupancy
vector 4  SimNetwork.a.takeoffQueue  queueLength:vector  ETV
attr source  queueLengthSignal
vector 0  SimNetwork.wg  responseTime:vector  ETV
attr source  responseTimeSignal
vector 1  SimNetwork.a.landingQueue  queueTime:vector  ETV
attr source  queueTimeSignal
vector 3  SimNetwork.a.takeoffQueue  queueTime:vector  ETV
attr source  queueTimeSignal
0	1371	80079.179003932511	5628.8128674872
0	1400	82349.339357050714	5304.4664857161
0	1421	83091.683280330389	4761.2378552393
0	1427	83367.466657503971	3809.1030856224
0	1438	83634.750956784024	4380.050659257
0	1451	83811.868245212541	5446.112430555
0	1469	84880.338990024327	2636.9971975294
0	1483	85976.622041341143	2169.1743972314
0	1503	87316.765159260658	3850.4722422037
0	1521	88938.73456362548	2687.283609961
0	1526	88978.591901613017	9003.0485225078
0	1548	91510.575724349061	6792.8897200881
0	1557	91943.7246831048	9907.9022085466
0	1583	93448.312596993261	6454.3574075439
0	1588	93450.901837248001	4191.498358453
0	1613	94778.987701598701	2116.6779338047
0	1671	98066.433375631065	1565.2881744317
0	1693	98586.520386516699	4650.3632217623
0	1701	98866.467719535578	4989.4650802962
0	1715	99454.436380309809	1561.5967413368
0	1724	100715.869640392671	4001.5454413808
0	1732	100894.195882905022	2812.6394406852
0	1741	101609.171621204434	6112.1687661136
0	1750	102156.077543316562	10260.448484678
0	1770	103066.554729607656	6987.3530399373
0	1778	103612.449589702378	6828.0234359744
0	1804	105338.357942221722	6538.3552038851
0	1819	106541.604883754049	2475.942368753
0	1828	107240.457466355418	3679.52776262
0	1846	109027.010808643391	4536.3130220782
0	1854	109124.333008234256	6485.2164753022
0	1897	111619.502684946055	3866.2180100352
0	1930	113143.284074102318	3207.8032954769
0	1939	113232.205670292847	4000.0341572548
0	1967	114373.668182254921	2443.0503934813
0	1987	115573.402948497927	2811.8709418941
0	2001	115967.605628026578	2698.7481182247
0	2032	118296.387852195869	7205.2142681766
0	2061	118945.756479760978	7166.6785883665
0	2079	119340.433706661197	5452.2977389369
0	2114	120167.842402988623	3235.5861000882
0	2119	120392.052952061289	5048.4209437196
0	2127	120734.887530755158	3474.4889008143
0	2141	121165.617446881577	5366.7451159896
0	2158	121641.865994839802	2510.5450203486
0	2185	122279.56972510923	8014.210214549
0	2205	122846.082542938583	3515.0147276682
0	2215	123168.340561446792	13167.998645712
0	2220	123208.707720217934	2648.4334015583
0	2239	124370.10905850662	3109.5784871225
0	2257	124858.978409120768	5814.4387450447
0	2262	125017.186959206557	3393.6594365692
0	2268	125168.248890436053	3806.0061625257
0	2273	125178.36845713709	2340.1635506368
0	2288	126706.963349905961	7189.2793726222
0	2293	126731.343340739868	3313.718362099
0	2305	127400.748996088081	5133.1882439694
0	2324	128331.89989685639	10437.428133925
0	2355	131447.716254877353	7684.5625441241
0	2363	131593.839775263682	4831.957420094
0	2375	132624.21994416192	5780.6872087326
0	2386	133122.948599277359	4179.536028471
0	2435	136104.964853424931	1230.7141233983
0	2449	136886.581925212259	4946.9975483024
0	2475	138128.738126525637	3117.4556090294
0	2480	138157.730919868088	3245.311884213
0	2499	138480.913745622165	2604.6638723356
0	2516	139058.468117019303	5178.8549783671
0	2524	139160.442065957738	2663.859347276
0	2529	139390.496284913829	2347.4406972945
0	2547	140789.369130599311	2608.749317908
0	2584	142561.955064230718	1446.0141645185
0	2613	144407.608261280162	5979.5886536091
0	2629	144819.28768594372	5025.5377753423
0	2655	145939.477591818451	3842.2025547851
0	2660	146156.381577999235	16270.725188994
0	2665	146219.486884602746	5001.3155380147
0	2728	148764.374429919849	4171.0900443281
0	2733	148784.022187256546	6294.5875650575
0	2745	149224.506381218256	4490.8526584453
0	2758	149477.836603668828	3139.0760368373
0	2801	151413.872488074527	7751.7397556083
0	2815	151981.134343827247	9310.7311209375
0	2824	152591.538149441292	5598.6627105242
0	2841	153483.161450724212	4429.5918016631
0	2860	154585.002489872429	5152.4971360023
0	2865	154589.816040640681	7861.9383980625
0	2873	154707.930796903156	6553.6157488611
0	2878	154840.507313895949	6917.6197218127
0	2883	154857.095085014773	4654.5626277368
0	2929	156932.487226451951	5701.3657053014
0	2937	157452.766090301946	5177.6642096576
0	2942	157486.048641487611	7202.7919988126
0	2950	157683.108093976121	4424.8130897311
0	2960	158725.949485811833	5429.0703915023
0	2985	159658.139629631277	4436.8517590103
0	2999	160089.777183024198	4841.6674057101
0	3013	160510.004689790824	5350.1056306565
0	3021	160737.19550082562	1456.8868902758
0	3026	160765.554656029298	1872.0542653479
0	3044	162378.910379354614	6470.1523120522
0	3071	165358.7135146982	4358.1601094275
0	3114	167600.459861006749	7623.829565706
0	3136	167944.436736480005	1605.8422442503
0	3182	169633.080775076931	3120.9838906699
0	3196	170253.712344365176	3627.6066694651
0	3204	170556.171023868859	4058.1219572663
0	3215	171223.756478625259	7196.2082369739
0	3223	171429.711325188307	3798.1168715359
0	3243	172971.970059936222	7959.5355031263
0	3252	173587.688155579531	5350.157423166
0	3268	173926.865981160571	1542.7479023199
0	3282	174172.28802953122	3780.1855737248
0	3294	175102.028666990155	3689.5026784478
0	3317	176140.716700055852	8052.8433655543
0	3327	176500.589341983316	8644.8027350505
0	3339	176771.33343760555	2884.3031132989
0	3362	178680.914275601619	2993.3165297734
0	3380	180129.113427387754	5696.6289047692
0	3385	180212.80229519216	3623.4123158715
0	3404	180617.33749923823	7207.9609205375
0	3410	180956.229112108782	4188.5822162429
0	3452	183352.014823107203	14050.177276247
0	3461	184136.729766728316	3910.7761861535
0	3470	184397.279556322431	2285.8231857608
0	3490	185618.49092438555	7182.484301485
0	3495	185641.912934875873	4348.9391778909
0	3503	185820.268882916099	3408.5786677313
0	3580	189354.909919083605	7368.7856967801
0	3586	189467.090753033924	3596.6418944584
0	3591	189592.483334618817	4403.1005469545
0	3596	190117.102131484631	2998.3144421113
0	3605	190346.846384564207	3747.4290064839
0	3613	190974.453537942214	3771.4871100002
0	3622	191203.474796052287	3018.6289076755
0	3632	193131.163480399408	6464.4766080979
0	3659	195631.280491876113	7115.720244183
0	3680	197275.003912099725	2052.1322122041
0	3693	197882.271892274035	2975.8668894257
0	3746	202289.362043964696	5451.8801530148
0	3758	202449.159887298058	3371.4265271628
0	3778	203755.848053078513	6576.7568706674
0	3788	203843.031828584938	4058.7890063106
0	3828	205584.561287611261	3136.5941575905
0	3833	205660.269436002402	1365.6259882119
0	3838	205685.620093684683	5233.7928375977
0	3850	206417.636275563186	2227.7739207187
0	3865	208063.622871045032	4769.2468455104
0	3885	208625.146091711897	4288.303504683
0	3898	209126.582170213093	9922.3009458372
0	3907	209961.997730011493	1800.4638073772
0	3925	210980.440936560536	8832.935002338
0	3953	212270.746100693731	1877.6138267734
0	3959	212953.301699361833	4364.7686059552
0	3977	214878.287749329355	3686.4839471908
0	3993	215103.021425839647	8876.3822065311
0	4032	220479.018918207869	9343.2856306877
0	4040	220898.614921333909	6520.1270819715
0	4049	221496.959025654909	2644.7717435959
0	4074	222791.230390845418	1004.4599547617
0	4091	223670.267953683697	3960.5195866408
0	4100	223814.331798612192	8917.8548765965
0	4137	226080.728100617888	3068.2676753334
0	4143	226401.594664137146	4276.6365509505
0	4160	227571.14251244319	8752.2988946734
0	4176	228893.587040310147	4530.2549721714
0	4186	229320.526607242241	3704.1392427348
0	4194	229625.765126093239	2582.4673064038
0	4222	232570.929730588879	8562.4747625582
0	4232	234375.628663913284	3562.4594975731
0	4241	235120.864379288077	6778.3456193946
0	4308	238024.057042825772	1433.0054880631
0	4328	238808.671003461367	1324.2838106173
0	4333	238821.54367683884	1309.8161036166
0	4357	240725.480739867543	9742.7584815167
0	4371	241125.712868551085	4778.3297289347
0	4389	241810.713857178915	4382.4185042053
0	4404	242019.455362025269	2983.4396761155
0	4412	242227.404176567614	5378.4871254798
0	4421	242594.471594699246	6507.2626637865
0	4435	243580.699691427509	2112.1773851835
0	4457	244073.62074995057	2513.9215344538
0	4476	245006.352528823833	962.06456893386
0	4489	246140.931438398506	5493.6546187174
0	4517	247192.337372994036	3534.2197817062
0	4527	247325.009186249786	3253.2287757924
0	4536	247815.27629123432	1938.4191843774
0	4545	248891.925504780586	2463.2831166915
0	4568	249640.941192490066	11369.172917206
0	4586	249863.902094605675	545.83919739348
0	4611	250577.895394905634	1104.1112846452
0	4619	250951.07059520669	3947.4876391107
0	4627	251087.906221753655	8502.6987546558
0	4666	253982.472707338126	3765.9224248373
0	4686	254855.947010660499	4608.3210050128
0	4691	254858.528643247423	2303.258233557
0	4699	255018.485737943294	5440.902955005
0	4712	256990.975312054485	4782.9344428906
0	4730	258348.091382747748	5434.8392078391
0	4755	259001.581668366531	5207.4738221843
0	4766	259751.861599255675	2785.3112611083
0	4789	261408.793076615136	3473.7507317735
0	4806	261664.039903383788	3308.2761748296
0	4844	262703.023436256748	1105.2675356046
0	4849	262752.10457702533	2565.616437945
0	4872	263713.281799344656	5116.8730816199
0	4878	264028.075974417228	2420.8274520607
0	4889	264183.285421068755	2985.0310189157
0	4899	264606.258205646042	2901.8303940367
0	4915	266445.453128358433	4636.5553960292
0	4986	269432.488010045494	3423.455100944
0	4991	269455.77091259262	5371.1409240706
0	4996	269476.610361619667	2668.3824435459
0	5011	270161.879747355471	7085.0335390641
0	5085	272453.387944730784	2410.7756691099
0	5090	272477.417502377392	5390.0785248892
0	5095	272488.532603752874	6331.8267638836
0	5113	273126.326929555676	2831.6996404691
0	5133	273846.222680657003	2525.4387589236
0	5159	275483.546950285771	7713.0996603467
0	5164	275539.105109023062	5716.7364420855
0	5169	275636.508978584129	4726.4604585431
0	5174	275828.9831620947	8510.1522999865
0	5180	276259.768315555084	6219.801897971
0	5192	276959.037510874049	3931.013335782
0	5206	277775.652122725236	7284.3441215423
0	5211	278387.434189340493	10177.25881781
0	5220	278778.309693927682	5139.4137128449
0	5263	280697.789453002223	9294.2142686924
0	5275	282199.619761155326	5650.0640663159
0	5280	282474.935221739738	8626.9357555788
0	5317	283883.246572524786	3527.9103176409
0	5334	284466.763331449838	5643.0128150254
0	5345	285125.723412147802	2649.187100368
0	5351	285612.441925891284	6304.8109839357
0	5356	285644.404424824651	3123.9028731183
0	5364	285904.310883910499	5352.0784239391
0	5390	287587.085016402041	4924.6838614417
0	5465	291072.163120544034	4697.2646933737
0	5470	291082.389291672113	6755.7819257509
0	5482	291555.896555735741	3925.654660245
0	5512	292774.91027107734	4688.084768962
0	5517	292889.06528473281	5241.50986133
0	5525	292959.743037005989	3815.2225195331
0	5554	294322.841824725166	4766.6245542551
0	5568	294871.800349756776	7371.7547165325
0	5578	295075.289364517421	4705.6614816749
0	5592	295262.682451704186	3607.7555185065
0	5601	295753.999559445083	1853.7081684702
0	5606	295760.916671349037	4547.8248159661
0	5617	296436.134981072588	3317.2590869243
0	5659	297706.211761315528	4776.3410662325
0	5665	298305.972788111104	1695.2998483393
0	5673	298391.356432000717	2307.0578789622
0	5686	298869.733586032008	2592.726668391
0	5694	298907.702220640034	4161.3405776311
0	5712	300428.401851465911	2061.120308751
0	5729	301163.913739040222	9558.4005336204
0	5737	301472.687085920951	4448.8429337385
0	5774	302878.702316780773	3990.0445690976
0	5792	303311.908179931477	1717.5462617138
0	5810	304305.555163962463	2591.2246707077
0	5825	305691.359951147634	5343.7608454012
0	5867	307662.832377943893	5434.1338515186
0	5896	308799.901329053548	7520.9451165933
0	5901	308811.808726755484	1681.2919155223
0	5906	308844.055701751964	6159.0759851945
0	5914	308931.307195499949	4904.1856823445
0	5922	309061.591920025321	3095.90561003
0	5930	309290.215178195064	4182.1772952288
0	5935	309303.148451369855	1806.6608340566
0	5953	310303.710143630213	2471.1383743473
0	5993	312498.456409834773	1350.7048763261
0	6003	312711.166149857406	1728.6585491185
0	6020	313592.583753043296	3748.6821868312
0	6049	315432.332016171454	3201.9178675019
0	6066	316070.762665463092	10500.360114542
0	6071	316144.680656038413	1962.5898546369
0	6103	317448.584713506891	4294.4139303747
0	6139	319291.712520817048	2899.8504774124
0	6151	320047.349208363842	4629.1016706838
0	6156	320201.875842838782	8679.0544177253
0	6168	320590.613235236195	3143.092173134
0	6187	321135.558559099773	2696.6785263779
0	6209	321714.199317544184	3795.8118545078
0	6214	321791.789186867022	1399.9392164156
0	6226	322369.032166158611	8197.7836864778
0	6329	327496.319179593267	10734.669136879
0	6334	327772.311435880778	5783.3375512913
0	6339	328102.862211608403	10724.013773864
0	6351	328650.869932000956	5743.2086231289
0	6374	329289.27371558975	8216.4410904588
0	6379	329906.548899982358	5381.3355996769
0	6385	330333.769253059284	5396.27313607
0	6390	330373.197202140438	7199.7534195696
0	6395	330543.262016624273	7885.4274925282
0	6404	330876.768179530008	5690.4499231862
0	6409	331318.717172961845	7438.8031319687
0	6430	333157.231072972426	4738.5853648438
0	6442	333836.624902385747	10596.499618425
0	6461	334595.843171377592	2358.8505619973
0	6478	335320.595578973389	11864.530966938
0	6495	336459.940824028948	15592.391859266
0	6504	337286.391316435849	2549.0948264908
0	6528	338746.681753595477	2565.8368421311
0	6538	339006.0353681959	5741.5933224971
0	6546	339234.37355941695	1562.1621514757
0	6568	341667.148173886597	8273.1723158763
0	6573	341789.904346039675	3606.2695980798
0	6610	344719.473327950294	3782.9350044989
0	6649	346950.367658127925	3947.7992580636
0	6654	346969.202105256733	3390.4757616714
0	6667	348145.785694669971	3867.9432483019
0	6687	348878.948361966379	5026.0722540511
0	6712	351394.646906742008	6327.8419519738
0	6732	353330.754280469906	5549.6101486559
0	6763	354907.720069608921	6149.055754072
0	6768	355388.937694440463	6577.6783771879
0	6776	355598.676745062289	9991.4371516884
0	6782	356034.706520929446	2634.8163152881
0	6808	357654.362349210151	8747.1598913287
0	6827	360235.790258206743	6631.6993831107
0	6836	361336.968479982479	8602.3231963366
0	6844	361577.54686084801	5070.3159476611
0	6854	363008.752264342881	6580.4935893836
0	6871	364109.945751352116	5269.3404680315
0	6900	365525.694165383946	2190.7828433473
0	6914	366487.314536539557	2127.7967612113
0	6948	368111.169630713847	1157.4387699296
0	6960	369018.93613793253	3852.9209139409
0	6974	369526.774898740412	2229.3427036302
0	7054	374073.953327119055	1828.8667959424
0	7059	374571.39830690279	3777.3704345553
0	7068	374792.7612824424	4788.8859696555
0	7083	375449.442687161244	7978.5743581888
0	7094	375774.714647816965	4831.6280993351
0	7112	376131.716763701288	2793.0152374623
0	7117	376132.603677876572	3431.867046996
0	7134	376776.253489076554	3428.5661235591
0	7143	377280.46174251546	1766.6688594133
0	7151	377932.9712430485	5938.5961006768
0	7192	380338.4624752491	4878.0542908208
0	7205	381524.049753628042	16003.437932582
0	7221	382281.031325644681	13589.269943985
0	7230	382810.396360171581	4425.0777160436
0	7241	383588.607653761005	7228.9318014366
0	7249	383925.067822323237	4741.5454487763
0	7271	384567.263819099661	5331.3432058212
0	7307	385544.123264030779	4959.117661354
0	7312	385557.8318931733	3196.6430335235
0	7330	386565.081613197639	2462.5249182707
0	7387	389000.889930595233	4153.1781483119
0	7464	392462.382134018794	7861.5950976746
0	7476	393077.38094455382	9250.5287180326
0	7486	393188.093625720606	5973.6535512241
0	7491	393313.323932461961	6831.3740300139
0	7496	393351.447888094296	8199.1008468466
0	7502	393492.7800098091	7095.4434505392
0	7510	393544.029251036795	6296.4041573336
0	7518	393714.604715799586	4984.8295117891
0	7574	396419.919090598841	9862.6928832594
0	7579	396497.683738563559	6712.9891132758
0	7587	396666.204955803546	7624.9500069821
0	7592	396671.709591723488	6152.1075779719
0	7597	396836.586859334221	3027.9976455003
0	7609	397069.172704389469	4075.4320706491
0	7614	397190.01270608743	1885.5075246009
0	7643	399362.990879294176	5218.628094704
0	7661	400199.80904243638	6560.3573155877
0	7683	400835.553797521629	6108.2407465641
0	7688	400846.561420093152	9276.9479305603
0	7693	400930.341969880289	9936.432277962
0	7701	400985.78774379022	5071.8792002322
0	7716	402253.537807373077	4156.3124799476
0	7738	403748.480079767363	3386.2291939632
0	7785	405595.870546228095	2571.4792573486
0	7793	405901.74409760615	4952.7602979355
0	7806	406190.808173893132	3339.2550957681
0	7815	406503.208085182523	16432.958435593
0	7828	407088.310172321324	3477.8633435249
0	7833	407148.692133378041	2274.8790503612
0	7854	408646.573868101334	10501.396255655
0	7860	408917.820024350474	2680.0440611077
0	7880	409757.577703557207	9810.1841614769
0	7921	411326.408803306951	3996.3608450551
0	7930	411738.552712304288	2101.6640457333
0	7938	411909.79663347755	2104.009687913
0	7946	412216.518979579757	6534.3601728983
0	7963	413124.010287517043	9990.1916217771
0	7995	415373.027963222679	6250.287434132
0	8006	415465.117676641938	1032.9448411631
0	8035	417169.54812198528	4474.0521645482
0	8047	417734.938549821984	3117.9693097927
0	8061	418466.308491000131	6440.6984639772
0	8085	420498.924744283245	10436.553009632
0	8096	420891.860889410294	5163.0429884583
0	8101	421172.842964608197	11325.742315993
0	8106	421232.857461743152	3598.562263303
0	8114	421547.888497674254	6086.9059173728
0	8140	422890.677050474481	695.1957701195
0	8200	426392.996177668413	8214.8705420034
0	8208	426646.396436572051	3106.5148651549
0	8217	427246.87081245612	7557.5839140329
0	8239	429393.677744190321	6678.1226529727
0	8290	431675.360219871995	8538.4905844515
0	8295	431783.895793833584	7499.5982245731
0	8306	432003.341327343001	4073.8125245542
0	8317	432405.067096753596	9107.2430108754
0	8325	432467.920380652322	3730.0676521906
0	8340	433255.124841990472	9274.067271489
0	8351	433932.549275088716	4490.7457508972
0	8359	434522.306115909048	6547.7330032305
0	8376	434999.325118388398	10806.339774138
0	8386	435304.064667546535	2774.6219751517
0	8395	435769.692742427593	3863.0273303982
0	8413	437975.218009553249	7610.9344158416
0	8425	438865.526192716489	3872.8345787348
0	8431	439024.201169844616	4831.6159802147
0	8481	441391.317541225417	1683.9083715267
0	8507	442394.027624569942	3000.0662891886
0	8518	443144.780437479778	3509.6836265676
0	8552	444390.929921280158	5342.7030808399
0	8564	445072.212371729571	4772.1108260825
0	8696	451141.9108237193	15111.595603361
0	8701	451413.475055739559	8003.348683662
0	8706	451444.673821538087	9602.1460863397
0	8711	451476.484531466927	8559.8255225777
0	8716	451584.337945947133	10156.739113368
0	8725	452072.357901288045	8403.6091222412
0	8730	452135.133149543811	7007.2716722963
0	8745	452634.698986141524	7588.9400927379
0	8778	453867.002050681792	7205.8177929024
0	8783	454182.642932458789	8130.5531559541
0	8789	454333.628009976266	8435.7020860322
0	8797	454620.031387102841	5259.6842682408
0	8805	454709.104614476948	6028.1226614978
0	8813	454770.022835293269	2533.5377111633
0	8819	455158.492345161985	8381.7691895702
0	8827	455745.291847696225	10536.879697121
0	8844	456057.948555606685	3469.9161359763
0	8854	456291.070020930277	6529.8879771587
0	8862	456442.683930687163	3665.2433303727
0	8868	457040.906336067662	11494.72173721
0	8884	457705.835208944484	8776.9724625247
0	8894	458644.095271205417	2723.2134076557
0	8928	460867.951344090122	5361.7409599257
0	8937	461289.297684829126	927.65136224051
0	8945	461953.545809949064	4554.0943218586
0	8982	465518.837704304873	1653.3726370438
0	8990	465791.218689921629	5810.5256977474
0	9013	468923.349716462762	8437.2301152711
0	9018	469269.595306106753	5190.5835711965
0	9043	470393.274436911593	3308.1396696364
0	9053	471561.119387030955	1755.9001643775
0	9098	475955.877423160374	11459.233389973
0	9107	476585.511234535887	6701.3090119915
0	9115	476659.142373865175	2400.2790027542
0	9150	478443.067660554609	3664.6030735864
0	9180	479578.458696686337	2824.4802322925
0	9185	479729.42361188839	1510.638949855
0	9190	479771.234622066334	2384.4239196982
0	9268	483711.165679973601	9258.0391233407
0	9276	484256.475530992096	5408.5656576056
0	9285	484648.842652830317	4040.6931304869
0	9290	484845.75127821002	5012.9811499422
0	9301	485135.569256030728	4224.0714719267
0	9312	485544.622499052724	4597.6895981807
0	9317	485555.892295873898	7205.9591353631
0	9326	486448.689630246981	5145.6930807278
0	9336	487932.568385207279	5937.8126736379
0	9365	489840.412692836052	4750.1697344256
0	9378	490156.224031518028	2050.4699019207
0	9395	490734.241686088469	1061.4267947783
0	9412	491706.735062897668	3535.8562174285
0	9433	493165.682851695791	10276.496773006
0	9438	493246.115856923205	20642.011149081
0	9455	494218.341911492	3875.6143043593
0	9484	495514.557196369461	3716.196848971
0	9489	495571.824768547827	915.40051212821
0	9625	501076.875603392537	6316.6189262575
0	9630	501090.66974785173	4711.0054810861
0	9635	501097.027056048819	9999.462799661
0	9643	501434.966400239483	7486.679018746
0	9698	503034.370857306362	6971.3532759188
0	9708	503112.313167957706	6248.2972286406
0	9714	503174.983803311356	6718.5040917512
0	9725	503996.24422540051	7591.0425843742
0	9740	505187.249495174603	5844.1573318216
0	9752	505875.579728553798	6618.8444696336
0	9762	506310.261729924011	9892.3078814837
0	9770	506523.324028622497	8387.5782505465
0	9795	507295.437324229917	9283.8890391714
0	9814	507821.255998880482	9661.1580468772
0	9833	508254.615803690386	11117.926171308
0	9850	508338.041958869923	8567.2096070023
0	9855	508383.087107633593	7058.9966400351
0	9860	508430.766558615375	6890.5350136626
0	9869	509243.373763371512	5315.2744769394
0	9874	509523.681881175004	2927.0670090127
0	9883	510249.141999386097	7236.8127349244
0	9888	510550.67237252674	4091.5256383434
0	9893	510703.015418392209	3717.1500239224
0	9902	510920.11721030442	3483.9536910206
0	9918	511445.997595143385	4414.1806015925
0	9932	511980.125833946854	3943.2977015227
0	9943	512360.913779275796	6963.8973861157
0	9954	512557.52617163596	1703.3203945512
0	9988	514047.907850895077	12212.392963324
0	10005	514708.599086236425	3442.6597863646
0	10046	515840.219977410138	2481.9024951917
0	10057	516206.09483534145	1633.2196679677
0	10073	517890.743058004842	4764.3389900042
0	10083	518210.123284008217	5830.1070095902
0	10101	519069.564353410261	3354.1114111827
0	10133	519551.100213771255	2027.9170922929
0	10167	520586.727842526987	5279.3370001631
0	10177	520851.199150999453	2240.8605282464
0	10188	521088.407824434773	2536.9586048118
0	10200	521657.701252108886	2412.6814259513
0	10214	522368.405351572748	3631.2335235857
0	10222	522527.829565813706	7761.1949086879
0	10302	525852.077529135249	13332.100840693
0	10307	525931.706582465466	11462.900098691
0	10312	526236.193854062346	6559.5860815203
0	10321	526567.67341110928	2697.0264139314
0	10326	526710.485894844057	4140.2378075709
0	10331	526748.461333075985	5172.4638943386
0	10340	527197.591710086632	4399.7686617218
0	10354	528143.891434036261	4138.9518195283
0	10359	528302.426237232966	8065.6082404129
0	10367	528456.150323358367	4219.7272967886
0	10385	530156.81700238668	7673.6698673982
0	10405	531384.604902127833	7483.4813869614
0	10456	533694.412583775765	13216.292925196
0	10464	533892.467113603916	4797.671163316
0	10522	535344.334796826223	2422.4802897112
0	10530	535540.587110393183	1424.5778323383
0	10544	535750.997599913749	1507.1787636399
0	10562	536636.29985528846	3877.632147402
0	10579	537133.812917966495	3333.7844895603
0	10601	538132.721916339161	5651.5708644986
0	10607	538359.942158960018	7418.7515719323
0	10615	538509.019412978185	3967.6518371238
0	10627	539258.655224942333	8133.5074657447
0	10659	540671.451388270427	6553.2381537935
0	10664	540677.807551807891	6504.8166558719
0	10669	540783.371874792872	13689.033401908
0	10678	541193.903973069748	3458.1907204349
0	10687	541878.6308439494	8488.628481681
0	10695	542279.804928713515	5609.3939373007
0	10732	546559.946786369984	6418.9552269958
0	10741	547187.51472957647	2915.1825870156
0	10809	549600.671947357972	10539.168873531
0	10817	549927.443226702956	2418.9717971983
0	10843	550741.059179012021	3474.5186638927
0	10856	550930.145470059542	12261.264368058
0	10865	551275.583791463812	5597.2770063105
0	10875	551359.621759652719	2195.0336719686
0	10883	551849.870177175576	3482.2555453729
0	10888	551964.878095299933	16493.599212286
0	10897	552132.358992363516	3682.8644122235
0	10905	552329.579182431124	7981.7786999518
0	10943	553569.650947576239	5202.262229378
0	10949	554356.970867822479	4525.5042555415
0	10992	555861.760941539969	4593.6029891359
0	10997	555999.718828972042	3304.7945471919
0	11002	556051.037304828037	16648.906131276
0	11008	556621.654354371869	2238.9719088187
0	11028	557513.839026794486	4516.1015356884
0	11045	558270.508330583927	7817.3217271465
0	11101	560248.471872289402	5195.5839747211
0	11106	560324.450796706672	7538.8314162292
0	11111	560383.154658809158	2716.4390014057
0	11116	560478.843708060352	955.30349910047
0	11125	561311.728339282134	4331.9855654489
0	11150	562155.477987039478	2894.2443400536
0	11159	562663.386414663803	5175.1227752
0	11181	563043.294719384545	1198.8248088567
0	11192	563200.472435710888	1842.8242681525
0	11200	563763.065270217878	4216.2074867499
0	11215	564795.447879278489	12662.326407126
0	11225	564819.668636029672	2114.5414415329
0	11234	565612.6759544347	10913.234343983
0	11260	566883.238124479925	3965.4568440778
0	11286	568822.183712003177	2891.5347676962
0	11310	570056.148648211166	2911.4027016816
0	11323	570428.938732006825	6028.0260084739
0	11328	570837.339186848837	12399.329691231
0	11345	571312.05140111949	5284.134321311
0	11416	574294.222998860639	3147.5547189671
0	11422	574338.372124517596	5158.8965737849
0	11427	574784.649788197436	6679.412642102
0	11432	575094.664415943738	2852.0744705852
0	11441	575331.70522616755	2495.034414633
0	11446	575420.453918095392	5807.788702242
0	11463	576694.444935603811	5064.1488815001
0	11472	577004.752219729638	4302.5180505015
0	11480	577298.470131845506	4766.8834177108
0	11498	578776.65537238333	5202.9881897135
0	11506	578810.284828251567	3333.7282936094
0	11532	580480.442754228073	2160.5349676744
0	11629	586463.700795452042	7178.5475605123
0	11634	586907.716751732633	5029.5999309724
0	11639	586922.563374732143	7067.709725059
0	11645	587402.296035695497	6632.2882515212
0	11650	587725.04675050745	6013.1228189488
0	11655	587745.919650947806	4694.1619851901
0	11660	587791.649313877492	4448.0846159076
0	11696	590115.650412095887	8152.9491854815
0	11723	591287.466797607958	2990.2076419185
0	11735	592227.031236256379	7593.9512080903
0	11752	592829.821221979641	2827.0038895437
0	11762	592899.224612322448	3970.0889848598
0	11882	597765.094832699739	12218.153558195
0	11888	598467.548580707759	8346.2510626304
0	11893	598621.080816035896	7107.6578699935
0	11898	598644.075331870108	4930.3356206702
0	11903	598901.727623993143	3797.8521770434
0	11915	599244.097611716242	9691.8714960293
0	12007	603146.453586129241	8097.2087601339
0	12082	606170.993155666625	9852.3703096301
0	12087	606403.016804944217	13118.668336637
0	12095	606783.906335265534	10813.58486761
0	12104	607227.668468287961	13216.69840392
0	12121	607739.495135427759	13478.559047099
0	12135	608779.156773691402	14083.27660696
0	12143	608989.152545013446	9188.1594791498
0	12148	609105.951668029969	9932.1469705275
0	12153	609194.052481221035	16681.746964125
0	12158	609387.23864720263	9268.4758662123
0	12163	609426.401775948092	8216.7718593926
0	12169	609444.133080586799	9735.5672712361
0	12177	609528.853328043055	6808.0046176013
0	12191	610681.149423248505	6599.6723015946
0	12196	610890.589343391926	9606.6540656841
0	12201	611032.39656075223	15799.249490345
0	12207	611315.0542654132	14703.537912765
0	12212	611395.252476866611	8389.5553433868
0	12217	611470.540225705303	12378.91157483
0	12225	611716.855235563936	6983.1835162236
0	12231	612125.154247103998	6989.5309578416
0	12236	612446.691764199755	8152.8650538457
0	12242	612952.003444606483	5493.3570290587
0	12250	613166.46974101271	6061.9013252119
0	12299	618268.897093889295	4405.2090531896
0	12316	618984.603494019965	9485.713850026
0	12324	619406.316797601294	4437.6489629311
0	12354	620454.147848933562	2464.1822971944
0	12385	622798.918137243515	3332.4942129256
0	12400	623140.088685884825	3185.1734199099
0	12409	623673.273966989395	4611.6466405734
0	12420	623862.695235146271	1210.4634703121
0	12431	624209.468459807501	9788.2826618199
0	12449	625744.257522109345	10879.217307702
0	12479	628441.758798453243	2638.0666432822
0	12484	628487.95219453646	5801.4069005948
0	12501	629659.623221952748	8717.9683953264
0	12510	630534.075827453736	6798.56677184
0	12518	630549.130804427367	3942.9097625232
0	12527	631276.13966861812	6022.8522837987
0	12694	640108.577541280934	8157.4272482693
0	12699	640129.305991567396	5372.0042571005
0	12705	640336.383133392042	5442.8049106444
0	12713	640630.209367556661	5078.87642231
0	12726	640836.428447793701	6027.6318535547
0	12737	641432.496791205176	8215.2060677504
0	12745	641674.214404591134	5509.8909564114
0	12750	641784.553628154027	4734.9092763969
0	12755	641951.279496393325	5624.8533256704
0	12770	642272.904272254996	4225.3869548335
0	12775	642278.75085565694	2728.0969183111
0	12789	642853.566090206018	2241.3692137366
0	12800	643220.060942512422	6633.8575465744
0	12812	643928.982097055824	6835.8515411775
0	12822	644208.753219817907	9033.9429850142
0	12835	645546.227223537804	6811.7117173999
0	12848	646102.464208977905	5328.3678612794
0	12856	646203.009957386369	17337.847224618
0	12868	646621.272202825676	2839.9405637431
0	12945	650882.537779427037	5789.3626265945
0	12950	651288.572259463	13265.495898712
0	12962	651689.112189661414	9060.6056246159
0	12967	651705.889400741467	2530.5715576798
0	12975	652138.982997615171	5288.2458042076
0	12984	652692.578116715928	5544.3976626864
0	12995	652899.977507863015	4612.0022224815
0	13013	654215.195132850251	6980.1568399951
0	13018	654679.406059894913	8113.6325599864
0	13027	655048.243650999078	5801.9926377901
0	13036	656212.085883162966	7971.4598502721
0	13081	660575.689190708981	2785.2345453782
0	13154	663288.47832449949	10438.65524048
0	13162	663420.756134674305	5167.6087812699
0	13184	664242.692907427266	1667.7452563897
0	13202	664875.576741101625	7548.7382949992
0	13217	665016.839788299728	1615.6469549109
0	13223	665294.651832104441	3261.3686287128
0	13281	668395.231707446722	6303.0493400842
0	13293	668727.742764066481	4204.1125333517
0	13303	668959.070325659652	4172.9240610015
0	13308	668963.421896217362	5446.2017136488
0	13316	669113.35666337179	9161.7055762702
0	13324	669401.363575555025	3013.6037939709
0	13330	669531.912239405384	7509.8647852763
0	13335	669543.202688747851	2654.0514413484
0	13353	670535.702006909084	7893.876450514
0	13370	671378.343952861766	8671.3661053708
0	13392	672452.60268342237	6326.2680345292
0	13458	674593.888955821121	14007.78592467
0	13468	674868.711908828873	6280.9285335257
0	13473	675126.953764005347	5141.7043576633
0	13481	675320.956735409636	3613.6667200797
0	13487	675796.097786835205	4904.986724043
0	13492	675814.010600597648	10198.248097088
0	13497	676161.598462114208	3007.4054429476
0	13502	676174.876209403251	4159.891181222
0	13508	676497.321292754576	4024.3545299723
0	13533	677252.664989799606	3750.2190827226
0	13542	678065.509714626582	3723.692036157
0	13596	681293.004730554814	4308.1555215056
0	13621	681730.25446869687	9247.1342727396
0	13650	683483.241495020781	2343.8401805968
0	13671	684627.517232751386	7812.7371968998
0	13713	685815.385655040255	7404.3798637312
0	13726	686058.628867126238	6715.7987090215
0	13731	686097.519177445622	4405.7176995312
0	13736	686534.002895877365	6879.6977210978
0	13745	686606.78991871668	2760.3652579113
0	13758	687121.055597433074	2697.3519782876
0	13763	687214.547931775167	7439.6366532011
0	13768	687258.8740598503	2436.7049425514
0	13785	688051.220606099437	6569.8596129743
0	13819	689768.554369113174	3166.1108768296
0	13830	690011.900989582696	2407.4792366462
0	13856	691614.082057203874	11730.858893261
0	13861	691630.942898559175	6071.4817117565
0	13871	692792.128751983565	10726.254998448
0	13926	695268.571106016314	6700.7380422505
0	13949	696153.632229597892	6184.2486101961
0	14065	699791.638809072861	14911.823942442
0	14070	699942.249474795376	11292.194306023
0	14081	700209.944952748576	6525.2765695197
0	14086	700273.624441025985	7344.5170353466
0	14104	700913.055133279398	12010.355297481
0	14120	701274.370266361482	7638.5185570482
0	14125	701320.328240870392	10965.076652847
0	14133	701413.263881905209	4436.5669041044
0	14141	701440.663223964966	3227.6417456331
0	14152	701833.313736969981	5214.4910775944
0	14178	702292.904625773523	5278.8690281715
0	14186	702391.672980028006	4888.1344225996
0	14194	702500.591265787714	6926.621011187
0	14207	702796.766427907445	7075.3768643831
0	14212	702834.483922695651	7694.9444375269
0	14218	702988.831381915201	4499.9960137073
0	14226	703150.345662296442	2751.267975004
0	14246	704022.726836199184	6049.0755173833
0	14276	706622.63485832441	8776.7658691086
0	14306	707857.238184033682	7441.8173681739
0	14318	708206.712232504095	11117.345490628
0	14331	708647.71649275268	12939.267464451
0	14337	708964.780113695188	16001.229010148
0	14342	709308.931608261819	4054.1360562549
0	14347	709372.793083332192	11965.384706607
0	14352	709675.971971927298	5829.7271709264
0	14364	710551.475531902979	8762.4442978036
0	14375	710756.323556921471	4406.0472964418
0	14380	710861.996236644039	5586.1478036035
0	14389	711671.768772774796	9261.9942877432
0	14400	712192.938685210712	4157.3818351324
0	14437	713617.723540950282	10612.81135895
0	14451	714155.257223750589	3739.1819167795
0	14456	714167.402514894586	1444.8036884854
0	14492	717683.158504284394	1722.2191502116
0	14500	717761.250590233219	5623.9398427945
0	14523	718415.999057517075	3354.8161357732
0	14533	718551.769857299143	5628.6897422768
0	14546	720145.099934157298	16923.290444477
0	14551	720327.997776356346	6844.0396970197
0	14589	722104.541975889828	5585.0659331465
0	14623	723598.929838878225	5834.7090835843
0	14633	723849.719005595313	5475.8239301933
0	14638	724080.255268788527	3644.2961661465
0	14647	724402.24077689759	2295.5725987095
0	14655	724596.407984785569	3155.402400912
0	14671	724813.402154252199	4228.1466013776
0	14676	725031.965159677075	1746.9236532435
0	14774	729648.408685174218	7238.2929097629
0	14792	729939.209064115293	3851.0966017428
0	14800	730239.493758477527	5644.0881410676
0	14809	730389.264667380587	3772.9650658702
0	14823	730634.214527908607	2181.2180629602
0	14853	731238.655618050814	5566.5813599912
0	14858	731627.48790799446	2903.0008641022
0	14866	731673.038402103197	2259.1735288853
0	14874	731785.971470348465	5643.1586050458
0	14879	731997.448935375449	5862.7705149681
0	14885	732105.303341931408	3111.2434972107
0	14917	733883.620406855521	3323.0438330861
0	14922	734028.734366028574	8272.1864408205
0	14927	734361.796014940564	7552.5233957831
0	14954	736731.810532797044	5946.5524958535
0	14984	739465.306906052501	7023.709508547
0	14993	740077.345322867878	4230.9536456511
0	15005	740797.84184687988	3365.0390942805
0	15035	741448.153767635788	10937.298324798
0	15046	741827.602544578501	6558.239160214
0	15059	742192.854618874943	1909.0860304839
0	15065	742318.440903911319	1785.9923250143
0	15102	744020.921380200522	5465.0313449841
0	15107	744207.237925064339	11034.745493496
0	15122	745154.659376577766	4069.5474616705
0	15139	745816.439668678293	3156.3281470259
0	15149	746356.17726869003	3350.2751389081
0	15157	746518.789041471912	1638.1380812751
0	15177	747202.891831243134	5598.4290483475
0	15191	747717.266837616089	2459.5251973194
0	15216	749040.328574385412	2072.8639492034
0	15272	752089.300798033688	5464.7542564436
0	15284	753035.649365319131	4511.9323225493
0	15331	755144.25051151982	6485.7624634145
0	15346	755620.756381104422	5174.6114316873
0	15361	755943.535910727309	6375.8181020903
0	15373	756677.740740337462	13614.801001998
0	15382	756979.363965425394	5502.2968088623
0	15387	757318.219255022338	4081.0352259784
0	15392	757714.743727217883	3205.5664348309
0	15398	758001.179913671601	4908.4857112062
0	15403	758077.298987595183	5174.6404045091
0	15438	761022.63881157815	11763.378943648
0	15447	761659.005420397871	9338.9085659848
0	15465	762598.292925159444	7188.4485535277
0	15481	763293.517898792913	3056.0763171244
0	15496	764252.38025649129	8774.3944718088
0	15524	764828.932786922181	2405.8791211501
0	15534	765025.702550259849	4994.5890491624
0	15539	765344.843236431213	2771.4309914289
0	15581	766667.573710901241	2051.6482776386
0	15590	767442.870444284669	1717.0098759164
0	15610	768420.098774831907	8030.9213704896
0	15615	768466.023531932173	4448.8861422878
0	15653	771041.124241003122	3278.5977710328
0	15665	771491.115068560262	2327.8093509078
0	15670	771519.647101188576	2211.8227593205
0	15678	771676.385019367842	5417.7896932345
0	15708	773068.073776409923	6539.415630427
0	15733	773996.048567648482	9252.7735553334
0	15742	774332.718892924016	4677.9085775086
0	15759	775033.865831432679	2459.0270670435
0	15770	775300.664923282173	2910.3155987635
0	15787	775986.235190422097	2524.6438442974
0	15792	776225.15460601518	1571.7904182943
0	15813	777510.677412358041	2238.9935472854
0	15821	778099.649900665379	4532.5923990368
0	15829	778287.126561714052	6765.3639770588
0	15853	780592.765402161363	2306.5321341919
0	15862	781166.747457725953	4891.7527018031
0	15905	783083.802098284782	17077.296843203
0	15920	783252.482163952986	1852.2580978891
0	15953	784181.212663958937	2892.393242414
0	15962	784591.753046492355	2814.3826748495
0	15970	784900.575922557762	1854.1341136999
0	15982	785270.446403218623	2005.5586598727
0	15995	785550.810949436796	1665.1953429997
0	16012	786854.320813910351	2902.478450053
0	16021	787140.682181685373	1915.738130712
0	16053	788883.347897294672	1739.544456751
0	16080	789763.093286106909	1139.3581983944
0	16097	790482.255128580984	2849.3607770117
0	16126	791819.967985603532	2522.0956668275
0	16147	793334.295813088959	13995.608402515
0	16158	794090.95578233106	5283.0604857059
0	16163	794571.900624030004	12244.758974115
0	16172	795002.744189927149	9358.2196948339
0	16201	796569.234866689017	6789.6220429962
0	16206	796795.797796782638	6057.5318955819
0	16211	797131.834157550159	5615.3570668414
0	16217	797270.762203181559	4005.1459582329
0	16298	803373.455909949251	3887.7445052187
0	16314	803845.902216002265	3632.8938426183
0	16365	806377.374874109623	11541.487955979
0	16379	806870.995894667488	8231.3354135758
0	16384	806946.577023044584	11638.312882966
0	16389	807139.738415682014	6457.8335215551
0	16397	807405.497948557914	6256.4919388779
0	16406	807657.65691247014	3263.7828472333
0	16417	807865.573609338671	4655.5308381044
0	16430	808187.715624083547	4308.8772386847
0	16436	808623.763404027325	6001.665194368
0	16444	808912.14640960709	5107.5759145548
0	16449	808969.417269751717	4389.6930173957
0	16458	809451.109934321982	5997.6727370438
0	16494	810757.470421767095	4584.2035944715
0	16500	811099.561866164671	3303.6005232173
0	16508	811304.285616549197	2030.1180103516
0	16522	811783.328859159944	2280.9812945169
0	16557	814709.806350502875	3482.5353086455
0	16565	814827.07507187147	1557.1544577724
0	16622	817276.981190175643	2422.6815061241
0	16655	818346.01415020983	4100.1432115159
0	16664	818824.824717106021	1619.5196852585
0	16680	819161.202228330089	4294.4585680707
0	16686	819694.383472505563	2415.1233789706
0	16694	820084.889278254917	4295.7574703118
0	16708	820439.14251082641	5234.7174424466
0	16716	820675.798063808592	10886.061215707
0	16731	821615.879578012487	8606.6336328397
0	16741	821743.023181567861	6464.0975466693
0	16762	823173.25531607931	1649.1217929937
0	16803	824415.983660549445	1267.0527456786
0	16808	824549.234027722402	4745.4832246462
0	16817	824700.054847824178	2071.5224580738
0	16842	825964.305802231363	2597.5659795053
0	16850	826278.20809371231	8629.7585102272
0	16876	827929.572774110654	2623.5932817965
0	16917	829659.139310417588	2469.9968817183
0	16936	830315.85320432808	3792.4233892636
0	16946	830497.096740059885	6724.9836432158
0	16958	831024.091337109663	7256.5814207505
0	16980	831457.343131392817	919.00845360738
0	16988	831608.692529368098	12896.76893177
0	16993	831641.543603892488	3615.0846101046
0	17002	832377.329384823015	2221.8704134691
0	17013	832741.483274098475	4773.1686579278
0	17028	834050.377807499479	8559.6590043587
0	17057	835818.214919420928	3164.8827080569
0	17071	836216.087784311669	1917.1386624239
0	17085	836612.220238148724	7675.0645995215
0	17090	837245.557268658557	8274.8352206668
0	17095	837328.608429598381	6402.6946171252
0	17168	839307.349969321533	1343.4541579067
0	17176	839513.412061719934	1290.3116035131
0	17193	840094.422656590244	1826.3380044444
0	17204	840351.912812576716	5661.544373117
0	17290	844916.058376734055	6873.4668220436
0	17302	845363.387994904417	6700.501696963
0	17307	845560.944766392995	7846.3304209734
0	17313	846047.825638595338	8184.8825980455
0	17318	846131.88594817301	5990.3087713506
0	17326	846405.153179746519	6955.8659563586
0	17331	846463.478128735434	5188.7055540533
0	17336	846542.997035667993	6304.4812825754
0	17342	847245.802945584742	4619.8984101464
0	17347	847498.208689695718	5460.9093643873
0	17370	848248.439693339024	5646.8062633393
0	17387	848595.405669995285	6492.7818640882
0	17392	848818.50299077565	5263.0897920429
0	17397	849135.186673323951	13132.641535728
0	17451	851994.875450779336	4492.2842095756
0	17460	852085.184115016926	4034.9578331768
0	17476	852468.431509609472	1739.7305981018
0	17481	852514.195402436833	1033.7980359044
0	17493	853243.549995003453	3923.0860465587
0	17530	857961.792203980663	6347.6734853977
0	17535	858001.308543289597	7155.3640148578
0	17547	858243.752414780596	6199.7310588706
0	17561	858946.499475859861	6186.5631234378
0	17569	859651.466578963665	2803.9508589106
0	17587	861294.945288739169	3156.1946454027
0	17606	863441.757187263547	6696.1222664964
0	17677	867043.374774785254	7320.728943395
0	17685	867395.174487737018	2584.5907103718
0	17690	867426.065131881638	2537.4092417086
0	17700	869140.219964864815	3453.5902484552
0	17709	869762.660959249373	4916.821393753
0	17718	870088.900843103755	8393.5185668587
0	17726	870415.924740515554	5201.3887638946
0	17747	871764.356518672787	6054.3983401651
0	17781	873759.189499352935	3046.6108270478
0	17795	874896.384987541824	1385.658759398
0	17809	877718.892767279172	13969.943857206
0	17840	878525.867280704815	7065.8714881098
0	17856	878913.508208891166	1217.6194489701
0	17877	879479.145557288039	1711.3191650239
0	17910	880853.133542334764	7173.4466176624
0	17929	881915.681822093064	9699.6513064622
0	17938	882051.311649446005	3027.2465635936
0	17954	882814.263288135067	4414.1343686118
0	17960	883268.09655745568	4966.7903014807
0	17965	883507.364626512048	4488.3452150916
0	17982	884580.814027940547	5488.0449068529
0	17991	885012.428339815517	3568.1697953962
0	18007	885371.531875170666	3339.2630884456
0	18030	886277.729009427086	1921.368276852
0	18070	888071.32150915513	2670.3206891941
0	18075	888152.353708219576	3025.9325372235
0	18087	888989.381960578531	2803.6965081224
0	18092	889018.801817611989	3155.6937111368
0	18101	890124.639416621005	9810.6046747547
0	18121	890713.549425635934	3851.2367596631
0	18138	891862.940840649482	4939.1603821339
0	18144	892310.292784692561	2107.2551638083
0	18161	893513.675079646205	3189.6537717703
0	18190	895561.390724739312	3223.2008069399
0	18214	897451.037492984935	3125.8479350402
0	18243	899259.019147279282	2156.8900790837
0	18251	899450.139891468257	5625.2973123507
0	18264	899572.462717174406	4078.899210845
0	18289	902421.969244534027	4478.6839539322
0	18316	903241.496592688101	3895.6390992566
0	18325	903813.026334513918	4026.2187386875
0	18337	904541.378727792402	2787.1117218931
0	18342	905011.746883490702	3818.3288695396
0	18351	905287.126633078649	6257.4690782359
0	18398	909084.031114793131	3079.403943988
0	18403	909228.50448161853	6406.7679625009
0	18413	911064.117401849766	5184.3114444216
0	18438	913067.079244820147	4816.1517155364
0	18448	913157.91588837688	5953.6718979163
0	18553	917845.664578136122	5372.4171102761
0	18562	918142.097766224773	3340.5944349619
0	18582	919000.31656763255	4398.043351764
0	18592	919211.453337760451	7625.2682771975
0	18600	919609.332047750681	3667.2546016578
0	18606	919733.178870597844	3404.8439086885
0	18611	919950.39152948479	5026.8021888884
0	18616	920096.195336950636	6249.4024051302
0	18628	920750.232247733021	5815.2173370691
0	18633	920929.581444486335	6097.2930816488
0	18658	921795.493394727613	2853.0005419685
0	18673	922371.273782241805	6771.6715332583
0	18678	922491.639004775439	1542.4957106222
0	18686	922568.253443873198	6558.1738785631
0	18712	924843.425119887961	6916.8514742578
0	18726	925708.844536207093	3160.207771029
0	18744	926734.979513603919	2409.8893743793
0	18753	927977.323920965341	6669.7219425101
0	18763	929454.881044379544	5308.1048378729
0	18796	934924.028052289721	8811.8382065038
0	18810	935224.141914835566	3744.9691340216
0	18827	936630.214451362951	4196.0360336476
0	18837	938235.623482939002	4021.1786305014
0	18874	942682.742463509313	3987.0559009835
0	18898	943853.55145139413	3271.9343484597
0	18911	944260.619296457445	8099.1463321345
0	18945	945728.044464000121	2103.9649125428
0	18954	946409.589427247915	2215.7008713992
0	18959	946451.698623707257	3243.8387103784
0	18968	947430.202034166964	2946.5303050153
0	18978	948912.838189103346	6621.3381685985
1	1373	80079.179003932511	824.4787064055
1	1378	80083.147036718937	524.78346483735
1	1385	81618.990091783557	1643.4467126784
1	1402	82349.339357050714	313.51688249249
1	1407	82352.044151737342	108.70235924242
1	1440	83634.750956784024	168.45803972704
1	1453	83811.868245212541	4.420601102819
1	1471	84880.338990024327	162.65298576338
1	1488	86251.45095366447	0
1	1505	87316.765159260658	322.80996981131
1	1532	89259.403478794986	0
1	1559	91943.7246831048	48.095624466117
1	1568	92662.309767793993	0
1	1593	93877.0026392394	0
1	1601	94007.460841818529	71.303677064082
1	1619	95497.002855090855	0
1	1628	96079.201689670334	0
1	1636	96501.145201199396	0
1	1648	97068.486254367914	354.16205535604
1	1653	97107.793234646778	323.36708091878
1	1673	98066.433375631065	173.59373665802
1	1681	98131.108944922399	49.55250270255
1	1703	98866.467719535578	66.464981198972
1	1755	102639.116532932008	0
1	1780	103612.449589702378	51.519885967004
1	1789	104065.662515001002	0
1	1806	105338.357942221722	847.66015565655
1	1833	107753.284674910852	0
1	1859	109232.171513038026	0
1	1868	109935.480778625452	0
1	1876	110000.341915734487	0
1	1885	111120.272279933507	29.09869591423
1	1902	111779.077891394477	0
1	1910	111930.617788773667	0
1	1919	112761.53200660387	0
1	1944	113268.857509801918	0
1	1956	114060.111941892979	171.97597416869
1	1969	114373.668182254921	108.30867169469
1	1989	115573.402948497927	229.77094015625
1	2003	115967.605628026578	168.73329713465
1	2034	118296.387852195869	1364.1315492954
1	2039	118449.673393992769	1189.2747640519
1	2044	118514.259221222185	619.78745829096
1	2081	119340.433706661197	295.89404258513
1	2086	119517.595008683737	386.27403419254
1	2094	119562.74237759967	231.67456232925
1	2099	119800.618057678893	282.93408039509
1	2129	120734.887530755158	174.61321209554
1	2160	121641.865994839802	381.33542345573
1	2166	121717.015542450353	354.77281454
1	2174	122163.817568723075	540.29004608575
1	2187	122279.56972510923	12.008972990577
1	2207	122846.082542938583	7.877636438327
1	2241	124370.10905850662	952.4840798658
1	2246	124376.471806679084	613.3180959258
1	2307	127400.748996088081	638.8666409184
1	2312	127418.911321942083	575.37858651279
1	2330	128943.412570806326	0
1	2339	129885.656389005295	0
1	2377	132624.21994416192	684.63556725202
1	2392	133879.61313865216	0
1	2401	134874.250730026595	0
1	2412	135067.345197361004	154.9261617059
1	2418	135500.011346122254	488.72882862604
1	2437	136104.964853424931	228.71498013838
1	2451	136886.581925212259	389.99920653056
1	2466	137389.215037987262	346.15945036793
1	2485	138180.619812691342	0
1	2501	138480.913745622165	52.894137951094
1	2535	139793.749910601466	0
1	2552	141115.940899712177	0
1	2560	141239.136928132382	20.965581544325
1	2569	142097.275037033375	0
1	2586	142561.955064230718	72.520442031677
1	2598	143397.509171180066	727.10594829031
1	2615	144407.608261280162	745.47552881395
1	2631	144819.28768594372	226.00330035195
1	2637	145220.421471098811	486.76774832582
1	2670	146338.760566831485	0
1	2682	146737.344293460531	9.46665088232
1	2693	147259.458133496629	266.58269457954
1	2715	148292.715439206807	369.82784712353
1	2720	148528.824839706192	374.50979166414
1	2747	149224.506381218256	170.93673215718
1	2760	149477.836603668828	45.331249798687
1	2772	150419.023408669831	216.49095139185
1	2777	150438.333155912353	155.07651323737
1	2803	151413.872488074527	182.75096692398
1	2826	152591.538149441292	316.43626879698
1	2843	153483.161450724212	224.86644647915
1	2848	153791.902175945914	495.02308163642
1	2889	155159.899059134302	0
1	2903	155612.003436281523	390.71556566051
1	2915	156157.713293469174	909.60351615511
1	2920	156384.938972173106	476.18090487072
1	2965	158893.500390681414	0
1	2977	159438.652837828852	158.34422727906
1	3001	160089.777183024198	113.14688772346
1	3031	161000.553405270701	0
1	3051	164027.548241651321	0
1	3060	165015.89616073502	3.461603925056
1	3078	166338.594492229706	0
1	3092	166730.728072904085	232.67900630148
1	3097	166757.925110149434	245.82822574238
1	3103	167160.848946319401	534.74327141928
1	3119	167631.594453652362	0
1	3138	167944.436736480005	88.6501295472
1	3160	168957.920243487175	870.0469089856
1	3165	168982.706440831693	745.17570841814
1	3184	169633.080775076931	331.24322821708
1	3206	170556.171023868859	164.06856806242
1	3225	171429.711325188307	17.185336645965
1	3235	172419.161945480987	35.043866640364
1	3254	173587.688155579531	178.31157687878
1	3270	173926.865981160571	39.835656853884
1	3296	175102.028666990155	669.54414437164
1	3319	176140.716700055852	453.11895422767
1	3341	176771.33343760555	181.94345828488
1	3347	177593.276916119463	825.63002025361
1	3364	178680.914275601619	244.90765270107
1	3390	180225.953580574835	0
1	3415	181292.973756984949	0
1	3424	181986.124222303521	0
1	3439	183059.826594012329	948.37022345073
1	3444	183160.693447933651	749.00323274885
1	3476	185189.38278766429	0
1	3508	185870.448858575513	0
1	3517	186599.417378080351	0
1	3525	186666.686872301506	0
1	3534	187118.787689373362	0
1	3542	187202.966427942062	0
1	3551	188184.845888376825	0
1	3563	188877.506467641118	361.94621994803
1	3639	194906.405002848353	0
1	3647	195222.871699895674	0
1	3665	196837.481890949889	0
1	3682	197275.003912099725	95.912729688635
1	3700	199077.733360135244	0
1	3709	199772.047876972504	567.76665259662
1	3720	200247.001162827602	462.75834055322
1	3730	202095.783550213993	1643.956294127
1	3738	202187.270461333994	39.764527111435
1	3760	202449.159887298058	1.192757277299
1	3780	203755.848053078513	461.47202754383
1	3794	204189.862354844502	0
1	3802	204319.967236561773	25.323788771249
1	3810	204657.616576208763	320.7739891799
1	3852	206417.636275563186	190.99705625463
1	3870	208161.533922634315	0
1	3887	208625.146091711897	36.612998305301
1	3913	210393.132273920305	0
1	3930	211135.73328752021	0
1	3938	211204.566473248694	12.762671110184
1	3966	214378.487839362447	0
1	3982	214896.47692201569	0
1	4003	218818.843617769747	0
1	4011	219296.471947922116	444.28466586315
1	4020	219709.748367042849	0
1	4054	221786.770436083676	0
1	4063	222124.958113186659	0
1	4080	223012.460425284507	0
1	4105	224008.454968030674	0
1	4115	225615.163398939681	1251.8313308009
1	4123	225647.252849058545	30.865484551133
1	4148	227043.297819689408	0
1	4178	228893.587040310147	551.0682804167
1	4201	230813.16916634018	0
1	4210	231465.451175290831	482.72891693997
1	4247	236087.208930912726	0
1	4255	236347.383139616422	0
1	4264	236642.664409877155	51.612855114444
1	4272	236852.249572089321	3.332521001535
1	4280	237428.29535297358	0
1	4292	237551.050530377318	66.66333753327
1	4297	237593.965089964498	82.237516742213
1	4313	238271.768275283816	0
1	4338	239036.015685909758	0
1	4359	240725.480739867543	78.203920186465
1	4391	241810.713857178915	342.19155093487
1	4396	241810.807426661124	251.10821116436
1	4423	242594.471594699246	9.264127601428
1	4440	243658.11759128781	0
1	4459	244073.62074995057	29.332790060593
1	4465	244331.557886871855	259.77747641442
1	4491	246140.931438398506	264.07433154158
1	4499	246428.642388089126	0
1	4519	247192.337372994036	188.75441689807
1	4550	249318.062897212195	0
1	4570	249640.941192490066	167.15708222967
1	4575	249718.589564033817	141.00678109557
1	4591	250216.550282500822	0
1	4603	250414.655778332291	167.02977268455
1	4634	252208.040869163867	0
1	4642	252555.270409690388	0
1	4651	252913.252174908629	0
1	4668	253982.472707338126	188.36486115592
1	4714	256990.975312054485	24.424973907107
1	4732	258348.091382747748	413.04903790616
1	4740	258404.040506445641	48.276777891426
1	4757	259001.581668366531	405.17295064178
1	4771	260186.488139080319	0
1	4791	261408.793076615136	210.53867446212
1	4808	261664.039903383788	66.284002731621
1	4816	261778.878772586389	171.63025022986
1	4824	261812.043066131746	107.61525452244
1	4832	261986.391547285749	177.49381495654
1	4854	263076.846208291382	0
1	4891	264183.285421068755	98.6554325467
1	4917	266445.453128358433	436.42021925689
1	4922	266454.477751935715	297.77191206643
1	4931	267034.326557674699	226.09863960093
1	4949	268204.21417723964	1116.8751997515
1	4961	268644.972375518937	1326.1415134107
1	4966	268749.639598898118	979.19230895906
1	4978	269219.593595691549	1009.4182241606
1	5013	270161.879747355471	339.51108041792
1	5024	270619.336001499986	579.36958391586
1	5033	271046.935021271458	1004.3227456506
1	5038	271081.843559210009	787.21627012345
1	5049	271590.479693584325	1099.1716924014
1	5054	271656.628563489106	746.58004344806
1	5066	271739.671524898656	418.88760316521
1	5077	272275.278329860267	871.70314555041
1	5115	273126.326929555676	98.302754463596
1	5135	273846.222680657003	207.3266995742
1	5143	273891.358428797859	43.358962636901
1	5194	276959.037510874049	409.48181603465
1	5225	278823.750516424422	0
1	5234	279718.912045946059	411.28110399045
1	5252	280423.515358084486	68.179103200572
1	5265	280697.789453002223	145.55699303082
1	5285	282476.536311779832	0
1	5300	283069.156298981898	548.65474727551
1	5308	283461.132995409283	798.73184044898
1	5336	284466.763331449838	140.15596552858
1	5370	286374.898427170316	0
1	5379	287500.045633224234	0
1	5395	287630.241895490734	0
1	5407	288492.277335376674	844.7219119739
1	5412	288513.130716036648	426.30521392136
1	5427	289414.426583182414	269.90606570954
1	5435	289620.463702468498	64.246431998449
1	5454	290750.894003921165	381.26612107862
1	5484	291555.896555735741	342.80470035282
1	5495	291676.561865094286	71.048659674486
1	5504	292516.070181972436	861.14324877473
1	5527	292959.743037005989	29.872341922967
1	5539	293658.625126751678	539.74923260336
1	5556	294322.841824725166	422.55043375025
1	5570	294871.800349756776	125.43870674782
1	5619	296436.134981072588	351.83642803404
1	5624	296534.024573808898	257.01765616791
1	5636	297097.006838683814	486.33389891198
1	5641	297408.403010874233	384.5588586918
1	5675	298391.356432000717	24.074889285763
1	5696	298907.702220640034	19.044472956872
1	5714	300428.401851465911	80.802745719491
1	5739	301472.687085920951	193.73087346071
1	5747	301643.476254499893	49.114336282221
1	5756	301747.988123379425	33.657630124665
1	5776	302878.702316780773	650.00379035546
1	5784	303053.970948580249	368.99123202279
1	5798	304027.12151315542	0
1	5827	305691.359951147634	583.32206818133
1	5836	306577.199484361502	1006.7969334401
1	5845	306866.030585703488	900.3442757082
1	5853	307188.412652453825	57.895841220614
1	5869	307662.832377943893	166.34476063066
1	5878	308053.539402629466	220.96763334657
1	5941	309843.901566212082	0
1	5958	310982.507600738924	0
1	5967	311265.077485899699	117.32595239105
1	5975	311522.821425113448	0
1	5995	312498.456409834773	268.04226116526
1	6009	313154.170783132155	0
1	6026	314171.24847968086	0
1	6034	314242.580140579176	60.489339177631
1	6051	315432.332016171454	14.084478491378
1	6077	316391.862043404636	0
1	6085	316761.650042713813	0
1	6105	317448.584713506891	69.736275762814
1	6114	318208.117251043505	760.59618894135
1	6119	318251.867801600929	333.48033856453
1	6127	318614.837668114413	175.95763539252
1	6170	320590.613235236195	198.76326478478
1	6189	321135.558559099773	268.00959433705
1	6198	321498.800665324966	425.96804019399
1	6228	322369.032166158611	380.05828156914
1	6236	322682.253090646607	24.418566550548
1	6244	322907.661308872014	0
1	6256	323289.812879458569	116.36909688773
1	6264	323529.768227731755	289.64294377117
1	6273	324362.047384665824	905.98277262995
1	6297	325194.044015311065	1314.1299743179
1	6306	325873.77391992958	1348.5606196241
1	6314	326420.130809650629	1482.6346926614
1	6319	326568.58043268044	1382.2621763366
1	6353	328650.869932000956	232.22422387229
1	6415	332236.992609380254	0
1	6444	333836.624902385747	572.18285668698
1	6449	333908.481952010634	514.50609400035
1	6466	334737.296489945013	0
1	6484	336180.844911464421	0
1	6509	337672.211407941207	0
1	6530	338746.681753595477	563.04700563563
1	6553	340936.538323451379	0
1	6580	343002.568400064303	0
1	6588	343578.726343585377	0
1	6612	344719.473327950294	866.59722003501
1	6620	345075.711890909374	797.86944454129
1	6625	345103.361937777956	36.556983009729
1	6634	346047.888866900124	440.64927352624
1	6669	348145.785694669971	364.64156285594
1	6689	348878.948361966379	120.2840464295
1	6697	349152.773134745641	341.51381749312
1	6704	350676.373119477417	1769.170661596
1	6734	353330.754280469906	596.10899682404
1	6745	353914.820503782124	514.93029814074
1	6751	354625.243087771088	1021.152212675
1	6787	356428.25867495932	0
1	6795	356545.007393412681	37.77648022581
1	6814	358840.605283320643	0
1	6859	363334.911322036657	0
1	6877	364359.517775328249	0
1	6886	365166.015223991648	0
1	6902	365525.694165383946	5.082344338024
1	6920	366953.730860784233	0
1	6928	367297.432195110191	0
1	6936	367470.868328972449	0
1	6962	369018.93613793253	327.17475627272
1	6979	370003.875312786948	0
1	6988	370794.027872347494	0
1	6996	370943.086548481905	0
1	7005	371994.375142371717	0
1	7014	372245.086531176631	0
1	7022	372700.736630880595	0
1	7031	373338.701526239032	0
1	7045	373594.331772031736	246.64440651432
1	7096	375774.714647816965	314.30646338868
1	7104	375914.769375488586	400.9764923864
1	7123	376359.6758523244	0
1	7157	378385.318644127954	0
1	7166	379183.522373546913	0
1	7183	379457.563747562773	221.64313428431
1	7207	381524.049753628042	939.04415095127
1	7232	382810.396360171581	449.20750052176
1	7251	383925.067822323237	98.21559580198
1	7263	384319.675103473909	217.11840854698
1	7276	384600.787036344237	0
1	7288	385188.705319740642	340.99353745729
1	7296	385211.041496621244	58.694455373586
1	7332	386565.081613197639	167.7450539277
1	7341	386989.918445619194	507.96854317111
1	7356	387649.41575249359	1092.1895451541
1	7364	387731.874072411292	517.43399791476
1	7369	388007.01767983115	759.39258612791
1	7389	389000.889930595233	271.11472658471
1	7398	389161.583764264427	120.32881544301
1	7413	390227.87676538202	443.1821400943
1	7424	390620.518941370953	550.26929178153
1	7433	391450.077723829979	930.47571007837
1	7441	391634.937740965676	641.02804904736
1	7453	391982.020152616388	412.40666308352
1	7478	393077.38094455382	83.640310813489
1	7520	393714.604715799586	75.152988950926
1	7535	394633.127766511098	824.53855267719
1	7540	394721.652760212974	577.28997562284
1	7548	395129.619686010123	402.30663505263
1	7557	395578.325142439719	273.8199609532
1	7566	396050.336646179462	136.42810262147
1	7620	398097.225327425494	0
1	7632	398882.212563238947	737.0349507926
1	7663	400199.80904243638	252.41550035608
1	7675	400399.778711527075	37.527825722928
1	7703	400985.78774379022	36.803944119587
1	7740	403748.480079767363	896.92700164237
1	7745	403948.962570835146	924.57128195568
1	7750	404102.252877102413	968.43421136252
1	7755	404231.947425483428	621.50059668705
1	7776	405230.074544466748	356.26146144988
1	7795	405901.74409760615	219.5852909247
1	7817	406503.208085182523	265.43212193976
1	7839	407330.047958251888	0
1	7865	409122.740529090711	0
1	7882	409757.577703557207	120.68903698625
1	7896	410000.991072762407	195.2041271979
1	7904	410146.34891627545	299.24826766066
1	7909	410402.07918203356	339.70744738192
1	7948	412216.518979579757	190.9089525568
1	7965	413124.010287517043	428.51433007997
1	7975	414432.172835478825	0
1	7983	414616.969240029266	0
1	8008	415465.117676641938	4.135096340453
1	8020	416474.848102249621	746.03020129763
1	8049	417734.938549821984	100.64335138183
1	8063	418466.308491000131	288.18285533513
1	8087	420498.924744283245	809.63784586004
1	8120	422195.481280354983	0
1	8129	422715.555091217656	0
1	8145	423136.869635420469	0
1	8157	423858.295243147151	560.47115726892
1	8172	424783.866452581039	1243.9848811638
1	8181	425369.643863814419	1388.5862933129
1	8186	425561.090401230551	1368.1050569799
1	8191	425689.727343124061	1405.4297738636
1	8241	429393.677744190321	1464.1489414015
1	8250	429787.302687674835	1812.7295749963
1	8258	430204.395268644729	1466.542540183
1	8270	430938.481594751911	1496.6780705604
1	8279	431381.443733159967	1017.1601394483
1	8308	432003.341327343001	96.675915313579
1	8342	433255.124841990472	725.68214959564
1	8361	434522.306115909048	329.72092627913
1	8378	434999.325118388398	6.633504406665
1	8400	436030.315220358521	0
1	8436	439048.226840440269	0
1	8444	439393.961335381347	0
1	8452	439635.096810912139	0
1	8461	440266.34140479215	558.93223509343
1	8469	440393.728631131176	93.627085484123
1	8486	441427.598832579033	0
1	8495	441842.527735198393	0
1	8520	443144.780437479778	228.12142859056
1	8529	443430.043070054637	19.916697977096
1	8537	443668.748779046887	0
1	8566	445072.212371729571	26.453478325921
1	8606	447253.766293159687	2125.9048159121
1	8612	447743.23861190719	2534.8264613323
1	8617	447923.893140674747	2377.7085418171
1	8632	448621.972487758713	2724.0465638146
1	8647	449760.402438925537	3708.3126624209
1	8655	449820.659090742146	3159.4748329628
1	8660	449867.06951906335	3090.3463634715
1	8666	450044.207597096382	1363.2256441173
1	8671	450562.757789102936	1633.8950426831
1	8676	450815.06026604903	1454.713147187
1	8682	451018.481851367179	1257.2998075956
1	8747	452634.698986141524	398.21386201152
1	8752	452678.330724330671	90.298304700303
1	8760	452999.815011190764	222.37441087632
1	8829	455745.291847696225	239.08146353178
1	8846	456057.948555606685	137.06669205702
1	8873	457399.451488090478	0
1	8900	459980.692992174199	0
1	8915	460516.346518525739	154.70019593712
1	8920	460678.73622636428	192.61662517267
1	8953	463865.465067261104	0
1	8961	464079.011734910256	0
1	8970	464738.92163323344	242.27760004583
1	8996	467085.134767275199	0
1	9024	469805.219222653478	0
1	9032	469959.482138455588	75.279915911241
1	9059	472604.104707841731	0
1	9069	474258.863371110955	0
1	9077	474639.164563612072	186.03800697922
1	9088	474854.532662947897	76.068075979649
1	9120	476753.978464393841	0
1	9128	477386.810702368092	0
1	9152	478443.067660554609	224.28299852121
1	9157	478593.361820008824	243.42865949804
1	9165	478939.245522908527	91.335649522006
1	9195	479832.77012826779	0
1	9204	480608.149522343415	0
1	9229	482236.213723133147	1324.7159390292
1	9234	482335.784546734145	1388.8516458622
1	9243	482707.671218980119	1404.674669461
1	9251	482803.016597093615	808.26088552425
1	9259	482930.045126435089	40.859047745457
1	9303	485135.569256030728	45.32629762026
1	9341	488105.754129597279	0
1	9349	488254.333788946576	83.45494347737
1	9367	489840.412692836052	167.59780152584
1	9384	490342.727607132661	0
1	9400	491097.56425638777	0
1	9417	491798.360347398504	0
1	9444	493948.287381493533	0
1	9461	494656.424256419616	0
1	9469	494794.47225961087	34.215582475855
1	9494	496063.017581387569	0
1	9512	496553.228805529847	173.56453876421
1	9517	496779.544446804314	374.34280577805
1	9528	497042.711019573524	624.75717113319
1	9553	498565.960774519838	2109.4810629597
1	9558	498751.848370850608	1887.8324315335
1	9564	498885.310695325228	1748.6210629426
1	9581	499367.572624083155	1356.0243390246
1	9589	499401.652693823605	1265.9069157476
1	9598	499990.638772934558	1830.5408209313
1	9603	499991.875709621618	735.14045070145
1	9611	500273.6019070173	930.50974366427
1	9616	500508.715205817869	737.88285395028
1	9645	501434.966400239483	110.87593264098
1	9672	501968.235586008964	428.00404105619
1	9680	502168.582023896376	333.06713632535
1	9700	503034.370857306362	22.041592844645
1	9727	503996.24422540051	68.144938968369
1	9754	505875.579728553798	478.56333539367
1	9772	506523.324028622497	64.177294439157
1	9781	506646.84442752045	50.229555358175
1	9797	507295.437324229917	309.57192976012
1	9802	507342.806564606358	310.98957105545
1	9816	507821.255998880482	385.09247959667
1	9835	508254.615803690386	217.78767126621
1	9904	510920.11721030442	65.911433219696
1	9920	511445.997595143385	180.05829527158
1	9956	512557.52617163596	177.50989721792
1	9962	512588.717917015102	68.741228572797
1	9970	513126.404068000659	0
1	9990	514047.907850895077	689.59036867664
1	10007	514708.599086236425	239.79260246177
1	10015	514785.146471301322	212.27130392753
1	10020	514785.33153576344	18.696878637683
1	10029	515307.390842363928	0
1	10048	515840.219977410138	124.76703518259
1	10075	517890.743058004842	367.55993652648
1	10103	519069.564353410261	518.11513378729
1	10108	519083.911252708646	473.5726299556
1	10113	519209.864981034256	472.69315304719
1	10124	519363.563224029617	118.54339787207
1	10138	519676.607772542003	0
1	10156	520389.04104848943	152.22305166935
1	10169	520586.727842526987	108.60818394705
1	10202	521657.701252108886	81.703813371479
1	10224	522527.829565813706	44.682430825225
1	10236	522915.858142295893	345.61005502273
1	10251	524015.157955458729	1217.3349070939
1	10256	524106.890531992461	236.24353481453
1	10261	524181.69102818759	280.56751302113
1	10269	524197.289880472792	192.35026596487
1	10283	524514.488126908322	278.06510033852
1	10342	527197.591710086632	103.25323720191
1	10373	529094.79595028793	0
1	10391	530941.190587027741	0
1	10407	531384.604902127833	259.45714293019
1	10417	532481.15105184058	0
1	10438	533408.191898636154	649.52419074972
1	10443	533499.534077279831	577.67957016484
1	10448	533553.841620183938	163.83925791549
1	10466	533892.467113603916	92.438685197688
1	10484	534262.049025243855	146.03974718893
1	10489	534373.23824498824	255.02501051136
1	10494	534385.765363680857	212.77446774483
1	10499	534395.535597994334	151.71676172053
1	10507	534715.911754912082	174.54417905766
1	10532	535540.587110393183	69.308227379412
1	10581	537133.812917966495	463.40192655373
1	10593	537967.958630562963	232.2453779281
1	10629	539258.655224942333	589.77412294111
1	10634	539281.076298133051	219.57322430573
1	10642	539826.582294668027	424.45112111598
1	10651	540494.653228863703	353.66166948956
1	10702	544272.332142560868	0
1	10711	544774.160474361213	426.35999188192
1	10720	545678.306785153322	0
1	10746	547266.540515119308	0
1	10754	547508.47142950464	0
1	10763	548367.38871819823	0
1	10771	548416.575781562136	48.961149759492
1	10783	549098.495054075188	649.00047393517
1	10800	549290.286878641542	125.69879095746
1	10819	549927.443226702956	95.976614421968
1	10845	550741.059179012021	287.87257557459
1	10867	551275.583791463812	7.42583905973
1	10907	552329.579182431124	196.45771027903
1	10915	552712.243095396108	17.318813615917
1	10927	553184.611008635985	398.99162815854
1	10932	553269.142171358749	271.40468025267
1	10954	554382.682445553133	0
1	10963	554699.441610451958	0
1	10974	555223.293475612353	170.40557804409
1	11013	556979.742773833263	0
1	11030	557513.839026794486	25.57538733065
1	11047	558270.508330583927	603.79267318045
1	11056	559076.634420836752	638.62492521899
1	11073	559571.479999679542	310.24635269368
1	11081	559626.848070179058	103.30786121917
1	11090	559951.11664032979	404.25885686186
1	11130	561357.648167558423	0
1	11139	561844.469910527795	0
1	11164	562705.127194496785	0
1	11183	563043.294719384545	125.51343898243
1	11217	564795.447879278489	394.53515574553
1	11240	565930.648944306941	0
1	11248	566213.417763972783	185.50068416426
1	11265	567144.745946529535	0
1	11274	568105.237146095458	0
1	11292	569179.475550732675	0
1	11312	570056.148648211166	443.48343235775
1	11334	571146.668279893585	0
1	11350	571630.296054103756	0
1	11363	572597.960226365594	355.37028100703
1	11380	573223.624002561517	692.03728842676
1	11392	573803.831477122935	1101.5973078948
1	11397	573978.385715031197	1141.7149034966
1	11402	574084.327758343151	510.66057567333
1	11451	575476.556534642186	0
1	11486	578319.907786553706	0
1	11511	579285.153234939716	0
1	11520	579854.853649673141	0
1	11537	580770.007784174293	0
1	11546	581711.923931558633	0
1	11554	581878.116820760239	0
1	11573	583491.083051077299	1528.3818244629
1	11578	583712.416849466753	660.65918370905
1	11584	583812.597524565946	469.03282659604
1	11602	584748.146210623521	115.06618245744
1	11617	585718.190840671527	171.24956616704
1	11666	588297.259155689448	0
1	11675	588929.135627462661	0
1	11698	590115.650412095887	563.42429640892
1	11710	590784.397350860604	781.58001842468
1	11715	591107.538008957572	986.2404908802
1	11737	592227.031236256379	713.60829021397
1	11754	592829.821221979641	317.51570488398
1	11768	593284.348468307683	0
1	11789	594643.064578943139	929.32486774322
1	11794	594660.434259943907	649.46419557592
1	11802	594748.086752943443	487.1506646149
1	11814	595171.568798480058	475.68863174903
1	11825	595549.390714225823	500.14588823044
1	11830	595564.082679017277	460.20723206758
1	11836	595895.429101408304	662.28203100085
1	11847	596020.434270515491	50.112802860324
1	11858	596570.088706257954	251.46586022146
1	11873	597437.671642320832	826.15528967257
1	11917	599244.097611716242	152.46896084067
1	11935	600092.575741526859	918.77104402443
1	11946	600486.357823863739	777.79201451305
1	11955	600949.786577915186	1148.7935120515
1	11960	601045.025672265398	926.26289127511
1	11971	601542.355144177734	332.72522762229
1	11980	602214.490295723945	930.55501801609
1	12009	603146.453586129241	425.60487568744
1	12024	604099.617605717579	1093.9204722378
1	12032	604264.670367189253	183.19324553531
1	12047	604806.613583317319	512.78687296327
1	12052	604992.914730683952	259.24301134365
1	12064	605252.404805757216	116.78151649483
1	12106	607227.668468287961	123.1000524872
1	12123	607739.495135427759	280.84871987996
1	12179	609528.853328043055	29.963684049045
1	12256	613863.688040699671	0
1	12264	614421.185797987651	0
1	12273	614865.040214407063	0
1	12281	615089.865758847784	121.19792417759
1	12301	618268.897093889295	278.93154215018
1	12326	619406.316797601294	344.6894711853
1	12334	619570.100026247877	103.67610192996
1	12343	619954.915265974891	0
1	12360	620941.654826626366	0
1	12387	622798.918137243515	146.68637240935
1	12392	622830.882523407484	144.33722946578
1	12422	623862.695235146271	127.18617953253
1	12437	625253.287384819406	0
1	12454	625803.692155170998	0
1	12463	626606.221041904132	0
1	12489	628865.162732768397	0
1	12533	631951.150293011682	0
1	12542	633217.290723454823	0
1	12552	634757.301734466911	0
1	12563	634944.700749183231	135.90415494419
1	12585	636427.54561324202	1533.9673904944
1	12590	636529.965470124588	1355.1552353209
1	12602	636966.269436872286	1414.9364916256
1	12613	637547.313892027613	1382.9904438479
1	12618	637683.921930896948	1357.495760174
1	12636	638037.337842136115	1451.1344461981
1	12644	638476.107056348379	1426.4627045913
1	12650	638653.69115093371	1560.5605950554
1	12661	639032.899690650064	1009.8233298993
1	12669	639292.574050686447	1245.056733265
1	12678	639771.333608908237	1036.8181027703
1	12683	639869.84448081618	319.19054347029
1	12715	640630.209367556661	18.012491087274
1	12728	640836.428447793701	62.332100095192
1	12791	642853.566090206018	225.05952516052
1	12814	643928.982097055824	147.65045797323
1	12837	645546.227223537804	453.05207070525
1	12870	646621.272202825676	55.49870291714
1	12889	648247.106365362194	1396.3691719546
1	12900	648485.389053335575	1337.2085993061
1	12906	648875.131692812169	1640.093399957
1	12920	649582.923147904967	1342.2971150141
1	12926	649767.044197477542	1479.068912096
1	12931	649885.775733009065	710.45788994744
1	12936	650534.134428406992	1287.883415198
1	12997	652899.977507863015	50.154423843685
1	13042	657326.83844610239	0
1	13051	658182.289563026332	391.83491769554
1	13059	658291.039977786713	37.892624382336
1	13069	659951.651087101632	0
1	13086	660586.103031150909	0
1	13096	662022.047454129098	0
1	13113	662386.811871280927	353.52866788933
1	13125	662652.603726692334	560.42135932986
1	13133	662764.653403414488	189.7057523769
1	13138	662953.585889231337	311.76033283622
1	13143	662964.811386366559	257.83353887563
1	13164	663420.756134674305	19.56330128546
1	13173	663931.449050542582	414.22886797398
1	13204	664875.576741101625	351.94651038686
1	13209	664974.930466756479	188.78420209828
1	13228	665615.762503509215	0
1	13246	666465.325120361734	338.9904714686
1	13261	667249.589701661583	861.82992007741
1	13269	667711.74618375432	822.59493635487
1	13295	668727.742764066481	139.95938876333
1	13355	670535.702006909084	550.452600567
1	13372	671378.343952861766	487.23289006953
1	13380	671906.701383057098	199.41136772715
1	13394	672452.60268342237	437.61765524111
1	13409	672939.121417642106	466.15465485984
1	13414	673059.205230720278	576.08503476298
1	13435	674041.021449500783	886.82843033414
1	13440	674087.676578250779	585.2306711738
1	13460	674593.888955821121	252.07127735153
1	13513	676814.780035851599	0
1	13524	677070.508539395235	85.659330346038
1	13547	678411.005791309034	0
1	13556	679342.830158104778	0
1	13564	679654.305174779572	0
1	13576	679944.413453230713	169.50217465669
1	13581	680575.941908972887	692.71874503035
1	13598	681293.004730554814	153.60341613086
1	13610	681597.835954876674	116.4749617515
1	13623	681730.25446869687	38.452990782424
1	13631	682065.873753535405	0
1	13673	684627.517232751386	781.09257194603
1	13678	684647.807971081254	224.10435193579
1	13690	685277.383426882539	455.21430958362
1	13698	685455.952768356792	576.13790172588
1	13715	685815.385655040255	255.92446823754
1	13747	686606.78991871668	4.346426433129
1	13774	687604.421752936464	0
1	13791	688567.833063765833	0
1	13802	689026.170275047168	376.115106275
1	13808	689480.674494254063	577.97465845558
1	13832	690011.900989582696	42.517370180931
1	13848	691368.672228160266	1013.420640137
1	13876	692929.107405679386	0
1	13890	693286.173889564512	322.62278601773
1	13905	694101.268437960841	465.41672864756
1	13914	694445.280761411906	760.61237818302
1	13928	695268.571106016314	129.03162084754
1	13951	696153.632229597892	579.66197499718
1	13962	696574.92339755296	866.47436925148
1	13970	696750.624125468417	1029.2345619441
1	13995	697893.133433495365	1274.3107741198
1	14003	698049.84045772264	1073.1434799218
1	14011	698254.39090719333	1240.3553095913
1	14016	698469.047974537794	1379.6812326619
1	14025	698650.203636057675	1242.7952593328
1	14030	698780.420747386274	1276.8821899578
1	14038	699026.499730421802	1180.630741206
1	14046	699401.134481827803	1427.4831630119
1	14051	699428.42772035641	1215.4062420245
1	14057	699616.478128879034	1127.6427606711
1	14106	700913.055133279398	513.97744598694
1	14112	701206.1334125533	790.71259669354
1	14154	701833.313736969981	44.282502870634
1	14196	702500.591265787714	90.816780756165
1	14228	703150.345662296442	145.4334802966
1	14248	704022.726836199184	800.91734651862
1	14253	704043.988709462686	197.74390846183
1	14278	706622.63485832441	1367.8393063175
1	14283	706800.392910506483	1524.544477466
1	14288	706821.767699028487	471.49143854883
1	14320	708206.712232504095	171.15538242582
1	14366	710551.475531902979	135.40022493193
1	14402	712192.938685210712	55.627937771998
1	14411	712722.598826409233	0
1	14419	712923.080115022391	0
1	14439	713617.723540950282	133.76546161367
1	14462	715061.182921743863	0
1	14471	715960.939354072811	0
1	14479	716519.476042743357	0
1	14505	717764.220755293938	0
1	14525	718415.999057517075	42.103982115062
1	14556	720435.959102642071	0
1	14564	720585.255552874625	0
1	14591	722104.541975889828	663.53639201628
1	14599	722194.979620303865	88.311442115806
1	14607	722456.907414532469	46.791639121184
1	14625	723598.929838878225	313.88833244463
1	14657	724596.407984785569	1.002367375638
1	14682	725672.074258059662	0
1	14690	725908.258133038759	151.71020783072
1	14705	726416.235070530614	328.12260815809
1	14717	727001.875889747542	867.19746934023
1	14722	727139.594695740808	996.78183043819
1	14727	727566.737908948145	950.43830743772
1	14733	728387.98008202407	1578.7074628666
1	14742	728594.482860380994	141.48639543256
1	14750	728724.48704389224	0
1	14776	729648.408685174218	654.34884045349
1	14781	729804.075989057398	390.2111158395
1	14825	730634.214527908607	123.35908507111
1	14833	730942.503665226887	381.92709145742
1	14844	731149.149753802064	363.89171685852
1	14890	732441.597397505452	0
1	14899	733172.492431568412	0
1	14933	735269.363384364492	0
1	14942	735846.391677216755	0
1	14960	737432.802752599414	0
1	14969	738555.890035216382	0
1	15007	740797.84184687988	514.07325848885
1	15021	741314.574222078616	782.12564318163
1	15026	741331.177058782509	246.06514387522
1	15048	741827.602544578501	223.13976168289
1	15070	742660.111521652418	0
1	15084	743120.437829967427	114.53570018551
1	15093	743577.010834347565	514.07109600831
1	15124	745154.659376577766	274.00841638094
1	15141	745816.439668678293	558.69802838161
1	15163	746624.546541590106	0
1	15179	747202.891831243134	235.42720606112
1	15197	748523.717042769793	0
1	15205	748723.511583839576	65.023535734275
1	15222	749259.259867929949	0
1	15236	749894.882805136709	327.16499649974
1	15249	751212.161805126683	766.0168557096
1	15257	751482.317670607425	5.250514044322
1	15286	753035.649365319131	715.55251090611
1	15297	753239.881333948435	337.22275086231
1	15302	753430.289585850785	337.59538338541
1	15309	754312.336866793892	1075.1528377499
1	15320	754693.978219251716	184.80092686468
1	15348	755620.756381104422	210.91200947266
1	15353	755661.920139085234	183.93435440272
1	15410	760031.11350109743	0
1	15418	760237.441581668554	0
1	15427	760389.177404342287	0
1	15467	762598.292925159444	175.23925938741
1	15473	763240.500730093678	667.08848509135
1	15498	764252.38025649129	235.24286684691
1	15510	764665.424555728304	49.499122465675
1	15526	764828.932786922181	85.657774607118
1	15545	765725.860568368231	0
1	15557	766320.89628518055	314.39103009869
1	15562	766349.147143930822	90.551817797508
1	15570	766528.658145982955	0
1	15595	767762.52646997034	0
1	15621	769163.305717652424	0
1	15633	769770.430052451181	462.60571058307
1	15638	770247.169771676694	592.35945626132
1	15680	771676.385019367842	154.62243471255
1	15689	772390.349324518665	0
1	15700	772889.266491795303	314.42772740616
1	15714	773461.591346124716	0
1	15722	773728.81865161079	161.76114998224
1	15747	774653.364187720907	0
1	15772	775300.664923282173	28.981058209518
1	15797	776274.994755922894	0
[...]
7	13285	668437.723309537358	5
7	13298	668811.27468147393	6
7	13312	669060.549569576491	5
7	13320	669171.042511816838	4
7	13339	669835.072173548878	3
7	13345	670162.170016186736	2
7	13349	670452.268110590235	1
7	13358	670599.55285943045	2
7	13366	671364.828052816531	1
7	13378	671906.701383057098	2
7	13383	671990.551666592893	3
7	13402	672776.73376809253	2
7	13407	672939.121417642106	3
7	13412	673059.205230720278	4
7	13419	673368.48226455655	3
7	13422	673481.905712593576	2
7	13429	673852.323477942979	1
7	13433	674041.021449500783	2
7	13438	674087.676578250779	3
7	13443	674128.741701776919	4
7	13447	674249.374855846996	3
7	13453	674489.726878551191	2
7	13463	674664.201549691134	3
7	13477	675274.110393527096	2
7	13515	676841.59906372869	1
7	13522	677070.508539395235	2
7	13527	677146.374727659756	3
7	13535	677675.270798461772	2
7	13551	678951.837646183381	3
7	13559	679360.822266263594	4
7	13574	679944.413453230713	5
7	13579	680575.941908972887	6
7	13584	680621.474945853319	5
7	13588	681078.186186879481	6
7	13604	681553.260791058899	5
7	13608	681597.835954876674	6
7	13613	681620.466062497642	7
7	13626	682034.05482314006	8
7	13633	682288.564466049521	7
7	13637	682514.442646152784	6
7	13641	682881.018193470798	7
7	13646	683429.785552869512	6
7	13654	683736.735430966211	5
7	13661	684122.253096438557	4
7	13664	684387.226610967498	3
7	13676	684647.807971081254	4
7	13688	685277.383426882539	5
7	13692	685441.257624798182	4
7	13696	685455.952768356792	5
7	13701	685459.368421312121	6
7	13705	685534.170798074202	5
7	13717	685824.919108689321	4
7	13721	686006.838973086222	5
7	13750	686696.785535000189	6
7	13754	687043.209759460416	5
7	13777	687626.584472365077	6
7	13779	687890.042438907348	5
7	13800	689026.170275047168	6
7	13806	689480.674494254063	7
7	13811	689531.489911167269	8
7	13813	689745.814207695248	7
7	13821	689882.850445755527	6
7	13839	690989.653174891288	5
7	13842	691163.574978400673	4
7	13846	691368.672228160266	5
7	13851	691410.614496216983	6
7	13865	692686.46772002831	5
7	13878	692957.035928642015	4
7	13884	693085.574909918035	3
7	13888	693286.173889564512	4
7	13892	693312.6774213848	3
7	13903	694101.268437960841	4
7	13908	694367.172292731393	3
7	13912	694445.280761411906	4
7	13917	694807.43589481525	5
7	13931	695402.004869529802	6
7	13944	695874.002831926078	5
7	13953	696226.112500107189	4
7	13956	696395.068777273252	3
7	13960	696574.92339755296	4
7	13968	696750.624125468417	5
7	13993	697893.133433495365	6
7	14001	698049.84045772264	7
7	14009	698254.39090719333	8
7	14014	698469.047974537794	9
7	14023	698650.203636057675	10
7	14028	698780.420747386274	11
7	14032	698986.776025903746	10
7	14036	699026.499730421802	11
7	14040	699083.688292556642	10
7	14044	699401.134481827803	11
7	14049	699428.42772035641	12
7	14055	699616.478128879034	13
7	14060	699688.711324025859	14
7	14074	700097.250762069615	13
7	14077	700100.345913283967	12
7	14090	700280.237889668536	11
7	14100	700681.650322307861	10
7	14110	701206.1334125533	11
7	14115	701273.109799067995	12
7	14129	701397.256268525729	11
7	14137	701432.470134883505	10
7	14145	701505.36535349684	9
7	14156	701869.018883645816	8
7	14159	701889.273480728863	7
7	14163	701911.311870610205	8
7	14167	701951.770788442475	7
7	14171	702072.893998799388	6
7	14174	702265.6114973083	5
7	14182	702375.018685896266	4
7	14198	702609.534319833338	3
7	14202	702665.199344616426	4
7	14231	703184.372862448713	5
7	14238	703558.333253578585	4
7	14251	704043.988709462686	5
7	14256	704165.286293500094	6
7	14261	704949.59853803234	5
7	14281	706800.392910506483	6
7	14286	706821.767699028487	7
7	14290	707114.937173257922	6
7	14294	707163.552209755346	5
7	14297	707327.064096487924	4
7	14301	707626.992752967896	5
7	14314	708170.840989326944	4
7	14323	708215.466603160629	5
7	14327	708471.369785988524	4
7	14357	710310.874576432221	3
7	14370	710604.926731534262	4
7	14382	711345.882983983665	3
7	14391	711949.635829081617	2
7	14405	712217.35863765992	3
7	14414	712785.363813224815	4
7	14421	713117.808838348332	3
7	14426	713413.255354012825	4
7	14430	713457.464303134832	3
7	14441	714011.597866411395	2
7	14446	714110.107560553614	3
7	14465	715654.746089345513	4
7	14474	716105.881114714059	5
7	14483	716773.124292290828	6
7	14485	717034.562285154592	5
7	14494	717754.850420008107	4
7	14507	717948.590578154058	3
7	14510	717967.083463964798	2
7	14514	718284.811210162863	3
7	14528	718492.477729339764	4
7	14536	719487.509439363198	3
7	14541	719904.991703232195	2
7	14559	720525.303423244266	3
7	14568	721004.118231154591	4
7	14570	721313.147519510882	3
7	14575	721431.006871473838	2
7	14582	721837.68715761073	1
7	14585	721908.187548611708	0
7	14597	722194.979620303865	1
7	14605	722456.907414532469	2
7	14611	723024.684312611956	3
7	14618	723299.107434897566	2
7	14628	723668.485407672118	3
7	14642	724208.157637178967	2
7	14659	724730.490063768308	1
7	14663	724749.802196071442	2
7	14667	724773.449094836055	1
7	14688	725908.258133038759	2
7	14703	726416.235070530614	3
7	14715	727001.875889747542	4
7	14720	727139.594695740808	5
7	14725	727566.737908948145	6
7	14731	728387.98008202407	7
7	14740	728594.482860380994	8
7	14745	728606.976789055851	9
7	14752	728747.060616075724	8
7	14756	728820.261746827137	9
7	14760	728843.213554901903	8
7	14766	729223.732113639441	7
7	14779	729804.075989057398	8
7	14783	729906.15870600767	7
7	14787	729929.892456663058	8
7	14796	730009.808044885408	7
7	14805	730348.811367110345	6
7	14816	730559.871037594899	5
7	14831	730942.503665226887	6
7	14835	730943.087894694651	5
7	14838	730979.232234830358	4
7	14842	731149.149753802064	5
7	14847	731153.463208774283	6
7	14862	731631.688563950682	5
7	14870	731712.869453681509	4
7	14893	732586.990430354013	5
7	14902	733230.621957071243	6
7	14905	733741.747536223226	5
7	14910	733854.712650413392	4
7	14913	733867.572941935523	3
7	14937	735485.877053218047	4
7	14944	735904.068065347777	3
7	14948	736066.748642944509	4
7	14963	737600.911163084928	5
7	14973	738908.259570593936	6
7	14975	738998.387571405925	5
7	14980	739075.058743534956	4
7	14988	739538.293151881272	3
7	15009	740962.818599104042	2
7	15012	740977.321486834021	1
7	15019	741314.574222078616	2
7	15024	741331.177058782509	3
7	15029	741413.061749939462	4
7	15042	741749.470317876862	3
7	15050	742139.194649321042	2
7	15054	742150.37207104271	3
7	15078	743082.203750595482	2
7	15082	743120.437829967427	3
7	15087	743478.126083409797	2
7	15091	743577.010834347565	3
7	15096	743591.439231097896	4
7	15109	744786.242228328138	3
7	15114	744808.680214536045	2
7	15127	745206.618510428476	3
7	15131	745228.550921103101	2
7	15144	745973.677737632129	3
7	15151	746488.378428634924	2
7	15166	746644.186016230247	3
7	15168	746816.287431949932	2
7	15182	747312.460490110587	3
7	15185	747616.194612883591	2
7	15203	748723.511583839576	3
7	15208	748738.673309662265	4
7	15210	748828.093165451792	3
7	15224	749557.343295352266	2
7	15230	749777.893675661041	1
7	15234	749894.882805136709	2
7	15239	750342.013957921909	1
7	15247	751212.161805126683	2
7	15255	751482.317670607425	3
7	15260	751580.564360915393	4
7	15264	751655.434845313284	3
7	15268	751879.799592601713	2
7	15295	753239.881333948435	3
7	15300	753430.289585850785	4
7	15307	754312.336866793892	5
7	15314	754573.077017319882	4
7	15318	754693.978219251716	5
7	15322	754769.84818860035	4
7	15326	754968.29872605293	5
7	15342	755520.088025994667	4
7	15351	755661.920139085234	5
7	15356	755914.878960601413	6
7	15366	756035.010701543946	5
7	15369	756365.776388006621	4
7	15378	756919.92621099345	3
7	15413	760185.252707615685	4
7	15422	760330.113834401371	5
7	15429	760764.695851103137	4
7	15433	760946.823892138346	5
7	15441	761650.201595257287	4
7	15449	761743.725476264859	3
7	15455	762384.058050484123	2
7	15471	763240.500730093678	3
7	15476	763250.397049448996	4
7	15483	763385.293694979169	3
7	15488	763408.808022003432	2
7	15504	764645.213580815854	1
7	15508	764665.424555728304	2
7	15513	764682.490418971817	3
7	15517	764717.713930425925	2
7	15529	765015.451284074596	3
7	15555	766320.89628518055	4
7	15560	766349.147143930822	5
7	15565	766388.198053198283	6
7	15573	766539.258940473813	7
7	15575	766590.923066154383	6
7	15583	767017.791045288949	5
7	15599	768138.5186180147	6
7	15601	768268.988866915028	5
7	15606	768402.581568455767	4
7	15631	769770.430052451181	5
7	15636	770247.169771676694	6
7	15640	770523.808815869017	5
7	15644	770681.931956209454	4
7	15648	770737.44469151797	5
7	15657	771145.391178232542	4
7	15661	771452.393394834823	3
7	15683	771684.578426912072	4
7	15694	772672.884325397326	3
7	15698	772889.266491795303	4
7	15703	772999.225205506534	5
7	15720	773728.81865161079	6
7	15725	773890.237817283421	7
7	15727	773944.52060601979	6
7	15736	774319.503178671407	5
7	15751	774903.039427258581	6
7	15753	774916.835371232539	5
7	15761	775135.115532090916	4
7	15774	775476.92583368748	3
7	15779	775778.409904270515	4
7	15783	775908.54751778679	3
7	15800	776492.394821802349	4
7	15803	776980.302226595855	3
7	15808	777107.956991511264	2
7	15817	777513.213509710727	1
7	15835	778368.112910744289	2
7	15844	779434.192317377864	3
7	15846	779915.972544914048	2
7	15856	780923.001216991255	1
7	15877	781825.910956204715	2
7	15881	781864.532333692243	1
7	15885	781980.63595394296	2
7	15890	782303.604787000568	3
7	15898	782634.01525209505	2
7	15910	783093.430108891757	3
7	15915	783209.287028909595	4
7	15929	783489.504913877638	5
7	15937	783948.711919755135	6
7	15945	783977.769330330928	7
7	15947	784051.061834492551	6
7	15956	784536.254313054648	5
7	15964	784808.669617029307	4
7	15973	785186.79135963698	3
7	15986	785378.370655305328	2
7	15990	785538.12706011351	3
7	16003	785962.679553588785	4
7	16006	786769.168937559336	3
7	16015	787064.259987665491	2
7	16029	787359.324916384418	3
7	16038	787990.258871383725	4
7	16040	788414.620572638341	3
7	16058	789216.801146475549	4
7	16067	789470.450582344414	5
7	16072	789569.396112781054	6
7	16074	789604.324444317475	5
7	16088	789806.556630172745	6
7	16091	790371.645262090726	5
7	16104	790961.037168402692	4
7	16109	791326.324046165708	5
7	16113	791467.957524907519	4
7	16119	791606.537735529054	3
7	16122	791741.741259292497	2
7	16132	792324.981827349927	3
7	16137	793231.303864631816	2
7	16140	793264.332883472733	1
7	16153	793810.093971103874	2
7	16180	795351.099496589265	3
7	16185	795731.848801196075	2
7	16189	795823.89723681423	3
7	16193	795867.555658579619	2
7	16197	796425.358533179252	1
7	16227	799041.833902560131	2
7	16236	799931.482333307922	3
7	16244	800554.105692808656	4
7	16252	800896.154842108724	3
7	16259	801199.334181175817	4
7	16263	801211.154782910136	3
7	16266	801395.513173529484	2
7	16270	801581.964141352418	1
7	16274	802553.144136449088	0
7	16281	802748.450157465911	1
7	16286	802919.191155800485	2
7	16290	803057.323385530602	1
7	16303	803408.697722538921	2
7	16330	805467.767077237302	3
7	16335	805554.640535335737	4
7	16340	805902.421570308534	3
7	16344	805972.02334074494	4
7	16349	806055.284173856018	5
7	16354	806114.112931077904	6
7	16358	806121.89842083476	5
7	16370	806407.320254274433	6
7	16375	806657.376089141899	5
7	16393	807163.262060104568	4
7	16402	807596.184345107761	3
7	16413	807797.433171777325	2
7	16422	807986.093843750342	3
7	16426	808153.647649405179	2
7	16440	808838.072430446116	1
7	16466	809577.791105389953	2
7	16471	809628.767333273849	3
7	16478	809797.238404332017	2
7	16482	809798.120485684122	3
7	16487	810176.92864241525	2
7	16490	810352.297139852346	1
7	16513	811342.133980897917	2
7	16515	811343.467937741134	1
7	16534	813350.645855997577	2
7	16540	813828.363024937434	3
7	16548	814610.533819350867	2
7	16552	814703.7659049938	3
7	16559	814711.194873455202	2
7	16576	815020.270010514552	3
7	16581	815033.200457151908	4
7	16593	815748.949643494427	5
7	16600	815907.179190176269	4
7	16604	816472.835128071157	3
7	16609	816896.686187933669	4
7	16614	817135.115107382369	5
7	16630	817414.28933283018	6
7	16638	817660.584595441062	7
7	16643	817697.961817849291	8
7	16648	817740.657465337882	7
7	16651	818226.338923364839	6
7	16668	818837.999771953531	5
7	16672	819056.945253234871	6
7	16676	819129.372788404047	5
7	16698	820161.098212576448	4
7	16702	820248.755482094402	5
7	16710	820499.832126159475	4
7	16718	821117.926192482064	3
7	16724	821311.665407640617	2
7	16736	821681.358881526462	3
7	16750	822672.175277374771	4
7	16752	822801.038818937689	3
7	16767	823274.933478469967	4
7	16776	823744.573536327745	5
7	16787	823824.00941473191	6
7	16792	824161.030744256346	7
7	16794	824224.057378129949	6
7	16799	824337.523891165667	5
7	16811	824684.056627722566	4
7	16829	825553.365683729158	5
7	16833	825646.040667892322	4
7	16837	825699.628187709365	5
7	16844	826231.424870468035	4
7	16859	826665.447091404964	5
7	16867	827222.034003587655	4
7	16871	827739.786315462729	5
7	16884	827972.933797922274	6
7	16893	828590.896294955942	7
7	16895	828868.478733629086	6
7	16901	828935.24940668057	5
7	16910	829071.343150568777	4
7	16913	829187.795327990582	3
7	16923	829917.348851137732	4
7	16928	829976.596976130953	5
7	16941	830333.767520606545	6
7	16963	831098.86669615862	7
7	16968	831136.616576439102	8
7	16970	831175.754621876072	7
7	16975	831308.424591514622	6
7	16984	831596.185154311576	5
7	16995	832277.694306764083	4
7	17004	832490.359752094884	3
7	17018	832931.29388322099	4
7	17021	833636.544983537984	3
7	17036	834387.140685501016	4
7	17044	834710.663507779536	5
7	17047	835299.784328143164	4
7	17052	835711.448874321296	3
7	17064	836027.319251293699	2
7	17067	836042.572058608213	1
7	17075	836272.890605876485	0
7	17079	836503.235948699431	1
7	17104	837822.338438584544	2
7	17115	837973.479706197185	3
7	17130	838314.88679908153	4
7	17135	838375.677597884457	5
7	17140	838625.879582366816	6
7	17148	838999.202326350281	7
7	17152	839003.19377623391	6
7	17156	839053.63414647901	7
7	17161	839159.946580087444	6
7	17164	839165.143420539696	5
7	17181	839544.15994888695	6
7	17185	839594.488705312811	5
7	17188	839625.296804683883	4
7	17208	840593.304892253503	3
7	17212	840930.827717048957	2
7	17219	841407.059707639893	3
7	17225	841771.321642961257	4
7	17229	841821.706144951555	3
7	17238	842214.872278390781	2
7	17242	842496.201893683092	3
7	17247	842582.153904577499	4
7	17258	842729.332828510595	3
7	17261	842843.858465787861	2
7	17265	843012.947165310577	3
7	17274	843789.551486032611	4
7	17280	844758.173981968209	5
7	17285	844786.500231928845	6
7	17294	844978.757198709129	5
7	17298	845346.485593954226	4
7	17322	846362.429699030471	3
7	17354	847648.562752000873	2
7	17358	847792.435771977453	1
7	17362	847821.40157751147	2
7	17374	848379.589154819908	1
7	17378	848543.895503520909	2
7	17382	848546.313458995148	1
7	17406	849499.059802581084	2
7	17414	850844.90414138855	1
7	17425	851521.156525724498	2
7	17433	851638.001779678936	3
7	17438	851697.141978681646	4
7	17442	851772.394465951026	3
7	17446	851804.097585162212	4
7	17464	852140.288793802529	3
7	17468	852233.835492027939	4
7	17472	852310.46867736616	3
7	17483	852741.82395230572	2
7	17498	853422.812948441197	3
7	17513	857163.231187201031	2
7	17517	857473.504379976936	3
7	17521	857619.548757540424	2
7	17525	857891.300399892637	3
7	17538	858135.951682074825	2
7	17552	858711.877104091317	3
7	17555	858916.425187598708	2
7	17563	859244.911063035971	1
7	17577	859727.267684632479	2
7	17581	861260.891458756949	1
7	17596	861857.801758062067	2
7	17599	863088.965671852595	1
7	17615	864110.026055964595	2
7	17630	865062.977909089519	3
7	17635	865094.477704450513	4
7	17648	865721.072308404006	3
7	17652	866092.277393704835	2
7	17656	866227.833045968377	3
7	17661	866293.599529538339	4
7	17667	866815.804754762864	5
7	17672	866943.685747117211	6
7	17681	867289.418462449101	5
7	17694	868946.119773748062	4
7	17703	869625.112581577844	3
7	17712	870027.535424727855	2
7	17720	870344.761621922181	1
7	17734	870805.840636767826	2
7	17737	871103.630395653331	1
7	17752	872066.151432902269	2
7	17760	872532.496215314299	3
7	17770	873566.197641129943	4
7	17772	873606.723625981155	3
7	17787	874439.792057176382	4
7	17789	874727.787100491807	3
7	17800	877344.091742630357	2
7	17817	878028.852615358747	1
7	17821	878239.383569526393	2
7	17826	878271.307288608232	3
7	17833	878342.251889102754	2
7	17846	878687.174069916706	3
7	17851	878840.110270870913	4
7	17858	878991.755547795605	3
7	17872	879128.576924287604	2
7	17882	879760.217101966723	3
7	17887	879813.893362944519	4
7	17891	879907.567585538541	3
7	17895	880079.29269921465	4
7	17899	880173.059316751155	3
7	17906	880426.810801172241	2
7	17919	881680.759943010475	3
7	17924	881817.249975924785	4
7	17942	882358.327811245282	3
7	17945	882418.028788699415	2
7	17949	882489.579864975621	3
7	17974	884395.710018361518	4
7	17976	884478.751330005025	3
7	17985	884885.285376226279	2
7	17999	885136.144925318099	3
7	18001	885184.262042812856	2
7	18015	885474.248768673848	1
7	18019	885615.575490652678	2
7	18036	886434.972704384364	3
7	18041	886693.239685080261	4
7	18052	886997.598494284379	5
7	18058	887430.287565112256	6
7	18060	887816.703500407002	5
7	18066	888027.949944434192	4
7	18077	888429.628770857265	3
7	18082	888781.656351084106	2
7	18094	889058.682667323889	1
7	18109	890239.302334118741	2
7	18111	890294.632934066417	1
7	18125	890726.337598054132	0
7	18130	891511.844161520839	1
7	18134	891712.314498882225	0
7	18152	893150.891164918636	1
7	18155	893366.077117533905	0
7	18169	893843.012210003559	1
7	18178	894702.776052899057	2
7	18181	895245.600083618435	1
7	18196	895834.426668529297	2
7	18205	897103.846100836842	3
7	18208	897448.725118754073	2
7	18223	898391.004998206569	3
7	18230	899061.905380031176	2
7	18233	899138.637773648576	1
7	18238	899251.582947071574	2
7	18255	899469.728029440405	1
7	18259	899475.861211950271	2
7	18272	899848.486810416109	3
7	18276	901192.264425324689	2
7	18295	902731.885675873562	3
7	18299	902764.836840507564	2
7	18306	902830.029248827286	3
7	18311	903239.913563614384	4
7	18319	903784.25841459988	3
7	18327	904067.319013041355	2
7	18332	904230.460393348723	1
7	18345	905183.769090417559	0
7	18363	906434.756673477011	1
7	18368	906443.900051010656	2
7	18377	907499.477936693186	3
7	18386	908268.573480012277	4
7	18388	908276.001443162458	3
7	18393	908344.591640938619	2
7	18407	910452.081362900728	1
7	18422	911725.265416683867	2
7	18425	912323.910953115342	1
7	18433	912746.828863163879	0
7	18443	913122.570308043449	1
7	18457	914089.557024460562	2
7	18468	914805.324151771398	1
7	18472	914830.973563145368	2
7	18486	915380.430877520625	3
7	18492	915558.626774018666	4
7	18509	916489.731574048139	3
7	18512	916548.152104252085	2
7	18515	916665.225587501693	1
7	18519	916816.443994809088	2
7	18524	917036.688582910801	3
7	18529	917065.544466346953	4
7	18535	917196.731705506092	5
7	18540	917294.748363736714	6
7	18545	917324.346304100887	7
7	18549	917825.637808955153	6
7	18567	918152.665031206811	7
7	18571	918529.874239405334	6
7	18574	918627.193600829853	5
7	18587	919194.297567863642	6
7	18596	919505.30227390433	5
7	18619	920626.223221422958	4
7	18624	920659.695495346091	3
7	18641	921234.830360056136	4
7	18648	921358.813910492554	3
7	18652	921389.472995706882	4
7	18660	921881.941373948742	3
7	18665	922183.389293807811	2
7	18668	922303.756996324999	1
7	18691	922716.634693496612	2
7	18701	924270.894195894595	3
7	18703	924296.448722528982	2
7	18718	924928.240231785216	3
7	18720	925312.981920414335	2
7	18735	926340.860121040264	3
7	18737	926416.6913560723	2
7	18747	927821.192338338614	1
7	18757	929410.867136313189	0
7	18774	931948.279918184473	1
7	18782	932484.682147905675	2
7	18786	933835.070895045713	1
7	18801	935034.610417987545	2
7	18804	935210.012475592031	1
7	18819	936330.852207867769	2
7	18821	936448.874540446094	1
7	18831	938213.820180575752	0
7	18846	938787.78741746373	1
7	18856	940880.714818734494	2
7	18865	942293.954616143907	1
7	18869	942397.845023679162	2
7	18882	943359.570271472129	1
7	18885	943419.96478247077	0
7	18889	943601.731854860454	1
7	18903	944084.528046400188	2
7	18919	944572.779851825724	3
7	18928	944813.460387940321	4
7	18933	944943.933489313326	5
7	18936	945593.074802447637	4
7	18941	945633.425741287072	3
7	18949	945748.558078069201	2
7	18962	947354.256010679211	1
7	18971	948441.739722311116	0
