version 2
run QueueMeasurement-54-20170105-15:37:40-4735
attr configname QueueMeasurement
attr datetime 20170105-15:37:40
attr experiment QueueMeasurement
attr inifile queueStudy.ini
attr iterationvars ""
attr iterationvars2 $repetition=54
attr measurement ""
attr network SimNetwork
attr processid 4735
attr repetition 54
attr replication #54
attr resultdir results
attr runnumber 54
attr seedset 54
param SimNetwork.a.parkingLot.parkingDelay exponential(45min)
param SimNetwork.a.runway.landingTime exponential(5min)
param SimNetwork.a.runway.takeoffTime exponential(5min)
param SimNetwork.a.runway.throughputCheckInterval 14.286min
param SimNetwork.wg.interArrivalTime exponential(14.286min)

vector 0  SimNetwork.wg  responseTime:vector  ETV
attr source  responseTimeSignal
vector 2  SimNetwork.a.landingQueue  queueLength:vector  ETV
attr source  queueLengthSignal
vector 1  SimNetwork.a.landingQueue  queueTime:vector  ETV
attr source  queueTimeSignal
vector 7  SimNetwork.a.parkingLot  parkingOccupancy:vector  ETV
attr source  parkingOccupancy
vector 4  SimNetwork.a.takeoffQueue  queueLength:vector  ETV
attr source  queueLengthSignal
vector 5  SimNetwork.a.runway  landedThroughput:vector  ETV
attr source  landedThroughputSignal
vector 6  SimNetwork.a.runway  tookoffThroughput:vector  ETV
attr source  tookoffThroughputSignal
vector 3  SimNetwork.a.takeoffQueue  queueTime:vector  ETV
attr source  queueTimeSignal
0	1669	79293.551632074551	13102.764950484
0	1697	79791.112967169382	10590.27443015
0	1713	80085.361029772415	14790.344374773
0	1738	80687.577911112369	19181.831555377
0	1743	80757.118844110968	11325.574773406
0	1751	81086.917128288473	15426.91978463
0	1756	81130.670994255612	13584.328408969
0	1771	81797.437257180128	17299.759334747
0	1801	82698.685966062592	17880.674751565
0	1819	83722.608029947765	10583.348423451
0	1844	85192.296197278568	13979.402452873
0	1849	85513.397715958132	11799.924556713
0	1857	85663.975986437403	17953.765938804
0	1877	86308.989155735232	10033.544594958
0	1891	87243.452152324821	10550.110435698
0	1896	87382.711247050098	11889.24086114
0	1902	87707.438740829686	10213.048057342
0	1907	87777.513262705161	8583.4967807168
0	1912	88102.890123497362	13339.686316853
0	1918	88332.101519866279	10212.825237255
0	1926	88673.088022652684	10436.673537716
0	1939	88952.825816136391	9374.4551131071
0	1944	89000.17026056309	8891.767310804
0	1953	89227.759323615884	9460.9731828821
0	1961	89529.721700699756	7670.3078682039
0	1966	89623.213295384339	8243.0330090892
0	1971	89794.01348061025	6316.4354433254
0	1976	89926.55855787474	6761.104353633
0	1982	90116.862252040954	4596.7631413474
0	1987	90288.122317069141	4257.5687486797
0	1992	90410.745258985487	10432.116683282
0	2026	92050.403708486914	3446.3809505609
0	2044	93220.004325024622	8493.5342320138
0	2071	94082.004169574489	3097.3964667975
0	2083	94443.721845591826	1742.3753437439
0	2088	94806.855293341256	12661.131358657
0	2093	94923.290645589587	3891.2218886906
0	2105	95832.913290293677	4094.5422480624
0	2122	96652.136812995645	4081.5639983737
0	2164	98084.909298616976	4591.7916522865
0	2169	98394.442958089948	1708.102260918
0	2202	100136.749014033349	3606.1046141336
0	2250	102151.199600733699	4684.128037605
0	2272	103282.362608280021	7664.5690628432
0	2283	103664.128283969474	4892.2449014223
0	2288	103709.875804827471	4638.1574476133
0	2294	103927.303347499807	2421.556094396
0	2305	104269.290171218983	5803.1317114669
0	2327	105137.093723790666	5099.2381603367
0	2335	105194.03448010498	7830.3541443787
0	2341	105697.345025685022	4796.2139522398
0	2350	106516.033658021629	5570.3819387034
0	2355	106603.058559226013	2383.4651951567
0	2366	106997.155651774545	5136.0749679217
0	2393	109093.163380617148	4184.7584738278
0	2398	109109.99940387613	2197.566963628
0	2416	111027.108506999226	3926.541588879
0	2458	112803.507247718537	1147.9835773007
0	2486	113902.325930437603	770.46484369771
0	2501	115098.140002766703	2485.1062893784
0	2509	115548.719258234974	1984.4252007645
0	2526	116294.885313076551	5006.6328732433
0	2541	117032.127072887708	3251.3810667446
0	2641	120563.231933319808	10791.51035058
0	2646	120610.893199354472	3153.6150225142
0	2655	120992.653106943366	3902.6899421495
0	2660	121024.413424656964	8963.6184109828
0	2686	122393.692821235048	5394.5993354925
0	2703	123305.302833461541	3400.8097969391
0	2708	123322.892688452629	4647.1777065514
0	2723	124091.867368722196	8274.6972876801
0	2734	124712.137558230572	5945.2889174665
0	2739	124797.084923368186	7121.7579602617
0	2747	124961.424543376436	3786.1911102002
0	2755	125126.770808196495	8130.3179229141
0	2769	125994.315208490999	2493.6427927163
0	2803	127388.438291735195	8848.5637607547
0	2812	127900.317036657401	1015.7423948321
0	2820	128454.604026283212	9505.0390645751
0	2829	128622.898124103396	6435.0355321803
0	2864	131741.463409845347	4774.409704534
0	2874	133265.131064875036	3609.8933005756
0	2890	135339.559003247136	10316.490944429
0	2920	136181.853142814406	6993.2359724818
0	2932	136654.066889891165	17876.629265401
0	2942	136781.36650065173	6194.4289462198
0	2954	137389.560183871117	2858.761495563
0	2983	139016.842309041671	12608.862805307
0	3001	139108.290427146574	3485.8776323408
0	3012	139534.628524997525	1969.1975165647
0	3032	139952.042685435767	1277.947862077
0	3071	141406.353404132297	5221.612595561
0	3082	141664.017265006893	3038.1627361638
0	3087	141757.423270720599	2470.3893993984
0	3092	142070.550791532643	2279.763873376
0	3109	142841.952200770957	2037.5279628632
0	3138	144394.729668910759	7005.7053885938
0	3143	144546.034375698339	1507.9202244775
0	3182	145286.255449098616	5231.9948578196
0	3190	145631.331006146346	2487.6563395708
0	3208	146442.253374518851	6557.5840904633
0	3253	148819.875322763744	4188.6164647477
0	3259	149264.650056273355	7029.6933807076
0	3267	149482.331656888491	14748.415929755
0	3279	150022.753982878961	5123.4457461346
0	3294	150625.816174470721	4799.2103386676
0	3311	150978.09164923671	4372.6880333905
0	3326	152375.9475009563	7403.6080399106
0	3335	152629.584805234532	6103.7337065419
0	3340	152671.13281822406	3112.41373073
0	3345	152797.614675303179	3255.8312927322
0	3374	154413.849705364244	3751.0035604951
0	3390	154915.613295015507	9137.9138515231
0	3407	155884.125061443744	1905.8637997615
0	3419	156223.387586052006	3206.0610140565
0	3475	158060.181736419674	4542.9343786872
0	3505	159234.217854780854	4532.6345387545
0	3519	159689.675130655422	3572.1597837007
0	3524	160006.76361394824	3987.0351272013
0	3533	160465.753204455297	12186.517149512
0	3549	160856.878158341916	3286.9448778984
0	3557	160993.088348739595	4216.9899696606
0	3576	162249.821565053484	4003.8804183407
0	3581	162605.023728527398	4959.5749814446
0	3587	163040.727290817265	3814.8323790131
0	3596	163832.788044860377	6997.1385500906
0	3612	164497.709086285316	7881.9079883873
0	3657	166444.808398614516	6143.4134226407
0	3685	167825.088497884179	2917.8185738363
0	3702	168025.881370419319	3552.4674321475
0	3707	168577.672072863576	2289.9802690076
0	3723	169745.253265796492	6068.7520434896
0	3733	169966.881059873877	5219.5318006387
0	3741	170313.885883908634	3519.0869901006
0	3758	171248.713054218887	3541.7095702229
0	3787	172894.630205388018	8763.5279988383
0	3801	173467.98185655706	1850.5442359959
0	3830	174959.15665317235	7927.3718284698
0	3835	175088.064052121995	4758.6061220283
0	3843	175354.283676714274	2673.6759506477
0	3857	175599.900089171914	3593.8508082311
0	3877	176999.874632502445	2984.6061962855
0	3885	177069.644758818446	1587.9970245395
0	3893	177126.666606624925	3263.1856137304
0	3903	178901.610377235654	9775.1487081229
0	3976	183034.8176014394	3351.0868820256
0	4000	183277.954910804857	3094.0395444968
0	4011	183679.869211922905	2839.5105084936
0	4016	183695.968103572634	2050.6554495066
0	4021	183857.300035877306	2359.1146878449
0	4029	184235.105719431587	1434.4320084747
0	4055	185876.660013943694	4044.088789853
0	4072	186375.41107283057	942.81721955988
0	4084	187625.269656922038	5237.815624206
0	4099	189258.361552165736	3735.6365679762
0	4108	189513.384801215164	3512.7481919224
0	4144	191041.355587543443	7795.5062119662
0	4153	191450.256985357504	1779.2287133683
0	4188	193958.0125506437	3958.9790978452
0	4203	194611.21353016577	7318.5832637654
0	4229	194982.592946346029	5244.0844387369
0	4234	195112.545319116789	2513.1850701999
0	4243	195528.092354410337	20036.883730486
0	4262	195887.400805094158	4657.5445378159
0	4276	196398.513646185327	2384.6244976604
0	4293	197150.948878912863	1362.8381152983
0	4301	197649.046380177505	5296.9376981858
0	4314	199004.09121787158	4386.6556743035
0	4322	199437.201034148677	3898.2696901063
0	4344	200092.9721589499	5587.9464252551
0	4360	200557.131633631087	4021.2716630085
0	4370	201875.130797719131	2422.0694450367
0	4412	203271.665012609723	2926.6035181642
0	4422	205006.790118379387	2748.3534128698
0	4522	209857.344601336376	7412.1775726451
0	4539	210156.591536983425	7124.0659947299
0	4544	210160.195497330053	10755.069279212
0	4549	210228.485157905826	5030.1472202012
0	4554	210333.785642369692	8253.6457277895
0	4563	211339.51416867135	4984.0631231303
0	4568	211711.34538865052	4564.4412170015
0	4573	211717.342207641259	5254.5031927558
0	4582	212469.921648566202	6935.1508610538
0	4608	213629.944443570022	6350.8759818528
0	4619	214185.656647591958	7348.5905537883
0	4633	214695.954449395193	6076.9711372156
0	4641	214866.01691001071	1912.4101373694
0	4659	216170.608204671665	10034.009916777
0	4703	219951.521370124286	7240.4609793061
0	4712	220315.911288031291	1046.9435828025
0	4720	220564.750826248017	2651.5393177766
0	4731	220898.372207669862	7014.6971338972
0	4753	221739.833781379439	2477.5791539471
0	4787	222890.516618342837	2043.3062840488
0	4795	223597.41902291811	4267.2908497794
0	4821	224886.628353881129	9837.4666173666
0	4829	225430.777472826763	3078.0450204962
0	4892	227792.86507534353	18016.897915078
0	4903	228115.092333296212	4465.084925505
0	4920	228342.567172413522	1956.2797862574
0	4956	229630.684888086814	3179.5319396932
0	4984	230913.693326552391	4947.2990785247
0	4989	230918.557764830779	9553.8382768854
0	4994	230957.529827865776	8754.025325533
0	5002	231023.793371991854	6359.1247794496
0	5007	231075.914116873616	2510.2401484446
0	5025	231631.041229523353	4838.1400684725
0	5046	232060.325992855237	3899.7344829522
0	5058	232899.921996116821	5110.927756436
0	5122	234738.048882206972	8048.7343445004
0	5127	234750.456049498045	12511.262697134
0	5132	234823.501643949561	2206.3645615105
0	5138	235133.221403666405	2329.2138721334
0	5143	235144.225199085662	3958.1211442555
0	5151	235254.848816917562	2175.5765955258
0	5159	235491.002961796811	5869.2453834972
0	5167	235595.304140970985	4259.5484986265
0	5173	235907.721916206128	7660.560700664
0	5178	235980.471411314952	2692.7375029491
0	5186	236382.068987509703	7148.3967661287
0	5213	238433.767156380692	4671.2136293
0	5230	239654.495350372247	6546.5553712474
0	5266	242340.954684937191	4569.1673367993
0	5276	242385.919151480488	12492.903514359
0	5288	242642.856375631137	2366.6237442298
0	5308	244615.299086813669	2586.0368484202
0	5325	245461.44517503739	8674.8045352151
0	5335	246872.141296252478	4450.1998893342
0	5347	247901.380823461116	7106.3955719242
0	5372	249171.538389545702	10361.555176349
0	5377	249239.918029264145	1436.7751297822
0	5386	249733.273689426981	7287.3207698731
0	5433	252902.111918587488	1385.8147035598
0	5438	253165.248311088739	1145.0165000617
0	5447	253979.693331525272	5630.8520084247
0	5455	254527.91773610489	2848.1729002474
0	5473	255894.264786335579	10744.523152282
0	5497	257902.772752285246	2098.5134617479
0	5516	258470.044750638558	6444.1778751972
0	5562	261173.277503866046	2309.797441037
0	5579	261600.978262688935	1852.3064952962
0	5587	261903.972545426951	2886.1499466099
0	5595	262037.429814879304	4011.3058305176
0	5600	262081.344043765983	5128.2646995502
0	5608	262185.775092780915	2332.15231142
0	5617	262960.267018190632	5168.2340525487
0	5643	271640.345017498047	10518.45005341
0	5660	272439.837690411769	3331.4893917574
0	5703	274951.540869812658	2106.7436481761
0	5720	275889.352000542627	4194.2032618562
0	5732	276324.204120042535	3147.8711062527
0	5740	276532.285909526748	3575.2527629495
0	5745	276587.588759885776	2298.2031245748
0	5787	279518.579901038135	4562.3383425199
0	5816	280233.84499870266	1857.0002972076
0	5821	280274.540659032838	1691.458375528
0	5832	282609.687842334936	3737.0556279164
0	5852	283308.849404586497	6097.3138791659
0	5872	284023.311549663488	5098.8492595499
0	5894	284588.640268944389	1295.2818036689
0	5907	285256.272082690153	1294.0173135454
0	5922	286013.052109477118	6220.2846237634
0	5936	286712.581052097452	2900.1877627373
0	5951	288263.222055788543	2800.4444201208
0	5976	289683.14332320392	5149.4757534199
0	6015	294678.561906030582	11976.589529059
0	6037	295438.627576215042	6134.2152279626
0	6049	296360.458005736545	6931.6487427505
0	6059	296520.525610763333	4800.3299930602
0	6066	297715.378732570086	3514.3453083395
0	6106	301947.654790587881	15263.089347177
0	6125	302490.794887978612	6253.1672176616
0	6134	302817.061608401006	2465.6634060266
0	6139	303053.128991301414	2531.3110483584
0	6144	303252.23880849467	8500.991656483
0	6191	306698.546235348992	5135.8098167976
0	6196	306782.876097349255	2415.4811368925
0	6224	307649.263294993457	1731.7323686425
0	6233	308110.336246478196	8714.4247579481
0	6250	308968.350120591794	2104.7063443161
0	6255	309320.808143564493	2242.0649352934
0	6281	310592.370471086471	4970.3539719896
0	6335	314617.352706868651	9563.3516491888
0	6345	314951.58357198303	5506.1103898764
0	6360	315823.324475909733	25233.149269861
0	6388	316776.820737227314	8748.5575241064
0	6421	317951.892530332659	5326.184894293
0	6426	317970.495268168108	3500.2728571955
0	6435	318403.333472694973	6715.8774647674
0	6445	318799.57954797397	9092.2543856382
0	6457	319212.983862991046	2763.7272139256
0	6462	319320.290867157324	7546.4711250231
0	6467	319475.841960609833	3916.8054430441
0	6485	320806.347591372964	4942.7977976302
0	6496	321347.673898927704	4287.3281318331
0	6501	321419.287563908083	3377.3907876679
0	6531	323521.06771503523	3762.7268551757
0	6546	324100.932238184195	2421.6853426391
0	6578	325148.308527387387	1092.9718118614
0	6589	325428.412386240303	1705.5956452875
0	6602	325695.754484113246	8796.380425861
0	6619	326225.831200610598	2555.9031250195
0	6633	326412.143618524948	3797.3710637962
0	6706	328830.598485663816	3478.6062422314
0	6712	329756.561727798898	5131.7330477923
0	6717	329895.73680544106	3506.3883189727
0	6729	330408.650092143951	4648.8535637047
0	6762	331328.52961148948	3064.2581483115
0	6768	331727.480266301642	4913.1815186628
0	6773	331875.054909489262	18927.701701404
0	6778	332205.308028106897	5084.6391621136
0	6786	332417.323332630694	2376.7927419476
0	6806	333107.021901553658	5909.9511332221
0	6819	333380.422635415921	4991.9236820743
0	6828	334239.716655121311	3802.5453671129
0	6837	334701.786635241691	1874.1537438526
0	6862	335877.38316275299	8586.5325133535
0	6872	337238.046107838016	6799.548619348
0	6912	341178.8258303382	6094.0127345213
0	6920	341641.595132035109	2920.6326666492
0	6934	342642.443387891965	3790.8843907554
0	6947	343893.371036884593	4153.5011784008
0	6963	344291.717286750048	9209.9250462106
0	6969	344736.221491421248	11683.836156234
0	6981	345742.74663453192	4217.2093653301
0	7006	346958.451387411957	3156.3560042686
0	7020	347939.413571475864	1715.9857488973
0	7047	349946.456284354725	3026.8475805454
0	7063	350166.661798647074	1834.8406025155
0	7075	350601.644272215417	4959.554964587
0	7108	351746.232512270666	1242.4415955086
0	7162	354083.148736974719	5065.1781683864
0	7167	354123.313652376405	4084.5357026997
0	7172	354419.822262353178	3758.8635578229
0	7181	355078.78178646811	3262.2062023278
0	7189	355436.021305657559	4292.4308034907
0	7218	357399.099089657221	4803.8810000483
0	7242	359279.673895161069	3563.0286127122
0	7251	360038.173518125771	7668.4196461956
0	7271	360903.473521357199	7405.7826205869
0	7279	361596.198629079361	9952.2528519351
0	7357	365490.404256842634	8933.8332561181
0	7362	365550.609734694338	8254.1042097039
0	7370	365664.329340888074	3439.0793969624
0	7391	366958.914147593903	6837.5631799678
0	7401	367192.649687898699	4625.293137224
0	7409	367310.749658934625	5420.5761334558
0	7414	367407.81729794319	9637.9049042302
0	7422	367636.608030926054	6311.7398842359
0	7446	369556.208882317219	2813.5953804046
0	7457	369806.282904585192	7961.779403895
0	7462	369949.429660069017	6297.0012127989
0	7496	371811.09702556121	6171.7852174479
0	7504	371882.51996500459	4094.4929112407
0	7547	373672.547846366892	2435.2144796233
0	7582	374907.804247052996	11145.494857684
0	7592	375001.83535291756	4199.8525356248
0	7600	375377.101490887019	7941.8441940112
0	7605	375409.924170049692	2332.7019583851
0	7611	375638.425963823867	4598.9255620763
0	7620	376476.772426649841	3992.0814191295
0	7630	376829.586242035869	3145.9305861246
0	7639	377720.287774746397	4198.6356643774
0	7648	378441.394562152744	5059.6399049027
0	7691	380967.888651351802	6249.8849734957
0	7700	381730.599272325634	1652.8075294226
0	7714	382263.450471429365	2183.1261647948
0	7778	386140.214962904793	10445.662318603
0	7793	387268.721176382491	5393.5388019606
0	7805	388489.340933845121	5158.014978815
0	7810	388492.592567697405	8147.7530880754
0	7815	388784.442423128403	5318.2624793575
0	7820	388844.161889259854	8781.0289325895
0	7835	389513.104583092799	5130.8322377446
0	7845	389900.356898624763	4388.7178986819
0	7854	390382.753149537762	6037.5267498357
0	7880	392386.018047348566	2898.5810163117
0	7889	392755.632658311119	5512.2459365432
0	7906	394189.727901830293	2856.7473734621
0	7934	397086.110642622342	1416.8763513386
0	7955	398859.775344674046	2276.9126981137
0	7960	398972.910819654195	5926.8867155594
0	8003	401437.300684937088	4170.6844196566
0	8020	402299.384571199368	1562.3087438139
0	8037	403315.228855102543	2614.6063366652
0	8056	403572.873423009838	1580.3436993469
0	8065	404195.325403268615	5221.3236860297
0	8070	404203.116617986717	4705.9837753284
0	8095	405059.949453777854	568.65182844475
0	8118	406197.687484288514	2863.8282389463
0	8129	406819.337652184882	3838.0395141167
0	8139	408609.436563605253	4032.5870623054
0	8199	411505.490128954656	20583.002323684
0	8243	414092.118728568159	8502.0153051225
0	8251	414121.647889017457	4126.4071443671
0	8259	414477.559451540796	4148.4279728701
0	8264	414628.487628159323	4123.6553767824
0	8270	414890.722846614598	4802.3072418201
0	8275	415183.908507171364	2439.4427408685
0	8291	415701.133519734049	3400.8196530597
0	8334	417376.365023819896	7447.5280694675
0	8340	417587.245108360624	4492.81504876
0	8345	417608.390469698059	8372.2009769923
0	8350	417625.453361098738	1920.3419072235
0	8387	419699.39551290202	4239.7675488088
0	8404	420673.080324759865	4588.5042317959
0	8421	421233.856657254286	2989.2699596848
0	8443	422438.638488505601	3216.3779323336
0	8455	423355.362016737353	2475.812725726
0	8460	423410.362065015133	7605.4304895192
0	8489	424693.623335216537	6221.2459992967
0	8494	424852.106212986202	2886.1138317808
0	8503	425241.917678701257	19195.542121681
0	8511	425597.651308866306	5521.4515880809
0	8539	429040.637464612881	10676.505945472
0	8568	430314.498175789924	3400.7537927274
0	8573	430448.587146191225	6056.2133180378
0	8608	433034.304179051494	646.28305299462
0	8636	434466.385148660178	1562.939097228
0	8642	434645.892769276753	10298.566838812
0	8653	435315.7085919335	5803.5057315621
0	8659	435620.776559178252	5824.4967318726
0	8677	437258.759002799094	4123.4338225639
0	8694	438683.406968890371	6650.1685605497
0	8703	438975.874069041629	5388.054359499
0	8711	439716.70666318681	3401.6538845588
0	8745	441437.213696482127	3972.7976479381
0	8755	442656.001033417121	2576.5707946136
0	8852	447514.555471289915	4717.6760128442
0	8902	452093.74424892762	8844.2726498088
0	8907	452104.588777886963	11924.198439466
0	8912	452347.498810698024	8305.5542661045
0	8924	453419.322087504913	9313.3280855497
0	8941	453627.334287860523	13216.46477268
0	8946	453704.909236222514	25424.991653801
0	8951	453848.998563289316	10107.727755785
0	8959	453925.192396312886	7670.4841148617
0	8977	455001.030621489087	10321.255177471
0	9045	458051.807727055042	11406.924649154
0	9055	458271.128089131622	14977.068187211
0	9060	458279.248087566003	11468.857603734
0	9065	458298.819580009763	11835.958196704
0	9070	458455.480966750423	5679.4053545839
0	9076	458767.83962838733	11075.7418407
0	9081	458770.721760392556	4705.8375303801
0	9086	458805.895771767897	2694.0381305273
0	9124	461431.306904623752	3545.0502783789
0	9137	461779.131076963696	7142.2712802146
0	9146	462511.446246399624	8061.6954982204
0	9194	463983.705317714882	4176.8213816047
0	9211	464541.364380819782	2007.4959259764
0	9267	467238.245022614883	6071.5565818071
0	9316	468479.631443594956	5752.98684654
0	9322	468896.742320956352	14869.964016598
0	9330	469400.579114263415	9708.0305055487
0	9335	469546.327229266941	6358.3193893851
0	9344	469941.763943236377	12681.983726104
0	9354	470049.326547479938	12991.918451071
0	9359	470247.902885605837	6066.1242659022
0	9364	470351.782310597317	10059.517820697
0	9376	470653.932003177751	7027.5665155873
0	9404	471651.900604664721	4450.2175088933
0	9422	472448.910026394566	8082.187577891
0	9435	473132.916301630294	6338.3486373853
0	9444	473540.724296398232	8729.9660347173
0	9457	473881.811200454275	8926.1862926464
0	9463	474175.417088451137	7222.2210687577
0	9478	475448.884953467668	5522.4481838445
0	9499	475974.967916212499	9298.6161917999
0	9504	476152.509697535673	5556.3204498722
0	9509	476455.986560671749	8755.2438930983
0	9518	476698.006642947035	5988.4540554974
0	9529	477397.774590322818	5193.982773762
0	9543	478121.431371616772	3376.8323686105
0	9548	478251.498102933962	3791.8119106865
0	9600	480239.581626890172	5304.6448959975
0	9623	481871.89291336694	4639.4486269373
0	9631	482039.873538902954	2817.4515471322
0	9636	482111.76788627851	2829.0777834715
0	9644	482256.910947993806	2955.854869311
0	9649	482278.567090799051	9015.223297237
0	9677	485315.536755653037	5125.0252472358
0	9705	486292.630307864739	1960.5247466248
0	9710	486540.516861740594	2769.95577708
0	9727	487700.944269929431	2243.6613190751
0	9745	490873.75780823249	12609.294725296
0	9764	491855.366295002232	6467.2698561981
0	9866	496082.286973670751	3693.7039946077
0	9935	498186.224238913966	18076.540494139
0	9943	498205.776280412376	11561.19624206
0	9948	498325.227357814195	5853.3791550835
0	9953	498775.605132673673	4865.5465450594
0	9958	498825.267904866078	6117.9212216587
0	9964	498979.846700842508	8118.991643264
0	9969	499048.922023824638	5432.6267550392
0	9974	499136.657411561265	7034.550765159
0	9979	499147.227581402554	3604.3145520734
0	9984	499399.435941234654	2710.9144272625
0	9989	499636.145570807901	2191.4273914534
0	9998	500410.381661270426	9858.0982368172
0	10038	503300.98357384373	7283.7467249781
0	10043	503881.163815903308	9899.9334900954
0	10055	504748.661455342949	8310.4133113931
0	10066	505072.39510410844	8063.8142766259
0	10071	505205.793025515139	7659.151929607
0	10076	505232.195530340385	4144.7489579387
0	10096	507889.768870740745	6577.9618814852
0	10124	509224.091886537782	13907.48227869
0	10163	511677.429799395619	4154.928827012
0	10173	512600.413784223566	4809.1648699837
0	10227	514805.932301076415	5640.4318454407
0	10275	516339.420335912763	5846.5033419538
0	10285	516630.697876104635	6622.7837439668
0	10293	516813.052653552337	9025.594566268
0	10305	517121.492754353782	4505.8950585404
0	10330	518422.36571912171	5638.6687354099
0	10335	518517.315229532911	5894.2937139971
0	10340	518560.991801045828	3221.4597986658
0	10349	518911.030172960505	5755.2595986586
0	10357	519186.685677815761	4656.7681922398
0	10372	519874.566239907003	4212.8280141288
0	10395	521455.552911869865	5429.8003486243
0	10400	521796.914189215948	17357.326110514
0	10405	521816.799529757544	12295.072359226
0	10410	521898.12226770213	6030.0009936707
0	10416	522207.391841580808	5233.1145534192
0	10434	524369.980805841379	7426.9786208679
0	10541	530488.858640366731	11009.424179899
0	10547	530608.126083232263	5013.1969765303
0	10552	530735.145870751833	11487.247467765
0	10560	531061.976832180569	5080.2120125389
0	10565	531339.428619580014	8113.0944621773
0	10571	531625.534844353511	3331.3974964917
0	10579	532069.063629659318	4019.4832894491
0	10616	533927.6536492947	7936.9026935071
0	10621	533938.661119845802	8299.3071642693
0	10630	534804.890170370333	5807.4715830264
0	10642	535037.339043963091	9443.2449518292
0	10647	535464.101351621565	2225.6033824098
0	10672	537567.695786431286	11934.682288734
0	10677	537763.307397177144	5416.0073975374
0	10682	537842.765487403453	4554.2391666322
0	10700	539031.300680542266	10319.902386309
0	10728	540441.656486478666	4834.3221885145
0	10733	540442.804446733201	1780.8625727851
0	10776	542836.884042548341	1993.213422132
0	10804	543808.795212475258	3038.6315617332
0	10809	543898.930881617847	4915.8444967331
0	10821	544640.445878458562	3401.5109982403
0	10880	547254.127035222902	2627.9995741576
0	10885	547346.234923031089	4774.8497391842
0	10894	547763.233565770118	1401.4419258826
0	10902	548262.452211008907	2927.3687769214
0	10910	548457.447593408544	9611.2993597103
0	10919	548837.806183795492	4180.1660578104
0	10928	549981.848016194931	6474.8218968296
0	10974	552494.588270224876	2473.1355671914
0	10983	552902.060274537506	2427.931780528
0	11106	558250.554403693845	14579.002504406
0	11111	558430.404241169565	7893.2847977154
0	11116	558484.309778678625	5257.1545590606
0	11121	558529.057909007452	13846.321662094
0	11126	558556.445756709061	3562.4908064904
0	11135	558984.41345292602	12161.778728789
0	11140	559304.333763319164	6490.7545070518
0	11145	559475.278503233024	8912.3922702124
0	11150	559656.434363427168	4235.0785347044
0	11156	560124.495240160681	4269.6102641779
0	11186	562096.785417144283	8704.1224526835
0	11191	562181.038297300277	8509.6017896475
0	11196	562290.174469592857	5980.282088518
0	11202	562327.807025572058	8386.6433302841
0	11207	562448.926006573597	7142.2852643677
0	11219	563674.457426200364	8476.5157276501
0	11256	567456.054696152931	4189.5696036459
0	11267	567833.368455848824	7006.420864059
0	11297	568682.428200121117	891.53563184547
0	11302	568686.302653819402	1488.8483878607
0	11312	570039.621548103139	3689.5462926434
0	11329	571520.467682878575	3474.6451327651
0	11354	572371.068032658176	792.14603413606
0	11385	575898.889706700192	3469.9848047103
0	11406	577196.591045193661	6897.5728311392
0	11411	577494.850899319031	9673.4356909938
0	11416	577676.568318584962	4839.4804311451
0	11439	581119.442124948118	5420.7546459764
0	11457	582262.950714712124	9973.5706078179
0	11462	582540.812371483188	2247.8383946106
0	11496	584119.263779539775	1152.9552255393
0	11504	584241.6602820604	3625.9747716848
0	11521	584635.602252781798	1081.380696961
0	11557	588440.670382984481	1282.5646102906
0	11569	589253.663001451277	1745.9602135015
0	11602	591763.202902062642	7476.6655378348
0	11612	591959.048520464657	4279.4628275286
0	11617	592001.187691766257	2789.4879527833
0	11634	592443.414257909584	2152.1089167628
0	11657	593545.62874450787	1368.1806891168
0	11662	593640.159940325648	2322.5196048404
0	11668	594021.33037401634	10341.136297689
0	11685	595271.560975487127	2762.2498361608
0	11711	597386.157317451808	2095.6782364093
0	11740	601322.22743045594	6417.6841904017
0	11749	601753.452297631014	5224.8665929052
0	11766	602728.210908491272	3800.5169349952
0	11811	605062.371754739409	3042.346379101
0	11820	605568.05134474645	5433.9855758179
0	11829	606080.79086192873	1574.8079860531
0	11851	606951.558096929471	2357.6943425939
0	11862	607341.777136776476	1368.9552063935
0	11867	607435.965299295336	3663.525325608
0	11893	608741.613481128415	4888.7703297385
0	11930	610417.377860299174	2361.4740589512
0	11943	610747.356676960323	4488.5880804016
0	11952	611656.892034427557	3703.924254279
0	11977	612467.958128537231	3191.1507720467
0	12003	614163.495459699781	3755.9947004036
0	12011	614508.736926598107	5752.5342849519
0	12031	614885.997933600329	2849.4655178636
0	12040	615608.077496941675	3304.4397088322
0	12055	617347.844473567571	2803.8574702878
0	12063	617683.357152134511	5174.9126550633
0	12072	618279.035390718495	5507.9871978543
0	12115	621192.743725647796	5742.1137912655
0	12163	623070.363674477797	3453.7116283758
0	12169	623313.45297971729	3323.7793968562
0	12174	623342.877466798421	1901.2798543055
0	12238	626684.553913033774	4901.7209395738
0	12243	626725.563900537139	17728.423738313
0	12248	627312.186433929758	3118.8942039889
0	12254	627637.626001803226	5814.1552788382
0	12271	628048.573302100638	6421.3879670051
0	12291	629025.605763287344	4724.451121539
0	12306	630139.412763564723	5544.8915021585
0	12311	630364.181686360036	10232.972900408
0	12320	631065.660927361179	7392.414401733
0	12342	632454.04857387999	6342.1007208148
0	12360	633040.488661095946	13078.086584624
0	12383	633433.518238452246	5436.0003354361
0	12389	633537.538607756372	2981.4530261858
0	12394	633977.300933698004	5302.5351442353
0	12403	635013.949939192641	2983.9162168559
0	12499	642757.713139344118	10118.355109469
0	12504	642801.91030348499	9823.1842942287
0	12510	643067.233203994216	9728.1233960099
0	12518	643178.412883686138	5196.2805492537
0	12534	643475.169643103479	4066.0905996821
0	12563	645159.643406662203	7706.322521263
0	12574	645687.185158248302	6256.9358110884
0	12585	646240.779949649002	3008.1603265051
0	12599	646625.20156481713	8115.4911150225
0	12604	646927.93497470966	2720.8599060782
0	12610	647481.105679774323	7918.4116348936
0	12638	648425.277140567607	2734.6857406514
0	12681	650422.012893337714	2720.5192609213
0	12695	650738.957326586122	5933.2288208864
0	12700	651278.150749007255	11214.315515828
0	12706	651453.593135879986	8338.8050238127
0	12717	652006.902270193914	3835.8168134278
0	12728	652380.19673669091	3500.781172245
0	12785	654730.271909481791	5632.1355516523
0	12812	656008.567567501989	3330.913014086
0	12851	658120.30036274858	7779.5272504131
0	12860	658457.571004071432	16884.497970057
0	12870	658859.244349508937	6010.5597711792
0	12875	659065.59547604658	10672.894463099
0	12880	659118.308022777863	6336.2557578289
0	12885	659148.63781598745	4944.580533063
0	12897	659693.449605304474	7745.7076975193
0	12911	660422.433785720033	5323.3054539695
0	12919	660806.30518529576	6130.9398145045
0	12928	661052.073328542348	5099.0479217018
0	12944	661567.195540384533	5954.4269069167
0	12955	661732.340915534407	3475.757823528
0	12978	664642.218463778722	9183.3062603485
0	13053	667444.5322184548	8219.3645095569
0	13062	667828.823165859884	6850.5840658586
0	13093	668890.40882653251	5574.9704778601
0	13110	669563.961787322299	5809.1054355259
0	13127	670857.063240228445	6182.6257002777
0	13140	671103.842348289939	9842.5253951389
0	13152	671280.346133807304	7814.2458414322
0	13174	672186.377770419218	6407.0647965988
0	13206	674483.409254556384	11113.510566255
0	13213	675477.369766382006	6877.4541693619
0	13221	675730.12582166538	8839.1004432684
0	13244	676683.152138478574	7322.7741500314
0	13283	678211.322513793657	7056.9010590063
0	13293	678535.768052125822	6599.8991006366
0	13308	678952.603265173576	10971.437170767
0	13328	680016.325047479008	14980.5182248
0	13338	680197.14189926155	7441.3733499434
0	13350	680719.559606521406	9929.452557572
0	13377	681258.63712500942	5559.0897577792
0	13387	681266.234286785069	5487.9538389075
0	13392	681315.834852833936	4988.0182182762
0	13397	681316.553194982625	4968.2606755042
0	13403	681618.054009860218	10410.248993577
0	13408	681627.564646740965	3036.3164267132
0	13413	681907.4540334541	4045.3941369449
0	13418	682042.725867712327	1495.6683478982
0	13427	682722.222052114282	15106.326976288
0	13438	684930.132904917528	7791.3841719821
0	13471	686441.3794754543	5865.073370194
0	13493	688280.706103320437	8320.6991070265
0	13510	689526.001495979418	3910.3190053332
0	13515	689628.157613510743	8430.5112545208
0	13534	691959.100817099614	4387.6630708311
0	13547	693514.735654921673	6542.1200950327
0	13596	696229.768234202627	10901.272812152
0	13649	698104.856637345171	4661.5494103991
0	13657	698353.166699781905	12229.710788365
0	13662	698425.364300032569	2285.0878765046
0	13667	698582.300528679511	5057.7409745336
0	13676	698763.974312430945	3667.3767320592
0	13681	699163.358294673121	2987.8923947556
0	13689	699234.71074203273	2184.3763275868
0	13720	700686.564656298342	1370.6593010792
0	13742	702547.741210032081	5765.2988614107
0	13772	703415.324408960997	5970.4444168635
0	13777	703606.303335678168	4386.8571300435
0	13783	703901.886042666508	8662.6680247373
0	13788	703941.928411029707	13029.295848916
0	13814	705735.526831042095	3180.5512732442
0	13823	706760.518650408654	7029.2158826437
0	13847	708218.935352073049	6738.6334752771
0	13852	708402.75139950605	5472.7902533423
0	13857	708494.908817275735	3767.2645369578
0	13886	710040.611646366057	845.3850845696
0	13899	710382.284830476368	707.77536626154
0	13913	712800.3153240219	5327.921617365
0	13937	714228.231421770841	4391.8870676475
0	13956	715214.296785249277	10290.2528276
0	13964	715483.586069279846	2746.5114980159
0	13989	716241.537697126202	2310.405243047
0	13998	716588.750266097993	2581.3071406102
0	14073	722498.825608050119	6684.9217603468
0	14114	723649.683456722136	2457.8262765478
0	14119	723828.131509458956	1997.3526650925
0	14124	723871.477020585223	8576.5523731841
0	14133	724383.868176534366	7703.3806722038
0	14144	724815.600676831108	4669.0861927406
0	14149	724847.123426846441	2270.441419122
0	14162	726226.058550342308	6208.5935893462
0	14178	727317.046745580981	10781.755782714
0	14189	727666.002117161941	5447.6006115876
0	14211	728002.398193461052	5026.9129992237
0	14216	728037.243095685467	508.7876279969
0	14227	730757.294159510283	10512.704367098
0	14245	732416.046225919027	6925.8742084522
0	14254	732944.593190653957	5265.9624985082
0	14280	735215.757699273431	9123.8959878004
0	14320	738551.7497094622	6770.4881843594
0	14344	739383.147158075233	5310.6493919232
0	14367	739850.94179790539	3595.5686250641
0	14372	740028.197910250162	2456.507339281
0	14377	740076.756605808555	5906.7902635811
0	14385	740529.366519680196	3612.5121444818
0	14416	741602.645881514202	3127.1395288464
0	14428	742671.845390799548	3392.271658813
0	14433	743076.369856013868	2726.1683675123
0	14520	747158.970061359797	6053.1240901409
0	14525	747276.266417618523	9683.5212064036
0	14530	747387.079023298183	4143.8191984807
0	14536	747471.119966880571	3649.8065707381
0	14541	747590.721566769757	6567.3441592529
0	14546	747641.760817086145	3896.2963063628
0	14551	747740.221293335934	3294.3020858538
0	14559	747946.031462197459	2538.723929141
0	14576	748723.207307962176	3615.4059939179
0	14607	751509.446723879167	5049.368096088
0	14665	753784.309664316126	5481.2901709208
0	14683	754813.833907760412	4059.2761293439
0	14705	755352.898206872686	6441.9645125209
0	14717	756050.845721224562	3941.5223045489
0	14739	757949.770699360381	7233.2521596196
0	14803	760790.798387409482	7933.8963672708
0	14812	761576.46631028365	7687.1878409155
0	14821	762345.056458229084	9798.8476883187
0	14826	762423.903906338504	5840.8308992646
0	14831	762850.102552366698	8861.8660214846
0	14837	763125.214534835787	12286.423690315
0	14849	763775.138674376167	6464.6877080226
0	14904	765475.550736724787	7811.4869270897
0	14909	765558.542328552345	8277.6157450663
0	14914	765713.686078447638	7578.8719607911
0	14919	765772.608177287501	13455.63012074
0	14924	765788.445759778917	1532.8190784786
0	14960	768187.774153859174	5043.3582079525
0	14968	768286.071492484698	3505.9345081751
0	14976	768662.015031375014	10715.659428877
0	14993	769526.062108349653	6194.1894828561
0	15002	769953.575337087598	10668.175900894
0	15010	770158.417939827312	5826.7020312579
0	15042	772100.564264762293	6079.2190823987
0	15053	772358.588300601764	7352.0355245218
0	15058	772424.703594520075	4816.2375702022
0	15066	772537.196114982303	2417.8812206505
0	15076	772786.019161799976	4482.0095072905
0	15127	774899.120645413474	4662.8663947807
0	15138	775246.546973211331	1242.7787281425
0	15170	777048.227347420168	4064.7220346037
0	15193	779012.43312838604	3784.5978360199
0	15207	779543.832192514313	6640.1084295299
0	15212	779734.614361030302	7828.9903259535
0	15221	780807.118464100029	3127.9969277427
0	15230	781539.844851157861	9053.036062001
0	15265	783232.35253235418	6247.3219353583
0	15287	783851.620728910989	5310.0768115486
0	15292	783886.349135369125	7458.0100990369
0	15297	783904.772722102429	10849.244410718
0	15309	784442.926999969838	2689.3609012028
0	15314	784473.04425881376	9802.0786977621
0	15358	788304.6974748346	2099.8332134231
0	15370	789090.870167038453	6057.7248824533
0	15384	789724.154230047985	6761.3938490988
0	15392	789950.601020336547	2558.1798074032
0	15409	790779.101072828342	3936.2351225308
0	15432	791836.737121326254	10088.858872102
0	15437	791870.853176938641	5625.1300148283
0	15447	793036.465112925369	4045.5082601252
0	15478	794682.015496828771	4198.5882181967
0	15486	794741.455325301033	1540.3359386436
0	15494	795255.897682589042	2332.4527232895
0	15519	795954.742055836328	1664.0221073668
0	15558	799074.664350708756	3408.8227727323
0	15567	799922.970330337581	8939.5819590589
0	15583	800517.564296265577	3145.0569375359
0	15655	804125.694811309188	5895.9508819824
0	15663	804338.891973377456	5939.2129030447
0	15686	805150.063693020795	9680.7031730343
0	15726	806170.990388900084	6946.7215099813
0	15734	806237.346969380274	5766.5175249721
0	15739	806302.389866329988	4668.1703710458
0	15754	807019.360245609248	1677.7801785839
0	15791	808703.240175347031	3867.2643852626
0	15796	808762.911070578457	5283.7410851708
0	15805	809935.547180717838	7329.6054824105
0	15814	810498.233344796429	5256.8635863485
0	15827	810840.553180084784	6714.0834303374
0	15836	811387.816312802652	10709.53737916
0	15876	812803.568626745815	5601.3915375255
0	15881	812938.176899169114	10808.836106693
0	15896	813519.686767085038	8554.5026721659
0	15939	815381.147520615524	3769.0008459834
0	15961	816471.168408992413	8885.1863676066
0	15981	817620.754792001764	4238.7999104657
0	15986	817667.010158539381	6776.3626252243
0	15995	817920.854454249107	10932.035601266
0	16000	818000.603659434042	14632.098589861
0	16005	818023.818703069937	12311.739428515
0	16010	818100.709696209921	4829.9306875877
0	16015	818155.730407372277	4643.3592745834
0	16023	818211.80975899534	3797.1015176335
0	16045	818840.893994178414	4536.6540508663
0	16059	819093.456305396736	6983.3654502751
0	16099	820699.160800631904	4667.479556973
0	16121	821423.746419452597	3254.7277373705
0	16126	821480.878688482954	3137.1127896026
0	16131	821536.531429356158	2557.216360885
0	16136	821869.310324773947	11735.410734276
0	16145	822157.057673137961	1533.1195894765
0	16150	822396.05767846438	3366.6172588039
0	16162	823554.173053195927	3825.3390745146
0	16180	824666.329736796192	3960.2854986843
0	16231	830196.736927357057	6692.5790355044
0	16243	831008.106540059679	2434.011026129
0	16248	831135.61439415224	4731.435390634
0	16277	832954.981042337043	4004.58424519
0	16319	834204.131565303923	6538.7839357727
0	16324	834309.007343816003	2446.4302977782
0	16352	835322.201976426264	2344.3826209698
0	16357	835439.645134147056	10885.585004073
0	16366	835838.795707790018	3237.4296230817
0	16374	836172.583119815492	4524.0982466099
0	16383	836946.316933284871	2572.9474063931
0	16394	837148.493904015588	3633.0808130368
0	16399	837365.465309631127	4196.2195495645
0	16428	841435.834142295091	6609.8878604347
0	16465	845692.38504559788	3504.6875846904
0	16473	845804.922563211355	6831.6804876692
0	16482	846784.992772060155	6240.8374433036
0	16524	849246.242795322478	3927.9434408751
0	16599	851931.928189388317	4319.1675545345
0	16605	852082.675038431262	8373.148024349
0	16616	852175.333275109085	3937.9227640203
0	16643	852833.096529624572	3736.5388483905
0	16666	854064.620203143882	4576.5085268802
0	16671	854160.205243473186	6214.4853601512
0	16679	854516.594412771837	4436.8041349273
0	16685	854697.858316826612	3957.3230036372
0	16690	854861.965290416204	5359.5983090391
0	16702	855464.533078822006	6396.1389922747
0	16720	856063.524107298213	3943.0163808496
0	16725	856162.920304604443	4038.6773998563
0	16763	858549.139058888264	7791.9363341631
0	16768	858669.000877081091	6035.9276322237
0	16822	861961.906487479058	9219.8485839116
0	16854	862439.554964662227	6249.3588555605
0	16859	862603.64113666038	7115.6364617936
0	16870	862898.177111922195	2528.6293593364
0	16876	863160.581864852025	3837.9371574533
0	16881	863304.713679914737	2240.6613156615
0	16886	863360.451821745819	8473.1979479305
0	16904	864895.438818299029	8519.9646354821
0	16916	866352.394930602828	7075.6934176632
0	16931	867538.263438040531	6853.8953166646
0	16950	870839.76373084552	9250.8538958327
0	16959	871167.986009396466	7756.5477660995
0	16967	871641.010078868206	14303.318287212
0	16984	872000.730479863399	6391.7682405794
0	16994	873649.750572795904	4524.5348992058
0	17021	876051.259141706086	4373.5663503011
0	17029	876357.989685734558	15393.637407937
0	17057	879564.881217353453	4309.0786634131
0	17099	882347.862099037792	5205.4882870239
0	17120	883320.114643373911	8246.7917350977
0	17125	883511.085643465352	5754.3339238518
0	17137	883792.116243663816	2001.5094526575
0	17159	884962.196070441754	2731.5830473845
0	17167	885266.938896632686	4273.8800776367
0	17176	885594.781397920441	1932.1418140412
0	17186	887274.198301553047	5429.7113146486
0	17203	888689.936789027367	4504.2120610381
0	17232	891913.652142919132	4554.2332089773
0	17261	894166.620654614855	13065.028243459
0	17266	894416.53870877873	4626.1843537409
0	17274	894817.578933983895	4538.399591149
0	17317	896893.028187815475	4990.5418242916
0	17337	898173.518255824223	2436.3739396346
0	17357	898710.754286262329	2497.9177851995
0	17367	898761.376474026197	1661.9100114075
0	17376	899434.155978638144	4164.037490062
0	17422	902123.285921043751	4101.5757276937
0	17431	902823.587723862032	3356.5089796087
0	17439	903224.354978935729	10949.160260694
0	17456	903983.292328046978	4008.0459342753
0	17462	904451.518976868771	9218.4447193269
0	17561	908439.91966742522	7259.6062115087
0	17570	909202.403314620875	4128.7875466653
0	17576	909539.739679274959	6321.7978807336
0	17581	909837.946514018842	5041.3917429885
0	17599	910737.440287305736	11179.835937156
0	17619	912083.517410516154	6195.2506679555
0	17624	912311.544460928417	5580.4909768235
0	17629	912394.535987542515	5971.6104525673
0	17644	913131.732070982824	8674.8342344973
0	17670	913615.067115070816	7396.9042774797
0	17686	914637.417492520732	7529.7989312985
0	17716	915745.90490648399	5391.7499119794
0	17721	915763.156782678646	5078.9205362187
0	17726	915811.000068238548	9737.5501275369
0	17735	916667.29666713369	18033.669512599
0	17744	917380.518530795294	3702.6648519809
0	17757	917992.63079218157	4320.1858992548
0	17766	918237.451066588438	3679.7023592571
0	17796	920947.031838248583	7930.7162236018
0	17808	921877.642379700397	4515.8209301112
0	17814	922642.741143406835	9816.8165345114
0	17819	922647.54817326559	3644.0162301498
0	17847	926219.293306508143	5993.9186322661
0	17873	928073.089375756358	2731.1444819749
0	17899	929703.280762419496	2199.7561468169
0	17908	930095.438589664334	1066.4049131964
0	17920	931076.079425126578	5905.2517266087
0	17934	932102.240041863239	5682.0879838163
0	17942	932234.627251364721	3094.8296765876
0	18031	936236.566468079861	5261.0750142999
0	18036	936452.174289203554	23288.745833386
0	18048	936961.04152928051	3426.8853540697
0	18061	937429.042663227774	4670.8425427578
0	18066	937551.330001775772	3615.0324436561
0	18075	937944.534694834712	3376.5375456218
0	18083	938304.814010805721	6044.1535404936
0	18106	939664.672382310982	6724.9310962055
0	18114	939688.283921468195	5831.7031214375
0	18119	940099.425123705712	2018.5027354735
0	18128	940620.015429689605	5731.7695285834
0	18154	942764.896234120777	3689.3278445841
0	18167	944401.893602503686	7721.1591390634
0	18176	945220.392054636685	4314.9883425716
1	1671	79293.551632074551	99.535150086147
1	1685	79580.55198726518	2.181284235903
1	1699	79791.112967169382	24.326826435593
1	1715	80085.361029772415	106.73245406848
1	1726	80266.141831260427	157.73888150138
1	1773	81797.437257180128	417.25697088503
1	1784	82174.637568617187	315.22373612134
1	1789	82207.8678756823	62.143940997851
1	1821	83722.608029947765	557.15382570605
1	1827	84436.325744108919	958.74770682403
1	1835	84731.831682359545	5.361589348772
1	1859	85663.975986437403	143.87687574388
1	1879	86308.989155735232	278.43558734584
1	1928	88673.088022652684	69.06526472668
1	1998	90984.60770277703	0
1	2006	91336.688691159616	304.61993426063
1	2015	91738.371042231298	0
1	2046	93220.004325024622	649.43151040271
1	2055	93762.586962614029	1061.2404607661
1	2060	93790.778741877013	297.66109554651
1	2107	95832.913290293677	215.11974485684
1	2124	96652.136812995645	121.4924130959
1	2133	97077.629625435145	391.28892826318
1	2141	97363.680335726273	0
1	2153	97737.440177920551	270.36861479188
1	2174	98466.158459752065	0
1	2204	100136.749014033349	1364.8656314862
1	2210	100492.798792549132	1421.080435335
1	2222	101308.682362871589	1270.8267994176
1	2227	101322.593100231938	421.46202678672
1	2232	101339.717432266713	394.06571294853
1	2252	102151.199600733699	645.45234762994
1	2257	102368.020198792921	506.93951494011
1	2307	104269.290171218983	49.696807149628
1	2319	105044.805267899978	136.40036111063
1	2368	106997.155651774545	84.723211526411
1	2377	107341.187091520088	240.62017339988
1	2404	109771.721582740296	0
1	2421	111288.252439833268	0
1	2430	111655.52367041779	0
1	2438	112060.795013674163	0
1	2447	112613.03371338835	0
1	2463	113131.861086739889	0
1	2472	113564.294057470519	0
1	2488	113902.325930437603	121.5799242945
1	2515	115817.170081042057	0
1	2543	117032.127072887708	35.674187605287
1	2558	117746.209404308913	747.11591856633
1	2563	117798.081386904503	708.11822211066
1	2571	117887.71446014421	430.43628330394
1	2576	117910.545906460979	235.21894335446
1	2588	118737.130487840707	197.25595686018
1	2593	118746.463502365538	70.748520464294
1	2604	118811.497139279898	44.648498515796
1	2619	119459.13060000118	681.69297551103
1	2628	120141.675230591802	1192.1102688837
1	2633	120331.848399843877	427.35536332147
1	2665	121175.233433176226	0
1	2688	122393.692821235048	205.83022931196
1	2725	124091.867368722196	591.19495294749
1	2757	125126.770808196495	103.70274937849
1	2775	126407.979503734581	0
1	2784	126884.574641825277	0
1	2795	127276.412813717959	309.3591084066
1	2834	129188.617170332568	0
1	2843	129655.237764299482	0
1	2852	130592.83347359541	5.89591916344
1	2892	135339.559003247136	808.76031493906
1	2904	135648.186347373802	914.27062024028
1	2912	135921.110976671755	298.69818186598
1	2934	136654.066889891165	469.32608131985
1	2956	137389.560183871117	0.535903554159
1	2964	137849.88030958263	284.44930114982
1	2985	139016.842309041671	390.98778019862
1	2990	139024.784138717293	350.68931535849
1	3014	139534.628524997525	247.59465367533
1	3034	139952.042685435767	161.25576727914
1	3039	140032.238477617984	147.5691935624
1	3047	140054.260591279037	0
1	3073	141406.353404132297	601.92916622456
1	3097	142234.956675565786	0
1	3114	143038.114151220821	0
1	3123	143977.080997705245	833.4063311297
1	3148	144631.258858016086	0
1	3160	144932.404020537937	33.09578379355
1	3174	145165.682586767576	193.34312572187
1	3210	146442.253374518851	664.55393102644
1	3225	147151.442990943946	1324.8371551408
1	3231	147587.802226244759	1061.9511275521
1	3240	148297.374547491983	1691.9709316457
1	3245	148465.558677707824	186.32262276423
1	3281	150022.753982878961	480.97060030801
1	3286	150337.341781452209	778.62269395816
1	3299	150662.846144869171	0
1	3350	153017.326571995463	0
1	3359	153517.24735773249	0
1	3376	154413.849705364244	435.58844368204
1	3392	154915.613295015507	214.02997898918
1	3421	156223.387586052006	203.6590993051
1	3432	156733.194365491254	615.67901853649
1	3444	156957.86810776113	342.0670098631
1	3449	157095.294506123747	319.19612704475
1	3454	157228.968756933543	393.31926216376
1	3477	158060.181736419674	490.24845597611
1	3482	158102.500486148451	457.05173906567
1	3493	158427.792858675881	181.85171196314
1	3507	159234.217854780854	8.322942976699
1	3535	160465.753204455297	164.35822848151
1	3598	163832.788044860377	156.28682255347
1	3614	164497.709086285316	366.60687973562
1	3626	164955.785761686298	482.37182341449
1	3635	165890.738861995714	1143.3896027606
1	3640	166132.005551712608	1224.7356276647
1	3649	166320.319348884825	32.627545028857
1	3662	166794.798893808037	0
1	3671	167153.016514468324	121.23168976577
1	3687	167825.088497884179	118.08501388823
1	3725	169745.253265796492	618.79159668376
1	3746	170329.4579300937	0
1	3764	171617.437620561138	0
1	3772	172006.049280940853	0
1	3789	172894.630205388018	214.02247932143
1	3806	173863.48099289449	0
1	3815	174215.739046950174	200.47061073318
1	3859	175599.900089171914	118.25235489294
1	3865	175884.678885668095	393.47026174423
1	3909	179683.730719413817	0
1	3918	180183.915366308063	0
1	3926	180840.358703429347	0
1	3935	181498.185348032446	0
1	3943	181658.264299306626	12.951645240608
1	3955	182008.883920140182	176.31269604953
1	3978	183034.8176014394	647.3635687234
1	3986	183134.83061118418	334.1569002273
1	4002	183277.954910804857	32.10553522757
1	4036	185432.593853270693	0
1	4044	185572.238347854931	49.513363665353
1	4060	186000.636609292803	0
1	4086	187625.269656922038	332.63939052163
1	4113	189671.028271989237	0
1	4124	189950.017730995811	211.50922338669
1	4132	190084.168883342234	85.135430543743
1	4155	191450.256985357504	220.4007180792
1	4164	192352.108681991674	0
1	4172	192732.016769592893	132.65652067602
1	4205	194611.21353016577	597.32438164087
1	4210	194613.468062268333	108.4423285735
1	4218	194622.183909691632	4.748366123524
1	4248	195538.931344042424	0
1	4264	195887.400805094158	99.290041479564
1	4281	196535.859970622583	0
1	4324	199437.201034148677	32.074816030719
1	4335	199711.015501098255	257.95414841583
1	4349	200345.061494445544	0
1	4375	202080.139914580151	0
1	4383	202258.436705509634	0
1	4395	202649.690664470508	204.52363577922
1	4404	203248.78016819367	216.25462594016
1	4427	205198.337937704634	0
1	4439	206030.094895546206	495.32410803384
1	4466	207270.841778517191	1134.2434906225
1	4475	207804.968744917137	1449.5176993761
1	4480	208178.229437147556	1715.3904222621
1	4486	208538.964391803807	1701.8982980001
1	4494	208667.218631286859	1520.3144596378
1	4499	208714.19336012565	1435.1248984084
1	4504	208803.199751578196	184.21643939863
1	4524	209857.344601336376	81.377441071239
1	4588	212711.060390818222	0
1	4596	212953.606772641359	0
1	4621	214185.656647591958	301.98157381933
1	4646	215049.161736514492	0
1	4666	217913.211508471441	0
1	4675	219262.254627432311	0
1	4683	219307.052983955409	38.085278726573
1	4692	219578.690089993574	248.56191685486
1	4733	220898.372207669862	51.161873375823
1	4742	221364.719487945423	0
1	4759	222203.504502332799	0
1	4767	222239.193352364034	0
1	4775	222371.43532595036	18.70287361975
1	4800	223650.007407791177	0
1	4810	224664.668592542252	0
1	4835	225966.394248027723	0
1	4853	226987.421515373678	601.13412921752
1	4858	227115.72483992106	664.57189152749
1	4870	227225.042669018912	535.72813131235
1	4878	227471.713066798557	678.81190574768
1	4894	227792.86507534353	3.870835662744
1	4922	228342.567172413522	181.97566251051
1	4927	228384.284928469488	137.12371292734
1	4935	228578.668524502616	12.994556073588
1	4958	229630.684888086814	397.01266670578
1	4964	229815.336247916817	193.57866961716
1	4972	229968.361336513753	75.345699392313
1	5027	231631.041229523353	444.93717469321
1	5032	231642.881204024994	307.12556168053
1	5060	232899.921996116821	282.78491367779
1	5065	232952.989286693303	148.98175516031
1	5077	233275.560024347569	196.28780295577
1	5085	233480.189543282917	372.24956415808
1	5097	234105.087635668071	817.35372730221
1	5108	234468.791365420784	706.23783834008
1	5192	236786.640639822287	0
1	5201	237771.787348137868	0
1	5218	238809.983213196882	0
1	5236	240276.232631401354	0
1	5244	240794.985251536892	0
1	5268	242340.954684937191	311.69244654368
1	5290	242642.856375631137	220.91496871284
1	5295	242876.525370329758	430.57245077587
1	5314	245149.741634054036	0
1	5349	247901.380823461116	98.237923979198
1	5360	248523.971621975196	175.13029887458
1	5393	251516.297215027688	0
1	5401	251737.567585594786	57.822749737278
1	5410	252020.231811027014	0
1	5418	252067.335957969617	41.469082528303
1	5462	255804.259290537379	0
1	5479	256953.079344215815	0
1	5499	257902.772752285246	110.73978664336
1	5508	258314.919423090689	288.79543872899
1	5522	258863.480062829094	0
1	5530	259056.406088956013	38.583490138913
1	5539	259748.671767392766	0
1	5547	259853.622781360927	0
1	5564	261173.277503866046	51.382539777689
1	5629	269108.348298654371	0
1	5648	271695.148738686475	0
1	5666	272844.797221636606	0
1	5674	272986.550884305658	29.517737728428
1	5682	273299.691279130114	123.35826534024
1	5691	274289.385635310974	0
1	5708	274956.241558518239	0
1	5751	277211.535525420587	0
1	5760	278376.844701495039	0
1	5769	278583.08228350486	0
1	5789	279518.579901038135	645.94768661963
1	5797	279711.58907927862	787.12678916499
1	5808	279949.250150061484	156.48266434773
1	5837	282701.972376971173	0
1	5854	283308.849404586497	15.490939311041
1	5874	284023.311549663488	210.9182603033
1	5879	284111.514339723481	149.25957057868
1	5896	284588.640268944389	54.972699160343
1	5924	286013.052109477118	550.2744738094
1	5938	286712.581052097452	28.015608686783
1	5957	289304.412348252439	0
1	5968	289583.400804578624	154.5915415926
1	5983	290590.175206048899	0
1	5992	291720.195617703173	0
1	6017	294678.561906030582	477.52848180002
1	6026	294888.563110138521	137.31595812688
1	6051	296360.458005736545	122.83033541954
1	6073	299395.91148853013	0
1	6082	300351.398202374381	0
1	6090	300521.817942943023	0
1	6108	301947.654790587881	384.91837203653
1	6151	304367.394960456775	0
1	6159	305074.485504979411	20.484447299595
1	6168	305622.016499096862	0
1	6180	306324.468719144907	406.93779279395
1	6202	306863.643776275654	0
1	6210	307078.743208271053	0
1	6235	308110.336246478196	82.073033357273
1	6261	309445.473182106627	0
1	6269	309821.80974656349	114.48458422776
1	6287	311687.456007927548	0
1	6295	311805.508736088445	31.688993954237
1	6304	312625.707636039675	0
1	6316	313116.051629788215	168.69842170274
1	6337	314617.352706868651	147.13029589603
1	6362	315823.324475909733	264.287958344
1	6370	315942.584592774331	79.034799031598
1	6390	316776.820737227314	327.56408816185
1	6404	317091.283734590713	191.90967633846
1	6410	317551.736333986362	491.3905668918
1	6437	318403.333472694973	361.43669645476
1	6473	319758.340859859562	0
1	6507	321679.246895545073	0
1	6516	322614.772554728781	0
1	6548	324100.932238184195	431.00416259306
1	6553	324114.863562564417	392.04682161164
1	6561	324738.683912904002	683.34719737797
1	6566	324855.304563195086	230.4758831885
1	6591	325428.412386240303	76.420142807928
1	6608	325759.796528439286	0
1	6635	326412.143618524948	22.795132056579
1	6657	327554.072310425169	739.77356278629
1	6662	327652.991355933975	532.32248994065
1	6673	328195.72199703488	998.65122870336
1	6681	328264.723071528214	973.87242212874
1	6690	328449.668731110165	185.39726793215
1	6695	328624.900393838911	236.40144049733
1	6731	330408.650092143951	368.11950146087
1	6742	330537.429267052602	100.25797904416
1	6751	330917.331596633551	478.83410814349
1	6792	332827.632891389068	0
1	6808	333107.021901553658	54.636566366193
1	6842	335081.792240539449	0
1	6854	335662.924460450154	578.11136463321
1	6879	338720.96246538594	0
1	6887	338949.807711958194	98.24871482167
1	6896	339739.869858483824	0
1	6922	341641.595132035109	116.05786283326
1	6949	343893.371036884593	91.275653741201
1	6983	345742.74663453192	100.65732690353
1	6991	346223.427822578537	0
1	7008	346958.451387411957	38.842683602616
1	7026	348331.82119613158	0
1	7035	349017.970568588304	0
1	7052	350038.777949676749	0
1	7077	350601.644272215417	97.853355453369
1	7085	350764.632054369002	103.67334983877
1	7093	351143.590502166857	0
1	7110	351746.232512270666	102.28673512636
1	7128	352870.651262088975	1054.0756779487
1	7137	353432.204944621929	1062.4510726917
1	7145	353654.805604144567	1059.5875145356
1	7150	353740.896350704658	243.20544993439
1	7194	355716.645282448878	0
1	7203	356556.571000724547	0
1	7220	357399.099089657221	102.59356466683
1	7230	358323.71629343347	553.80389972045
1	7256	360121.350967626095	0
1	7281	361596.198629079361	271.33048238918
1	7290	361844.503500690161	0
1	7311	363419.602216050959	1529.4286905722
1	7317	363491.568975116796	1266.3190311911
1	7328	363799.245555291378	1231.8890046166
1	7333	363986.802424383442	334.37397711331
1	7338	364167.067372571231	404.75798320237
1	7372	365664.329340888074	25.017532774731
1	7393	366958.914147593903	216.3006456813
1	7424	367636.608030926054	201.35073405026
1	7433	367832.675318186659	44.648264422732
1	7468	370801.982817292798	0
1	7476	371039.50040174758	0
1	7485	371237.333366743588	0
1	7510	372484.691007520322	0
1	7519	373077.222211664575	0
1	7533	373436.484538731254	54.729881481212
1	7549	373672.547846366892	150.89573599794
1	7561	373895.327948432626	211.67229252132
1	7584	374907.804247052996	189.80056919687
1	7622	376476.772426649841	782.21978234802
1	7655	380063.132956670332	0
1	7663	380077.791742903046	0
1	7677	380388.751284171403	308.42697753687
1	7683	380669.526619152685	324.68713953068
1	7716	382263.450471429365	388.26809700749
1	7726	383397.221027525831	65.895072495685
1	7735	384122.146469832223	655.96652606127
1	7746	384531.980771691707	186.75437198963
1	7761	385355.03448265423	972.76213730603
1	7770	386005.429303674697	493.79030373188
1	7795	387268.721176382491	25.334454614587
1	7837	389513.104583092799	25.667552055968
1	7860	390922.487805270409	0
1	7868	391332.980528368192	0
1	7894	393046.024104094767	0
1	7913	395669.234291283755	0
1	7922	396582.862646560391	0
1	7939	397266.616265280447	0
1	7965	398974.001717238962	0
1	7974	399497.132842658355	0
1	7983	400700.622518437391	0
1	7991	401110.940907675967	373.86508029046
1	8008	401992.529723662933	0
1	8026	402981.29813806817	0
1	8042	403333.859245342197	0
1	8075	404491.297625333099	0
1	8084	404636.816403758925	59.966902459117
1	8101	405590.103423445656	0
1	8120	406197.687484288514	151.31192726867
1	8145	409236.189492705718	0
1	8154	409928.836954352409	0
1	8168	410478.961504764605	483.72076011426
1	8177	410805.89747014592	717.4818653514
1	8182	410824.499056506848	495.36757783615
1	8187	410971.452661145713	466.62040976882
1	8205	412300.313866674338	0
1	8225	413108.325678072139	363.85991176932
1	8234	413874.914734883263	780.48467528261
1	8280	415459.627964093261	0
1	8296	415705.111453875191	0
1	8317	416345.579806414642	540.64823091867
1	8322	416512.467826643488	427.8917336795
1	8355	418244.586697569464	0
1	8364	418364.131519140693	0
1	8372	418584.770966550998	112.39363063113
1	8389	419699.39551290202	477.13495673005
1	8406	420673.080324759865	596.88060397444
1	8423	421233.856657254286	354.30736624295
1	8432	421965.992381205387	0
1	8467	424347.325930465201	0
1	8478	424482.536887859908	90.163059706483
1	8518	426913.744383062474	0
1	8527	428279.917582421816	0
1	8545	429512.202860371416	0
1	8553	429796.279827305696	0
1	8580	432033.238408340632	0
1	8588	432635.825050322238	247.80392426537
1	8597	432903.446051432167	0
1	8613	433135.325180235183	0
1	8621	433587.819709542662	0
1	8665	436315.05277862802	0
1	8682	437464.416048544017	0
1	8717	440079.430238803476	0
1	8725	440180.390338421197	0
1	8737	441217.455569940092	806.58605476006
1	8760	442796.879458445752	0
1	8772	443469.596491980674	220.12489286188
1	8780	443788.444996959761	494.38509503956
1	8792	444216.065276494797	474.79446899059
1	8797	444424.567660870737	382.62311627722
1	8809	445221.273772310372	1115.2797703551
1	8814	445447.814727363279	768.039283345
1	8854	447514.555471289915	1259.8471898387
1	8866	449032.118795124065	2569.2574118188
1	8872	449607.278704016465	2962.3956261152
1	8880	449704.813505601973	2894.4230217701
1	8886	450149.042076749846	2456.9442890626
1	8926	453419.322087504913	643.24647533834
1	8979	455001.030621489087	974.2523171308
1	8984	455012.600202053556	947.71597204112
1	8990	455206.996550867775	757.24580268853
1	8995	455450.247930920385	813.38813417127
1	9020	457284.798553758833	1172.9409125182
1	9025	457353.563056593162	296.15496018408
1	9030	457364.997835418747	105.21761828632
1	9047	458051.807727055042	165.55110081021
1	9092	459692.548608714698	0
1	9100	459806.883936110148	0
1	9112	460782.691561476272	490.42707157606
1	9126	461431.306904623752	264.618463816
1	9151	462533.868454843339	0
1	9163	462939.550517288823	212.90592023392
1	9171	463337.783639867596	149.77579998579
1	9185	463711.975727855706	85.61024026525
1	9213	464541.364380819782	359.58576111618
1	9222	464874.527780851506	507.80533234794
1	9231	465503.834275472541	693.07601379157
1	9242	465918.353861012138	962.72895320423
1	9269	467238.245022614883	561.8932982023
1	9274	467407.693724391024	613.12606014606
1	9285	467625.731085542289	672.53506584889
1	9299	467778.131294010451	576.44819823907
1	9305	468033.392533670295	332.64986609681
1	9346	469941.763943236377	15.327173613191
1	9378	470653.932003177751	57.742755514267
1	9389	470831.488345040314	121.93575759068
1	9424	472448.910026394566	245.11820983373
1	9446	473540.724296398232	277.38050283615
1	9480	475448.884953467668	989.1987612202
1	9486	475804.832572753642	1060.2335697474
1	9491	475838.030598334928	903.0938674423
1	9531	477397.774590322818	165.3303038932
1	9553	478264.463082936099	0
1	9563	479222.421991770733	0
1	9577	479597.687469683008	314.99736687595
1	9585	479838.542834100477	537.48675541763
1	9602	480239.581626890172	129.89788211538
1	9610	480311.370197749912	120.85868933271
1	9656	483770.561084660549	0
1	9665	484413.894364525081	81.788803285174
1	9682	485388.096438804119	0
1	9690	485562.488960722107	105.20600986777
1	9715	486644.580038352168	0
1	9747	490873.75780823249	321.47438377925
1	9756	491544.194724423942	683.33966684546
1	9770	492102.106646402252	0
1	9778	492388.582979063046	0
1	9786	492664.300325283075	192.45212255235
1	9795	493304.75437721091	597.40769400355
1	9807	493908.640683411729	292.34541462627
1	9818	494043.934095525525	133.87550791126
1	9823	494370.629841744286	389.39951593634
1	9868	496082.286973670751	765.67736582268
1	9873	496098.412012164361	555.49898283519
1	9885	496974.438647093651	957.20179822806
1	9893	497112.122810916969	673.87466696712
1	9898	497116.766655739629	428.24514176746
1	9913	497739.344342627828	730.76351514528
1	9918	497826.12430090996	381.40612155544
1	9923	497828.466179363828	281.82508345572
1	10004	501087.446572401705	0
1	10022	501955.619467178327	643.81247792279
1	10057	504748.661455342949	309.07337664101
1	10098	507889.768870740745	367.26789835713
1	10103	508063.310026402658	275.85193911828
1	10112	508772.817431206532	981.56851696663
1	10126	509224.091886537782	58.591430902106
1	10134	509521.727170531297	0
1	10142	510007.91413213785	0
1	10155	511262.508980042901	769.59198608397
1	10178	512615.597695813342	0
1	10186	512743.440784962731	120.4192694269
1	10194	512783.696983711817	0
1	10208	513352.238364498912	196.46779019705
1	10229	514805.932301076415	276.01481550044
1	10247	515778.166579206426	438.63457682644
1	10258	515906.098626446848	244.36040066861
1	10263	515953.015356054321	84.894082022933
1	10277	516339.420335912763	313.6677726672
1	10307	517121.492754353782	178.49056938029
1	10322	518157.349914153256	1183.0726259917
1	10374	519874.566239907003	626.66783691971
1	10382	520193.294256650606	713.85979618273
1	10422	523226.334157402741	0
1	10441	525594.094092133901	0
1	10470	528051.173808465862	2456.2447017639
1	10478	528672.075226923728	3039.0617292261
1	10486	528732.421040899534	3093.0670853231
1	10498	529216.533275724639	3234.768456083
1	10503	529263.235871876377	3272.4849160888
1	10508	529285.349857703443	1235.7695174932
1	10516	529475.055976216525	1180.9186283547
1	10525	529888.733119304165	1177.3348250706
1	10533	530288.870982347003	1291.4523950031
1	10585	532347.299999639753	0
1	10594	533238.497969211763	0
1	10608	533576.221531391559	287.69521062027
1	10652	535607.334297964174	0
1	10702	539031.300680542266	369.35880659413
1	10707	539046.478811863892	200.33057816564
1	10713	539489.301539351968	506.21515446723
1	10738	540770.163650742027	0
1	10747	541132.65631407686	288.98569366055
1	10756	541759.99120330305	521.05632308482
1	10764	542571.385183846889	0
1	10782	543507.026119365377	0
1	10796	543716.973061076332	45.421161788435
1	10823	544640.445878458562	14.318417393255
1	10834	544930.250467241921	272.61034125688
1	10843	545477.252187089704	794.51594017585
1	10848	545798.880032365668	463.79659827818
1	10857	546361.791639887521	0
1	10865	546822.634724136719	0
1	10933	550021.452703033513	0
1	10942	550474.128494009512	0
1	10953	550597.045089639992	59.925646185861
1	10958	550644.813265525427	81.927032504763
1	10985	552902.060274537506	88.481018270104
1	11006	554010.233420555675	783.0782009377
1	11011	554031.794860535525	639.13189607473
1	11016	554530.445798044189	859.00929039145
1	11028	555174.210733322748	1233.0470380348
1	11049	555465.22293886285	471.26798864415
1	11061	556568.048076192335	1370.1063776421
1	11066	556825.536333207301	1518.8955910014
1	11081	557323.068896565455	1901.7130678427
1	11086	557359.364245233233	1504.4792692505
1	11091	557580.499414404293	1270.6070333295
1	11162	560826.947591789836	0
1	11221	563674.457426200364	407.97233369335
1	11232	566350.075255459691	0
1	11241	567197.45426595867	0
1	11269	567833.368455848824	42.475887573174
1	11274	567942.162196027305	120.74698770212
1	11282	568045.822550113434	0
1	11317	570299.018214054421	0
1	11334	571578.921998522117	0
1	11343	572289.38010689418	0
1	11359	572428.904901989904	0
1	11368	572995.009417008088	157.92152956818
1	11387	575898.889706700192	200.2022277285
1	11424	580292.973976872559	0
1	11441	581119.442124948118	503.75661457248
1	11468	582966.30855400048	0
1	11476	583554.221555820819	0
1	11484	583704.975293432523	24.781217105121
1	11509	584286.537364227869	0
1	11529	587158.105772693835	0
1	11537	587507.702787949767	0
1	11545	587679.58569293603	0
1	11571	589253.663001451277	41.96326246836
1	11580	590291.305341146788	0
1	11604	591763.202902062642	445.5625665774
1	11622	592177.448055391105	0
1	11639	592509.311139326283	0
1	11674	594904.543240054196	0
1	11690	595290.479081042507	0
1	11699	596528.585704725836	0
1	11718	598927.693973496075	0
1	11728	600134.065768928539	0
1	11754	602020.025375638454	0
1	11772	603772.43997368734	0
1	11780	603852.843151389934	0
1	11789	604505.982875875624	0
1	11797	604593.863754335523	0
1	11831	606080.79086192873	107.96893154575
1	11839	606258.768596558722	0
1	11873	607952.967780148584	0
1	11881	608188.781760958963	132.87795961099
1	11898	608756.202641646227	0
1	11906	608997.140162224538	0
1	11918	609688.532525450072	411.72516895949
1	11932	610417.377860299174	9.87710100303
1	11958	612036.532415736713	0
1	11966	612303.637788109519	0
1	11982	612508.44449707126	0
1	11994	613066.131166842354	295.0829739782
1	12016	614543.987003279774	0
1	12042	615608.077496941675	157.44756255936
1	12078	619616.652046101961	0
1	12093	620265.565911265238	303.16383479327
1	12098	620320.493345819391	330.81976295826
1	12104	620791.662710006024	660.45392405361
1	12121	621441.597612492884	0
1	12142	622338.203117291531	711.01778219603
1	12147	622528.120476243437	745.28750278343
1	12152	622567.557300114875	744.08657714989
1	12179	623673.24652562819	0
1	12188	624193.292229940894	0
1	12196	624301.15464174833	0
1	12204	624594.521261406257	0
1	12229	626569.579701738641	457.63184867342
1	12273	628048.573302100638	51.055399084478
1	12293	629025.605763287344	350.83997382468
1	12322	631065.660927361179	509.57534579062
1	12334	632212.222882217157	182.18915988044
1	12362	633040.488661095946	401.13063122102
1	12367	633072.837451432313	94.111442176054
1	12375	633361.389430487845	22.279622503563
1	12411	637453.320885399182	0
1	12427	638648.747133492419	666.61479905998
1	12435	639273.534832148013	763.82438235342
1	12450	639528.735702510784	119.65665908945
1	12465	640602.306757269346	1172.0574101095
1	12470	640647.807745409758	1085.113700529
1	12485	641915.417841935605	1851.5826087563
1	12491	642077.480851664206	504.40781765027
1	12520	643178.412883686138	63.624771618883
1	12536	643475.169643103479	242.55001995954
1	12545	644516.597177317302	309.5221086858
1	12565	645159.643406662203	353.91490096249
1	12587	646240.779949649002	550.1885497328
1	12615	647701.493632416422	0
1	12624	648171.085456766132	0
1	12640	648425.277140567607	32.576127620328
1	12655	649298.722819599958	419.30725515401
1	12667	649745.66965498746	647.53329715793
1	12683	650422.012893337714	81.239781002225
1	12719	652006.902270193914	59.160362408746
1	12733	652677.654553415984	0
1	12741	652782.052264948944	0
1	12752	653155.893647984629	307.20906965488
1	12771	654392.420871203419	188.36358827893
1	12787	654730.271909481791	54.906538690499
1	12814	656008.567567501989	909.43923575149
1	12826	656962.691718594979	1503.7795151648
1	12834	657008.596169083189	1395.8275356153
1	12843	657729.775976148291	1776.7505693078
1	12862	658457.571004071432	200.98791206507
1	12899	659693.449605304474	468.2818964066
1	12930	661052.073328542348	73.834228541092
1	12946	661567.195540384533	305.8785872335
1	12980	664642.218463778722	1326.7801151063
1	12994	665084.765923810999	1714.8672355092
1	12999	665132.816822392856	1666.7165300178
1	13015	666086.626200660326	2331.7698488639
1	13020	666363.794036036102	1689.3564960854
1	13025	666510.964576650675	1475.1577539714
1	13034	666913.17511550701	1133.8621416866
1	13042	667096.746633583255	205.72125518623
1	13064	667828.823165859884	212.92809003396
1	13078	668282.578091579597	301.41199717321
1	13095	668890.40882653251	290.4932295124
1	13112	669563.961787322299	203.58379887513
1	13129	670857.063240228445	66.956191279078
1	13154	671280.346133807304	125.92467901991
1	13162	671736.739278109092	528.93426182557
1	13176	672186.377770419218	250.50881893003
1	13184	672775.697088415063	19.928539096895
1	13223	675730.12582166538	30.57845443516
1	13246	676683.152138478574	904.87169060099
1	13251	676711.969001885144	384.15236732743
1	13263	677405.952268225916	1057.6597487475
1	13271	677789.889959616665	651.14122668127
1	13285	678211.322513793657	349.26261728445
1	13310	678952.603265173576	361.3550451458
1	13330	680016.325047479008	56.31805118508
1	13352	680719.559606521406	172.50208670724
1	13363	681008.54803242462	432.24192716435
1	13379	681258.63712500942	60.99076601947
1	13443	685328.495422050906	0
1	13451	685615.682490646253	0
1	13460	686123.455911417163	0
1	13495	688280.706103320437	1308.0905434314
1	13501	688509.597230785596	938.15948451707
1	13522	690912.632562113927	0
1	13549	693514.735654921673	71.428427975557
1	13557	694066.62762151046	542.06806736459
1	13566	695096.597580371782	0
1	13575	695697.951604676586	458.73358674735
1	13598	696229.768234202627	89.491810674665
1	13606	696786.41038974038	610.94448982284
1	13615	696913.887393944547	131.4450453232
1	13629	697373.262390649624	322.92797620371
1	13637	697536.085706193762	91.205714096249
1	13691	699234.71074203273	15.264536398066
1	13703	699912.872108761158	596.96675354203
1	13708	699941.572355574795	210.26958780983
1	13744	702547.741210032081	1067.4393332362
1	13755	702815.024165337113	260.0486075392
1	13764	703318.514449115144	388.55330295141
1	13794	704727.644280317929	0
1	13802	704924.043957649348	0
1	13829	707472.393706656858	0
1	13863	709195.226561796454	0
1	13871	709674.509464214832	0
1	13888	710040.611646366057	204.26729224271
1	13915	712800.3153240219	63.240752757999
1	13939	714228.231421770841	297.09896769164
1	13944	714616.674989242549	609.23186375475
1	13966	715483.586069279846	188.66142187869
1	13975	715813.903847703314	0
1	14000	716588.750266097993	53.459303230998
1	14008	716885.185067584603	204.69756325403
1	14020	720017.464960996132	0
1	14031	720256.335107368064	109.82062327756
1	14036	720386.205372530427	141.61558011787
1	14045	721191.857180174369	0
1	14054	721830.778844366477	0
1	14062	722218.40150557438	0
1	14078	722576.682007724415	0
1	14087	722975.485194237349	0
1	14164	726226.058550342308	735.88653287546
1	14169	726754.576420489153	662.71470901614
1	14191	727666.002117161941	137.54664947337
1	14199	727708.306685371433	29.675993225691
1	14233	731781.261525102816	0
1	14260	734072.497766151997	0
1	14268	734169.966342227414	0
1	14286	736255.373172841252	0
1	14295	736916.854375198408	0
1	14322	738551.7497094622	980.05913849301
1	14327	738827.816811980389	1235.0716007655
1	14332	738832.408258224018	356.90190555619
1	14346	739383.147158075233	103.57342608869
1	14387	740529.366519680196	179.16503117864
1	14399	741303.594109633671	280.21670211684
1	14404	741351.300215784349	245.45424456545
1	14439	743243.259824817452	0
1	14447	743745.464510723344	0
1	14462	744263.502521903515	442.18912576107
1	14470	744636.683595065004	190.7643875829
1	14482	745130.014375534326	22.213061490027
1	14500	745886.910696712875	479.60316365642
1	14512	746668.252137908431	208.17351011731
1	14565	748303.019493395318	0
1	14581	748910.933694351809	0
1	14609	751509.446723879167	792.92818413837
1	14614	751673.693680469572	919.13590205309
1	14620	752035.130845520014	1196.3400009989
1	14628	752207.961527072691	98.638110397063
1	14643	752822.467350958484	505.48929441105
1	14651	753082.43366579961	536.22489588923
1	14656	753198.650854576769	341.74883443806
1	14685	754813.833907760412	924.55543839223
1	14690	755061.201611749851	1072.9650808678
1	14741	757949.770699360381	1366.6976922865
1	14749	758317.316706283715	1036.3901227976
1	14754	758543.648049572195	1233.1970832187
1	14766	759366.174212798509	1702.1104031635
1	14775	759835.55108483275	1889.195482335
1	14783	760155.627083289188	2020.8129656326
1	14788	760187.9308767589	902.5314405654
1	14851	763775.138674376167	630.72272846949
1	14856	764036.553940122875	704.68131462936
1	14868	764625.373288139195	369.74660683892
1	14879	764966.711943746244	634.99603517686
1	14884	765005.751586292623	225.61460198299
1	14892	765203.166233441179	196.61345736123
1	14929	766021.345182363552	0
1	14951	767817.669181779673	209.20315746184
1	14978	768662.015031375014	358.00537686557
1	15012	770158.417939827312	39.103045495543
1	15024	771329.583091433373	1093.3288408006
1	15044	772100.564264762293	194.94022968554
1	15068	772537.196114982303	50.387325825475
1	15081	772903.723762984445	0
1	15089	773030.812913288186	47.307600471752
1	15101	773717.378377302368	661.85006591795
1	15110	774532.079021064339	528.31077599546
1	15118	774752.792900326727	81.82733927503
1	15140	775246.546973211331	18.711680845203
1	15149	776428.339036332254	0
1	15172	777048.227347420168	63.196750424314
1	15181	778123.508947897812	444.38741154046
1	15195	779012.43312838604	470.88921102365
1	15236	781747.878249224736	0
1	15244	782016.937376517861	263.37127775086
1	15267	783232.35253235418	269.59215140498
1	15276	783571.578895409287	538.43361082409
1	15321	786204.864261411505	0
1	15329	786332.158302446563	86.435140336226
1	15337	786842.865950297503	0
1	15347	788143.844995850099	751.42378291671
1	15372	789090.870167038453	99.913314238324
1	15398	790483.427278632102	0
1	15414	790983.388371278706	0
1	15449	793036.465112925369	113.02015362586
1	15457	793201.119386657455	0
1	15469	794432.608016255608	141.88806778603
1	15500	795469.360519986463	0
1	15508	795673.151559851125	7.309981874655
1	15526	797372.507358729666	0
1	15535	798229.743929326802	0
1	15543	798494.736546005953	95.05747567321
1	15569	799922.970330337581	698.70145141879
1	15585	800517.564296265577	46.734851857449
1	15604	802125.701651400172	1447.4227177574
1	15616	803042.239017044326	1408.0195217602
1	15625	803409.390753059017	1280.0499605833
1	15636	803573.080645101623	967.13894679426
1	15641	803608.590381083118	240.08531150962
1	15646	803664.64849132507	185.47850591738
1	15665	804338.891973377456	212.42222363007
1	15688	805150.063693020795	314.08790293638
1	15703	805737.488059308153	772.30396438903
1	15708	805803.559134040923	562.18937559296
1	15713	805839.655926072192	498.07585904688
1	15718	805909.307759185578	197.22848463054
1	15756	807019.360245609248	30.541392625687
1	15771	807525.389290212094	323.2122009918
1	15783	808417.325121898444	831.34308051266
1	15816	810498.233344796429	364.33375429844
1	15838	811387.816312802652	497.16877948756
1	15846	811612.146674632093	0
1	15864	812362.634387017156	252.5435318955
1	15898	813519.686767085038	248.90775846281
1	15903	813872.253352438612	490.2984709025
1	15908	813951.528840228496	439.15770743965
1	15941	815381.147520615524	1076.9075773034
1	15946	815623.464706614215	1208.7564652523
1	15963	816471.168408992413	439.48716533349
1	16025	818211.80975899534	42.791076913275
1	16036	818479.51904259039	135.75314371007
1	16061	819093.456305396736	114.14123692561
1	16069	819207.635707289655	178.19528762913
1	16081	820093.821632152341	364.98765347102
1	16101	820699.160800631904	75.222716970461
1	16110	821165.658315680316	459.61407756845
1	16164	823554.173053195927	50.015161343221
1	16182	824666.329736796192	112.26960672174
1	16192	826404.179003518219	0
1	16201	827665.347629531188	0
1	16210	828574.095513930667	0
1	16219	828950.396797147038	0
1	16254	831648.48487320562	0
1	16263	832342.637984290488	480.06093825267
1	16279	832954.981042337043	353.61495762872
1	16297	833582.525858191873	604.70650273541
1	16302	833665.668935850662	496.42317578404
1	16307	833797.555408272471	282.14231729365
1	16329	834373.369526891754	0
1	16344	835252.399904751527	426.45362289109
1	16406	838973.242075542166	0
1	16416	840544.155328756595	0
1	16434	842187.697460907464	0
1	16444	843709.527014082253	0
1	16454	845318.29935444741	0
1	16488	847612.760634853782	0
1	16497	847945.719883322023	0
1	16526	849246.242795322478	1008.8322842337
1	16531	849280.017736692947	211.62365014561
1	16536	849386.985025649084	290.42734441503
1	16548	849922.541961788865	434.43028552521
1	16556	850081.154674603703	578.7876932266
1	16568	850566.949949981809	487.15967213726
1	16586	851546.627561725614	806.09224853618
1	16591	851644.54400936581	887.34128464062
1	16618	852175.333275109085	54.825548660451
1	16623	852329.574168021205	205.33126327306
1	16645	852833.096529624572	200.02328476719
1	16651	853444.540540246356	702.48263667888
1	16704	855464.533078822006	577.2792050067
1	16712	855884.350675925117	396.34600105836
1	16730	856190.196109101744	0
1	16739	856606.811000658774	231.33681784182
1	16754	857494.128035617696	156.43624396153
1	16774	859276.701512939625	0
1	16789	859827.234993676047	504.59028627734
1	16800	860546.222196339985	176.67444375424
1	16824	861961.906487479058	1277.5383661032
1	16829	862037.977059676888	1073.6247818789
1	16834	862095.049726496533	1030.9973622432
1	16839	862254.523700954066	665.61386594124
1	16891	863411.438243296978	0
1	16918	866352.394930602828	743.43269131883
1	16937	869125.215673590076	0
1	16972	871677.692791404957	0
1	17000	875073.322908276194	0
1	17009	875255.802553940359	0
1	17035	877142.373812013922	0
1	17044	877756.751719613577	0
1	17063	880993.058818995977	0
1	17072	881309.978495118129	208.38608396225
1	17101	882347.862099037792	557.25530803146
1	17106	882624.272559140557	779.78557223613
1	17111	882820.658479028552	590.04545597129
1	17139	883792.116243663816	129.47665978461
1	17147	884185.724727989241	0
1	17191	887359.418933941818	0
1	17210	889790.354355037875	0
1	17234	891913.652142919132	1634.4728000842
1	17243	892394.011591593522	491.52522806961
1	17248	892484.761795369742	209.56707712775
1	17280	895233.074257541904	0
1	17288	895337.204613452772	67.086124876643
1	17297	895737.144316189604	0
1	17305	896212.836501062836	0
1	17322	897099.466462618715	0
1	17339	898173.518255824223	151.80806247417
1	17359	898710.754286262329	77.127131727449
1	17381	899467.078744253299	0
1	17396	900224.32371819013	666.71936804061
1	17401	900423.051038807343	447.80464503568
1	17414	901780.328521004299	600.01506508783
1	17441	903224.354978935729	6.413180394406
1	17467	904456.897836485569	0
1	17475	904796.554771030341	0
1	17483	905073.615767955563	0
1	17492	905888.266742560616	0
1	17501	906073.44994070169	0
1	17518	906530.959245410825	312.79640781968
1	17532	906871.597891025075	448.67235604982
1	17544	907333.414160122087	602.36067601715
1	17553	907795.635686777551	688.01712555533
1	17601	910737.440287305736	383.28529280118
[...]
7	12494	642147.775566228061	4
7	12523	643193.263254297602	5
7	12527	643202.13064805906	4
7	12543	644516.597177317302	5
7	12549	644687.961191045814	6
7	12556	645093.903670457635	5
7	12559	645143.36861727092	4
7	12568	645406.126117541543	5
7	12581	646116.968348010225	4
7	12590	646418.028425701346	3
7	12594	646565.948463534021	4
7	12618	647855.594309900992	5
7	12627	648185.810989912956	6
7	12629	648341.177735155318	5
7	12649	649294.094098967144	4
7	12653	649298.722819599958	5
7	12657	649408.584022019733	4
7	12660	649638.308370809015	3
7	12665	649745.66965498746	4
7	12670	649760.844708496852	5
7	12674	649942.693009471008	4
7	12686	650577.09145314894	5
7	12691	650722.119758085927	4
7	12710	651599.713732015045	3
7	12722	652133.490490956818	4
7	12736	652772.885117090656	5
7	12743	652837.20761728828	4
7	12750	653155.893647984629	5
7	12755	653180.557611284015	4
7	12758	653593.091376276214	3
7	12761	653739.9967674989	2
7	12769	654392.420871203419	3
7	12774	654560.835930772983	4
7	12781	654677.448337675162	3
7	12791	654965.779887952343	4
7	12798	655338.58051197924	3
7	12816	656479.440780719894	2
7	12820	656859.789878306031	1
7	12824	656962.691718594979	2
7	12828	656968.135397524432	1
7	12832	657008.596169083189	2
7	12836	657260.752353326105	1
7	12841	657729.775976148291	2
7	12846	657850.954971850671	3
7	12865	658794.935966512186	4
7	12893	659326.101963106999	3
7	12902	659964.21825009659	4
7	12907	660093.985310447459	3
7	12915	660642.459508205633	2
7	12933	661132.096967188934	3
7	12940	661506.814142042657	2
7	12949	661671.722183500676	3
7	12958	663173.855982301421	2
7	12985	664923.81451722489	1
7	12992	665084.765923810999	2
7	12997	665132.816822392856	3
7	13001	665151.779262488029	2
7	13009	666076.02868950145	1
7	13013	666086.626200660326	2
7	13018	666363.794036036102	3
7	13023	666510.964576650675	4
7	13032	666913.17511550701	5
7	13036	666941.341481448538	4
7	13040	667096.746633583255	5
7	13045	667196.684817536789	6
7	13049	667268.5339529884	5
7	13066	667844.687934318954	4
7	13069	667915.922512964341	3
7	13076	668282.578091579597	4
7	13081	668285.120936944237	5
7	13085	668491.855953367041	4
7	13097	668924.738773581148	3
7	13101	669188.871015614118	4
7	13115	670079.815806182252	5
7	13120	670411.945519868401	4
7	13132	670903.404718702818	5
7	13136	671016.281443734024	4
7	13156	671417.774965121432	3
7	13160	671736.739278109092	4
7	13165	671887.973948473724	5
7	13182	672775.697088415063	6
7	13187	673137.935484165512	5
7	13191	673493.957543540688	6
7	13195	673653.957523435204	5
7	13198	673663.608038745465	4
7	13202	673853.685543313873	3
7	13226	675763.904136679873	4
7	13233	676101.963609159011	3
7	13249	676711.969001885144	4
7	13257	677381.57219176855	3
7	13261	677405.952268225916	4
7	13265	677563.182902602628	3
7	13269	677789.889959616665	4
7	13274	677844.505930560449	5
7	13288	678260.48501865682	6
7	13300	678694.52632425486	5
7	13303	678830.744093827029	4
7	13312	679305.523872101048	3
7	13315	679469.538242326401	2
7	13320	679852.48337041629	3
7	13333	680095.61666456563	4
7	13354	680749.11557892277	3
7	13357	680812.006996636094	2
7	13361	681008.54803242462	3
7	13366	681169.8346681667	4
7	13373	681254.896188931844	3
7	13382	681265.687976752031	4
7	13421	682337.743476445901	3
7	13431	684630.55248018671	2
7	13446	685465.768547723052	3
7	13455	685841.369238812713	4
7	13463	686215.785536189731	5
7	13465	686303.773452588491	4
7	13474	686886.525336177798	3
7	13482	687177.737257380873	2
7	13489	687871.245700770448	1
7	13499	688509.597230785596	2
7	13505	689427.505620823562	3
7	13525	691077.454004420882	4
7	13527	691347.092771731076	3
7	13537	693157.324456359902	2
7	13555	694066.62762151046	3
7	13561	694347.775494927012	4
7	13573	695697.951604676586	5
7	13577	695799.014577309191	4
7	13582	696056.896728817074	5
7	13586	696078.928179353894	4
7	13604	696786.41038974038	5
7	13608	696827.765041883864	4
7	13613	696913.887393944547	5
7	13617	696921.218561525318	4
7	13623	697239.84922555368	3
7	13627	697373.262390649624	4
7	13635	697536.085706193762	5
7	13639	697553.352861162946	4
7	13644	697980.425732199445	5
7	13653	698352.211645444249	4
7	13672	698692.894728775549	3
7	13701	699912.872108761158	4
7	13706	699941.572355574795	5
7	13711	700060.623328519206	6
7	13714	700596.445572317089	5
7	13722	701125.633174706729	4
7	13728	701297.580230552127	3
7	13731	701301.50897978894	2
7	13738	702377.960786528836	1
7	13749	702763.010991037188	0
7	13753	702815.024165337113	1
7	13762	703318.514449115144	2
7	13767	703373.021053914555	3
7	13797	704817.34115376788	4
7	13805	705398.645808542649	5
7	13808	705540.699237648227	4
7	13816	706033.133166374411	3
7	13831	707603.015148591128	2
7	13835	707787.679145493584	3
7	13839	707809.803657062454	2
7	13842	707811.457441704886	1
7	13866	709617.942475603523	2
7	13875	709764.375975595434	3
7	13877	709827.876473994804	2
7	13891	710373.021360048633	3
7	13893	710380.872789588135	2
7	13904	712729.24448032934	1
7	13918	712889.490310281774	2
7	13921	713303.292954605031	1
7	13933	714031.49603239498	0
7	13942	714616.674989242549	1
7	13948	715124.560514443353	2
7	13952	715160.700410479569	1
7	13969	715724.790718715491	2
7	13977	716077.131357799684	1
7	13981	716178.772275140998	2
7	13985	716234.706571575742	1
7	14006	716885.185067584603	2
7	14011	716994.595010779297	3
7	14029	720256.335107368064	4
7	14034	720386.205372530427	5
7	14039	720461.843939123936	6
7	14048	721562.371507474631	7
7	14057	722102.300312322568	8
7	14065	722490.589402201092	9
7	14067	722498.211979923023	8
7	14082	722679.371364406971	9
7	14089	723212.929066688622	8
7	14092	723224.401250809801	7
7	14095	723319.109209543336	6
7	14099	723337.860970834918	7
7	14103	723353.047303364926	6
7	14106	723439.73537655675	5
7	14110	723553.696765576055	4
7	14128	723914.896904546837	3
7	14137	724636.267484457729	2
7	14140	724691.249759009194	1
7	14167	726754.576420489153	2
7	14172	726831.586385702793	3
7	14185	727548.198794131648	2
7	14197	727708.306685371433	3
7	14202	727711.853868412297	4
7	14207	727896.240809525274	3
7	14221	730465.952246478739	2
7	14237	732276.333361011906	3
7	14239	732348.120073104129	2
7	14248	732925.533867335513	1
7	14263	734139.829221788594	2
7	14271	734314.075064446146	3
7	14274	734880.279852695707	2
7	14290	736462.346331523304	3
7	14297	736974.397646933685	2
7	14301	737148.977646634977	3
7	14313	738121.128408204884	2
7	14325	738827.816811980389	3
7	14330	738832.408258224018	4
7	14336	738991.715872443259	5
7	14349	739388.318179924571	6
7	14351	739433.961871365578	5
7	14356	739456.017766588261	4
7	14359	739503.967108089901	3
7	14362	739690.603725180272	2
7	14397	741303.594109633671	3
7	14402	741351.300215784349	4
7	14408	741557.623824929384	5
7	14410	741598.288642527252	4
7	14418	741958.312496935537	3
7	14423	741984.9860582035	2
7	14442	743365.254422246077	3
7	14449	743754.242681565474	2
7	14455	743940.952720404811	1
7	14460	744263.502521903515	2
7	14468	744636.683595065004	3
7	14473	745060.748210809863	2
7	14480	745130.014375534326	3
7	14484	745337.639482410156	2
7	14490	745414.48367110189	1
7	14494	745876.029375822768	0
7	14498	745886.910696712875	1
7	14502	746325.513498747383	0
7	14510	746668.252137908431	1
7	14515	747132.944492047835	2
7	14553	747765.55222625001	1
7	14568	748353.04773751837	2
7	14570	748700.978453340141	1
7	14585	749488.247331155596	2
7	14588	750546.137776119993	1
7	14593	750641.840302705176	0
7	14612	751673.693680469572	1
7	14618	752035.130845520014	2
7	14626	752207.961527072691	3
7	14633	752447.995561124425	2
7	14641	752822.467350958484	3
7	14649	753082.43366579961	4
7	14654	753198.650854576769	5
7	14660	753545.915367908969	6
7	14675	754233.340701745224	5
7	14679	754510.138390920581	4
7	14688	755061.201611749851	5
7	14694	755174.375976503642	6
7	14698	755211.132571724793	5
7	14701	755245.189890559936	4
7	14709	755456.645075593531	3
7	14712	755684.691752837015	2
7	14747	758317.316706283715	3
7	14752	758543.648049572195	4
7	14757	758677.168849433541	3
7	14764	759366.174212798509	4
7	14769	759454.883746711959	3
7	14773	759835.55108483275	4
7	14777	760076.890350844912	3
7	14781	760155.627083289188	4
7	14786	760187.9308767589	5
7	14790	760297.414795589461	4
7	14795	760696.800540955776	5
7	14799	760749.398025402547	4
7	14808	761245.616132208715	3
7	14817	762285.381009287897	2
7	14854	764036.553940122875	3
7	14866	764625.373288139195	4
7	14873	764784.137362280109	3
7	14877	764966.711943746244	4
7	14882	765005.751586292623	5
7	14890	765203.166233441179	6
7	14895	765366.188820110416	7
7	14899	765419.539899993176	6
7	14932	766671.463165188407	5
7	14935	767130.480172364865	4
7	14939	767570.11063334079	3
7	14945	767676.281796026013	2
7	14949	767817.669181779673	3
7	14954	767990.818499275571	4
7	14964	768255.198205439876	3
7	14982	769065.293516823319	4
7	14986	769230.007452975982	3
7	14989	769333.071772603875	2
7	14998	769833.593176187644	1
7	15017	770412.370768481349	0
7	15022	771329.583091433373	1
7	15028	771544.775464008642	2
7	15032	771743.468771901122	1
7	15035	771892.835705168989	0
7	15047	772261.396822722091	1
7	15071	772720.20410822611	2
7	15087	773030.812913288186	3
7	15095	773582.599724519019	2
7	15099	773717.378377302368	3
7	15108	774532.079021064339	4
7	15116	774752.792900326727	5
7	15122	774876.308054308103	6
7	15129	775118.222294145518	5
7	15143	775386.854305290399	6
7	15151	776472.739549838406	5
7	15156	776720.44174193664	6
7	15160	776869.284750745312	5
7	15166	777036.215481475735	4
7	15179	778123.508947897812	5
7	15185	778362.839165502592	6
7	15198	779431.16158159062	5
7	15202	779440.069298527078	6
7	15215	780429.528954782127	5
7	15224	781474.447998829874	4
7	15242	782016.937376517861	5
7	15247	782275.096116239287	6
7	15250	782752.023555959628	5
7	15255	782907.782000051781	4
7	15269	783393.046419121432	3
7	15274	783571.578895409287	4
7	15278	783615.949813310569	3
7	15282	783665.272743205605	4
7	15299	783989.099412770111	3
7	15304	784081.017351774231	2
7	15327	786332.158302446563	3
7	15332	786659.81664873674	4
7	15345	788143.844995850099	5
7	15350	788192.492532438115	6
7	15352	788223.449917703671	5
7	15361	788893.829074657378	4
7	15375	789172.090166888502	5
7	15377	789390.024768088315	4
7	15386	789907.669457902244	3
7	15401	790623.272886801611	4
7	15403	790642.949388983551	3
7	15418	791359.03321269125	4
7	15420	791494.666968582179	3
7	15425	791676.505564390622	2
7	15428	791832.225003023588	1
7	15452	793138.034531983776	2
7	15459	793430.093761878061	1
7	15467	794432.608016255608	2
7	15472	794444.459911834306	3
7	15480	794721.541991444489	2
7	15488	795235.501053389732	1
7	15506	795673.151559851125	2
7	15511	795697.31046430838	3
7	15513	795952.421348479636	2
7	15529	797749.225437374836	3
7	15541	798494.736546005953	4
7	15545	798553.226512436447	3
7	15549	798578.947350433784	4
7	15554	798977.89966213939	3
7	15571	799937.438022183151	2
7	15575	800190.60758321489	3
7	15591	800803.908601018469	2
7	15598	802091.87184077288	1
7	15602	802125.701651400172	2
7	15614	803042.239017044326	3
7	15623	803409.390753059017	4
7	15630	803571.84220030348	3
7	15634	803573.080645101623	4
7	15639	803608.590381083118	5
7	15644	803664.64849132507	6
7	15649	803737.64944836512	7
7	15668	804343.859783721223	8
7	15672	804398.16590434731	7
7	15675	804406.399794175643	6
7	15701	805737.488059308153	7
7	15706	805803.559134040923	8
7	15711	805839.655926072192	9
7	15716	805909.307759185578	10
7	15721	806061.588339790224	11
7	15730	806219.90911120644	10
7	15742	806716.651150128008	9
7	15747	806983.761731352903	8
7	15761	807275.888292502029	7
7	15765	807484.629646329742	6
7	15769	807525.389290212094	7
7	15776	807636.259014187254	6
7	15781	808417.325121898444	7
7	15786	808482.672061632432	8
7	15801	809854.362372617294	7
7	15819	810657.754821830896	8
7	15823	810717.109797370109	7
7	15841	811517.997925985238	8
7	15848	811636.435406696166	7
7	15852	812025.421676162622	6
7	15858	812140.99580761585	5
7	15862	812362.634387017156	6
7	15867	812394.564073051197	7
7	15871	812475.528597926155	6
7	15901	813872.253352438612	7
7	15906	813951.528840228496	8
7	15910	813981.599190322239	7
7	15914	814170.255390618604	8
7	15925	814727.56551207667	7
7	15928	814916.479054779294	6
7	15932	815162.55207639145	5
7	15935	815231.824787672634	4
7	15944	815623.464706614215	5
7	15950	816023.481653795096	6
7	15957	816150.136089425578	5
7	15966	817165.192182117191	4
7	15969	817182.177591816261	3
7	15973	817327.831321189375	4
7	15977	817522.982444306488	3
7	15991	817755.699183724473	2
7	16027	818318.096055026999	1
7	16034	818479.51904259039	2
7	16040	818764.785901548892	3
7	16049	818906.455792844233	2
7	16063	819167.440150769921	1
7	16067	819207.635707289655	2
7	16072	819507.319137834335	1
7	16079	820093.821632152341	2
7	16083	820184.258169578041	1
7	16087	820369.280701643136	0
7	16091	820619.857241768273	1
7	16108	821165.658315680316	2
7	16113	821271.034393916836	3
7	16117	821382.358228496898	2
7	16141	822087.993459258148	1
7	16153	822945.107999650189	0
7	16168	823735.935697842909	1
7	16170	824548.086935200589	0
7	16185	825087.383820970168	1
7	16196	827399.420137925714	2
7	16204	827907.435806739915	3
7	16213	828615.48690334106	4
7	16222	829096.124944327911	5
7	16225	830158.194706318392	4
7	16233	830265.713771872161	3
7	16238	830330.538123039285	2
7	16261	832342.637984290488	3
7	16265	832347.919738421639	2
7	16269	832558.832394246784	3
7	16291	833569.787093669266	2
7	16295	833582.525858191873	3
7	16300	833665.668935850662	4
7	16305	833797.555408272471	5
7	16310	833920.761058140819	6
7	16315	834200.034568754394	5
7	16331	834711.738347235405	4
7	16334	834784.170488863622	3
7	16342	835252.399904751527	4
7	16347	835319.082780195345	5
7	16359	835542.655566491229	4
7	16368	835883.45376449053	3
7	16376	836525.427254007193	2
7	16385	836982.589307113167	1
7	16390	837053.8838235274	0
7	16410	839192.295187408218	1
7	16419	840943.828457119555	0
7	16423	841416.70643720541	1
7	16437	842288.093445945082	2
7	16447	843766.222147155494	3
7	16456	845541.84933764515	2
7	16460	845627.054597968931	3
7	16467	845789.994957605311	2
7	16476	846503.838353513916	1
7	16491	847701.937835190015	2
7	16500	847963.855620088567	3
7	16502	848010.82707075974	2
7	16510	848306.490818284686	1
7	16520	849223.514809450772	0
7	16529	849280.017736692947	1
7	16534	849386.985025649084	2
7	16546	849922.541961788865	3
7	16554	850081.154674603703	4
7	16558	850086.629148978718	3
7	16561	850127.60630241284	2
7	16566	850566.949949981809	3
7	16576	851091.735020484488	2
7	16580	851251.625131291751	1
7	16584	851546.627561725614	2
7	16589	851644.54400936581	3
7	16594	851666.261020135669	4
7	16621	852329.574168021205	5
7	16625	852490.704267638467	4
7	16629	852543.667445462534	5
7	16639	852809.813395851192	4
7	16649	853444.540540246356	5
7	16654	853596.328992781019	6
7	16658	853607.258432457718	5
7	16662	853886.066691967632	4
7	16675	854274.642261621105	3
7	16697	855367.552975065967	2
7	16710	855884.350675925117	3
7	16715	856053.963233732494	4
7	16737	856606.811000658774	5
7	16741	856825.537298884629	4
7	16748	857345.037883590301	3
7	16752	857494.128035617696	4
7	16757	857743.306933321045	5
7	16779	859638.05278073125	4
7	16783	859743.499795264421	3
7	16787	859827.234993676047	4
7	16791	860349.962641689755	3
7	16798	860546.222196339985	4
7	16804	860609.565930974128	5
7	16827	862037.977059676888	6
7	16832	862095.049726496533	7
7	16837	862254.523700954066	8
7	16842	862331.69733660182	7
7	16846	862370.759286233344	8
7	16850	862373.574637857051	7
7	16863	862676.482560112898	6
7	16866	862770.495016722334	5
7	16894	863511.095632440667	6
7	16897	864505.730210122165	5
7	16906	865113.113999288739	4
7	16921	866509.143849295606	5
7	16924	867433.168621697019	4
7	16941	869344.609749765084	5
7	16944	870831.597948424071	4
7	16953	870975.812181520403	3
7	16961	871550.530448252745	2
7	16975	871862.577166414207	1
7	16979	871992.747652176633	2
7	16988	873592.546207663231	1
7	17003	875101.085941481976	2
7	17012	875466.014204119519	3
7	17015	876033.420767730143	2
7	17023	876074.79618414919	1
7	17038	877176.372155498437	2
7	17048	878778.587529678597	3
7	17050	878952.219425485989	2
7	17070	881309.978495118129	3
7	17074	881599.205600601573	2
7	17078	881697.786986107936	3
7	17085	881816.333966439405	2
7	17095	882332.193118277947	1
7	17104	882624.272559140557	2
7	17109	882820.658479028552	3
7	17115	883043.35687667908	4
7	17127	883652.104146419983	3
7	17142	883978.349731450314	4
7	17149	884451.346170869505	3
7	17154	884592.266329086883	4
7	17161	885247.536316527011	3
7	17170	885578.710049019111	2
7	17179	886861.631202882325	1
7	17194	887730.793940037572	2
7	17197	888284.023019224294	1
7	17213	889842.023887132884	2
7	17215	889978.173406930985	1
7	17223	890417.510295177333	0
7	17241	892394.011591593522	1
7	17246	892484.761795369742	2
7	17251	893176.654172521804	1
7	17255	893638.755932769645	2
7	17268	894816.725258067799	1
7	17286	895337.204613452772	2
7	17291	895473.607627602307	3
7	17300	895840.407408895829	4
7	17307	896501.686582880224	3
7	17312	896598.41882039063	4
7	17326	897606.171296298578	5
7	17328	897921.607614543953	4
7	17341	898230.324101775262	3
7	17346	898355.226681520169	4
7	17350	898402.361049259968	3
7	17362	898721.982788251767	4
7	17370	899283.413718653978	3
7	17390	900114.028725784749	2
7	17394	900224.32371819013	3
7	17399	900423.051038807343	4
7	17407	901381.199344122515	3
7	17412	901780.328521004299	4
7	17417	901839.755147068884	5
7	17426	902409.62708686846	4
7	17445	903612.030271031361	5
7	17447	903845.005155696248	4
7	17452	903915.709988412499	3
7	17470	904508.907077920366	4
7	17478	904987.498179205086	5
7	17487	905333.619013473536	6
7	17495	905973.457333205298	7
7	17503	906208.757636250476	6
7	17509	906257.177165818322	5
7	17516	906530.959245410825	6
7	17520	906597.076416099425	5
7	17526	906790.920037918253	4
7	17530	906871.597891025075	5
7	17538	907151.419372616903	4
7	17542	907333.414160122087	5
7	17546	907586.648897106356	4
7	17551	907795.635686777551	5
7	17556	908129.978703735799	6
7	17566	909045.218358348853	5
7	17585	910028.663568212974	4
7	17592	910620.643476936484	3
7	17604	910894.934486433782	4
7	17610	911969.421938442325	5
7	17615	912037.938123489981	4
7	17633	912819.238239266668	3
7	17652	913309.236017926006	4
7	17657	913368.139388299907	5
7	17661	913421.334645127592	4
7	17665	913465.620999099421	5
7	17690	914753.922379896642	4
7	17694	914858.947308101622	5
7	17699	915114.363063227953	6
7	17705	915478.796893012461	7
7	17709	915528.798049727809	6
7	17712	915649.419481849272	5
7	17731	916591.065820958211	4
7	17749	917623.34734157754	5
7	17751	917906.256599754717	4
7	17760	918171.350413895896	3
7	17775	919444.294560751026	4
7	17784	920364.384356694476	5
7	17787	920836.302492390197	4
7	17792	920852.301444714606	3
7	17801	921458.442191924879	2
7	17804	921847.116320953335	1
7	17833	925552.986908637729	2
7	17838	925601.316682308384	3
7	17841	926161.794132885955	2
7	17855	926445.609931856549	3
7	17865	927906.343736090146	4
7	17867	927968.825533083739	3
7	17882	929029.188690425656	4
7	17890	929476.529755386162	3
7	17894	929535.448539531559	4
7	17901	929815.965087010983	3
7	17911	930931.980551274136	2
7	17925	931302.647674461594	3
7	17928	932071.640660913545	2
7	17936	932233.708174927872	1
7	17954	932759.565676854918	2
7	17958	932936.584532750809	1
7	17964	933188.740025973822	0
7	17972	933724.363348669591	1
7	17984	934418.752151687632	2
7	17995	934997.846062651938	3
7	18001	935162.828180601265	4
7	18006	935363.725331312696	5
7	18011	935394.642692621643	6
7	18015	935471.926821488115	5
7	18019	935573.19089635424	6
7	18023	935677.6149550272	5
7	18027	936066.433632797023	4
7	18040	936473.310287179862	3
7	18053	937147.973718639545	4
7	18057	937257.649626963488	3
7	18070	937555.480401618786	2
7	18092	939418.922851011078	3
7	18097	939451.508850088388	2
7	18101	939505.104603378539	3
7	18110	939668.349943921275	2
7	18121	940300.287116880613	1
7	18137	941435.095160608222	2
7	18146	942581.852266907756	3
7	18148	942608.919837252431	2
7	18158	944257.088613056508	1
7	18163	944381.542401888439	0
7	18181	945331.6981542502	1
7	18192	947904.8822448926	2
7	18201	948727.638860618133	3
7	18210	949396.114816802811	4
7	18218	949531.932683850641	5
7	18227	950191.740023545097	6
