file 173846 1484073292                                          
version 2
run ResponseMeasurement-127-20170110-19:34:52-21194
attr configname ResponseMeasurement
attr datetime 20170110-19:34:52
attr experiment ResponseMeasurement
attr inifile responseStudy.ini
attr iterationvars ""
attr iterationvars2 $repetition=127
attr measurement ""
attr network controltower.SimNetwork
attr processid 21194
attr repetition 127
attr replication #127
attr resultdir results
attr runnumber 127
attr seedset 127
param SimNetwork.a.parkingLot.parkingDelay "truncnormal(60min, 6min)"
param SimNetwork.a.runway.landingTime "truncnormal(15min, 1.5min)"
param SimNetwork.a.runway.takeoffTime "truncnormal(5min, 0.5min)"
param SimNetwork.a.runway.throughputCheckInterval 28.571min
param SimNetwork.wg.interArrivalTime exponential(28.571min)

vector 5  SimNetwork.a.runway  landedThroughput:vector  ETV
attr source  landedThroughputSignal
vector 6  SimNetwork.a.runway  tookoffThroughput:vector  ETV
attr source  tookoffThroughputSignal
vector 7  SimNetwork.a.parkingLot  parkingOccupancy:vector  ETV
attr source  parkingOccupancy
vector 2  SimNetwork.a.landingQueue  queueLength:vector  ETV
attr source  queueLengthSignal
vector 1  SimNetwork.a.landingQueue  queueTime:vector  ETV
attr source  queueTimeSignal
vector 4  SimNetwork.a.takeoffQueue  queueLength:vector  ETV
attr source  queueLengthSignal
vector 3  SimNetwork.a.takeoffQueue  queueTime:vector  ETV
attr source  queueTimeSignal
vector 0  SimNetwork.wg  responseTime:vector  ETV
attr source  responseTimeSignal
0	1488 22410 1037 9831 103225.938628226699 961039.351538891359 524 4797.6700160835 21099.987060752 4898546.8516215 50944334078.38
1	23898 20163 1011 9838 101148.790450301811 963771.511635312447 519 0 3196.0065090128 314785.33719297 440685218.41989
2	44061 29951 1011 9838 101148.790450301811 963771.511635312447 1036 0 4 860 1374
3	74012 20622 1028 9828 102958.183651075563 960744.125637418935 524 0 13520.883716885 1193069.6346365 6823962846.5932
4	94634 30236 1014 9841 101775.310723731427 964171.136873429506 1046 0 14 2307 12299
5	124870 9455 1007 9834 101141.34 963414.12 504 0 3 520 840
6	134325 9455 1007 9834 101141.34 963414.12 504 0 6 524 1412
7	143780 30066 1009 9840 101148.790450301811 964171.136873429506 1041 0 6 2692 8576
