file 164470 1484073286                                          
version 2
run ResponseMeasurement-101-20170110-19:34:46-21142
attr configname ResponseMeasurement
attr datetime 20170110-19:34:46
attr experiment ResponseMeasurement
attr inifile responseStudy.ini
attr iterationvars ""
attr iterationvars2 $repetition=101
attr measurement ""
attr network controltower.SimNetwork
attr processid 21142
attr repetition 101
attr replication #101
attr resultdir results
attr runnumber 101
attr seedset 101
param SimNetwork.a.parkingLot.parkingDelay "truncnormal(60min, 6min)"
param SimNetwork.a.runway.landingTime "truncnormal(15min, 1.5min)"
param SimNetwork.a.runway.takeoffTime "truncnormal(5min, 0.5min)"
param SimNetwork.a.runway.throughputCheckInterval 28.571min
param SimNetwork.wg.interArrivalTime exponential(28.571min)

vector 0  SimNetwork.wg  responseTime:vector  ETV
attr source  responseTimeSignal
vector 4  SimNetwork.a.takeoffQueue  queueLength:vector  ETV
attr source  queueLengthSignal
vector 3  SimNetwork.a.takeoffQueue  queueTime:vector  ETV
attr source  queueTimeSignal
vector 5  SimNetwork.a.runway  landedThroughput:vector  ETV
attr source  landedThroughputSignal
vector 6  SimNetwork.a.runway  tookoffThroughput:vector  ETV
attr source  tookoffThroughputSignal
vector 7  SimNetwork.a.parkingLot  parkingOccupancy:vector  ETV
attr source  parkingOccupancy
vector 2  SimNetwork.a.landingQueue  queueLength:vector  ETV
attr source  queueLengthSignal
vector 1  SimNetwork.a.landingQueue  queueTime:vector  ETV
attr source  queueTimeSignal
0	1488 21434 981 9328 100400.748597175051 961702.401128526768 501 4807.1327903893 21107.139846373 4365409.9412386 42152246970.376
1	22922 18598 1039 9353 103104.072758727906 964117.76731484374 488 0 6198.1362078909 251438.2788707 452249250.72971
2	41520 28217 1034 9353 103091.6960258616 964117.76731484374 977 0 8 795 1593
3	69737 19095 983 9324 100400.748597175051 961471.077536610085 500 0 13044.365032053 797713.85222533 4264714794.9376
4	88832 28564 983 9324 100400.748597175051 961471.077536610085 988 0 12 1498 6474
5	117396 9454 995 9343 101141.34 963414.12 504 0 3 487 773
6	126850 9454 995 9343 101141.34 963414.12 504 0 6 501 1235
7	136304 28166 996 9351 101332.317309466809 964117.76731484374 975 0 5 2347 7143
