version 2
run ResponseMeasurement-144-20170110-19:34:55-21228
attr configname ResponseMeasurement
attr datetime 20170110-19:34:55
attr experiment ResponseMeasurement
attr inifile responseStudy.ini
attr iterationvars ""
attr iterationvars2 $repetition=144
attr measurement ""
attr network controltower.SimNetwork
attr processid 21228
attr repetition 144
attr replication #144
attr resultdir results
attr runnumber 144
attr seedset 144
param SimNetwork.a.parkingLot.parkingDelay "truncnormal(60min, 6min)"
param SimNetwork.a.runway.landingTime "truncnormal(15min, 1.5min)"
param SimNetwork.a.runway.takeoffTime "truncnormal(5min, 0.5min)"
param SimNetwork.a.runway.throughputCheckInterval 28.571min
param SimNetwork.wg.interArrivalTime exponential(28.571min)

vector 7  SimNetwork.a.parkingLot  parkingOccupancy:vector  ETV
attr source  parkingOccupancy
vector 4  SimNetwork.a.takeoffQueue  queueLength:vector  ETV
attr source  queueLengthSignal
vector 0  SimNetwork.wg  responseTime:vector  ETV
attr source  responseTimeSignal
vector 3  SimNetwork.a.takeoffQueue  queueTime:vector  ETV
attr source  queueTimeSignal
vector 5  SimNetwork.a.runway  landedThroughput:vector  ETV
attr source  landedThroughputSignal
vector 6  SimNetwork.a.runway  tookoffThroughput:vector  ETV
attr source  tookoffThroughputSignal
vector 2  SimNetwork.a.landingQueue  queueLength:vector  ETV
attr source  queueLengthSignal
vector 1  SimNetwork.a.landingQueue  queueTime:vector  ETV
attr source  queueTimeSignal
0	986	100478.819655283154	11105.167399938
0	991	100786.69167854166	9853.0712366037
0	996	101079.974979536509	9359.3686773748
0	1005	101402.716320723055	9358.5849640199
0	1013	101721.463005767717	6056.7215043476
0	1018	102029.901423715676	5889.6128564448
0	1027	103463.236039033003	7215.4946098192
0	1052	105584.7946708403	8432.5050009051
0	1086	109312.661156557408	11834.896318093
0	1094	109617.259331662677	6107.4449983212
0	1103	110845.636628547697	6504.5379839001
0	1112	111624.971414146213	5841.9438499693
0	1129	113457.401109251695	6361.1511589439
0	1139	117405.349398859162	9641.1264050933
0	1204	127694.212950830542	15512.884676176
0	1209	128011.445622565704	7933.2562829104
0	1221	128783.459507288454	6141.0875423238
0	1266	132804.159999567314	9400.9899567197
0	1271	133124.57009813919	9303.0945827119
0	1276	133444.521742119865	8928.699733086
0	1288	133760.567860261174	8752.0196334874
0	1333	137944.621553537544	9234.4754301737
0	1341	138216.860080167232	9155.9791307515
0	1346	138523.438376508835	8449.3048596271
0	1355	138888.91154169517	8680.2545216497
0	1383	141048.698362549989	7460.6795715457
0	1396	142224.444782531898	7714.3222299655
0	1402	142514.104482982491	7807.6556651057
0	1464	147143.27932043012	11396.503775706
0	1521	151685.493984534488	12830.343456598
0	1529	151968.580715524841	12841.413698527
0	1537	152249.088668285373	11318.701208976
0	1543	152577.844110262645	9967.2946365481
0	1551	152921.952277135619	9880.7296119148
0	1579	154981.807476026702	11886.93186407
0	1584	155290.571863494067	10831.816292972
0	1589	155587.409597983699	10753.936176292
0	1594	155903.648774388929	8957.8223137214
0	1600	156138.272964988117	8878.8637457631
0	1605	156476.676903788597	8534.3169908176
0	1610	156836.058884179451	8385.82448492
0	1618	157618.56544469813	7109.1793897653
0	1627	158478.530723399046	5784.0009844735
0	1692	164413.082584045157	10580.434057723
0	1706	165549.69070646372	6906.5667238524
0	1711	165842.320095692	7187.7275124501
0	1720	166381.27318365065	7718.9143783467
0	1731	167131.816013132966	6124.0638750112
0	1756	169013.725204872732	7965.9009260605
0	1761	169275.477120488657	6081.2790795777
0	1791	174141.359340861077	9965.4683383456
0	1796	174475.938890980471	7551.3109680474
0	1809	176904.997352204735	8996.4160330608
0	1831	178891.991915491382	6967.9305984038
0	1860	182065.490645469788	9494.8410311871
0	1868	182354.084536841603	5657.999088377
0	1882	183907.124636041448	6574.1842027992
0	1893	185042.843367371503	5770.8677745973
0	1916	187183.237549586634	6346.3789498279
0	1928	189808.165614928228	7594.8343468293
0	1951	192004.444274123863	7271.4514628933
0	1977	195688.268096933773	9785.6436633231
0	1985	196016.2335908788	6399.5539049158
0	1994	197648.521251216743	6862.8520762704
0	2003	199067.209673397318	6376.7505258322
0	2030	204656.813170433051	10594.432462905
0	2047	206684.701635885401	6424.5987516765
0	2073	210342.628222462443	8881.6127107149
0	2102	213964.767057647912	5893.0628418187
0	2107	214255.454142916597	8881.3193663379
0	2165	220245.241049288496	12153.568302851
0	2170	220494.97058859074	9423.6311837163
0	2178	220829.636582075704	8178.1238437693
0	2210	222875.951239278626	7799.7144878107
0	2220	223832.077353024011	8032.6695989326
0	2228	224166.946277644417	7945.8851593669
0	2233	224546.292118904452	7324.2188002525
0	2273	227793.991768695733	10011.27069112
0	2279	228094.885928688622	7269.7947828083
0	2284	228371.205342365282	6763.9212778503
0	2307	230867.741919633746	8090.8764133906
0	2312	231140.744675794092	6274.8518496625
0	2321	231491.458668378136	5796.4804275664
0	2336	234998.145073682219	9273.9976646503
0	2352	236253.370138756125	6674.8687714161
0	2391	241908.790150047759	10587.809137364
0	2396	242228.870577643808	7133.4013664757
0	2405	244556.783084925571	7527.3375012703
0	2414	245829.79737688505	6364.580658946
0	2461	253352.808906629295	12977.373358561
0	2466	253671.106260216298	5747.8641411818
0	2476	255854.792192488046	7885.8680819921
0	2484	256609.558305874833	5366.7007993775
0	2548	265440.308934732543	13543.953651275
0	2554	265779.190154629364	6570.0598418394
0	2573	267186.978810277097	6976.9758887398
0	2579	267483.693617968566	5855.0309116846
0	2587	268349.481958384951	6335.9053258835
0	2595	268718.838888113949	6656.3093506668
0	2612	270378.713431478058	6252.1252508225
0	2701	278798.391848026398	12752.47614249
0	2706	279129.997942423876	10333.766935544
0	2715	279432.93201997416	7066.1740964026
0	2723	279719.418087828007	8331.4585886423
0	2728	280029.005765153681	7543.57790257
0	2736	280298.16417172774	7789.9793730651
0	2750	281512.546829984397	7950.7374063093
0	2755	281816.251088553905	7334.2266653041
0	2769	282684.195364999856	6239.0123466241
0	2866	290972.854371926085	14204.664510508
0	2915	294917.606526130283	14785.214617655
0	2920	295231.741973724092	12642.423022598
0	2928	295458.236343850976	12834.856217966
0	2933	295766.124103298497	11787.720548324
0	2938	296057.294547466442	11353.207961167
0	2943	296353.911670452733	10344.278235061
0	2952	296610.255707738349	10521.189840312
0	2968	298012.133502059537	10560.676961251
0	2977	298322.529454432973	10833.365256169
0	2982	298619.627839726343	10713.639493812
0	2987	298908.415718192444	8032.2316485656
0	2995	299223.094560912589	7502.6316731232
0	3026	302244.283510196481	11331.75852657
0	3031	302525.281443524554	10403.757045695
0	3048	304249.864585998748	7751.6857116478
0	3056	304550.898376710003	5332.0716588645
0	3085	307279.574652082512	7410.0347023964
0	3090	307568.835876147009	7324.6215428626
0	3159	314887.595875811662	12273.936264453
0	3164	315178.249390002608	9933.852520233
0	3173	315504.496608458688	9639.9436464183
0	3178	315780.169908527796	6436.3259911031
0	3183	316055.159693543605	6696.3804092718
0	3194	316600.33860502716	6510.0996731197
0	3283	324166.903918875318	11783.561916517
0	3288	324466.726578348284	14092.800748971
0	3296	324760.235540191579	11685.559772184
0	3304	325083.570475542447	8653.5955877577
0	3318	326180.215859857572	8698.5399717713
0	3323	326491.792585603288	8362.8771600057
0	3331	326766.488027455331	8607.0900446226
0	3336	327084.018018577363	6836.6139110309
0	3344	327359.057384763229	6322.4499675729
0	3350	327627.402787526668	6259.4942283733
0	3367	330274.84484389173	8694.3702530102
0	3393	333315.57091362548	8365.9969640687
0	3433	337529.657328849858	8496.2400381516
0	3444	338839.808297034428	7715.1270658966
0	3452	339289.278632901478	7632.5369795558
0	3464	340124.578355248783	5626.9266376425
0	3478	341376.462352729011	5967.29412833
0	3487	343425.058794441269	7173.7571698113
0	3496	344989.720890882259	7492.5982690503
0	3551	357719.383788518011	17760.139939385
0	3559	358094.134477549527	6132.2673884461
0	3594	361197.28857526562	7577.8640212719
0	3608	362458.51435034237	8616.7874404925
0	3625	363713.338291905811	9672.061303804
0	3728	372534.100659760398	17888.23134072
0	3733	372839.897193276884	13797.788651463
0	3741	373128.083758224156	13279.475171872
0	3746	373384.205227429069	12405.456047707
0	3751	373683.213718592051	11439.720862078
0	3760	373988.739625321157	10467.363350825
0	3765	374283.748703507211	10398.870459266
0	3770	374562.332263516486	10265.853439543
0	3775	374849.264780460888	10410.05959632
0	3783	375162.435800116965	10531.764814896
0	3789	375458.233514931221	10155.574801034
0	3800	375820.376790241723	9680.7827316671
0	3810	377061.016824433427	10222.413152086
0	3844	380019.766563293676	11348.119041889
0	3873	383033.023692660304	7305.5327706603
0	3881	383322.721037739954	6211.121014811
0	3886	383605.090303041277	6412.2633590966
0	3932	388129.318522024755	10778.472036152
0	3940	388421.126009391617	7391.7339306022
0	4008	393876.120885318808	12460.216544055
0	4022	394235.328404683385	9851.6165754638
0	4036	395528.902577297806	10968.948234842
0	4041	395795.416927062204	10721.207705801
0	4047	396114.256896645045	9103.6314487659
0	4052	396365.352360350128	7860.7011021373
0	4057	396715.842006642839	8355.7791682573
0	4062	397034.551034184685	7555.6884160223
0	4070	397378.706531227642	7787.7250547945
0	4087	398797.35765021217	9016.6483672115
0	4095	399209.062551533136	7064.5030044229
0	4121	402578.950374955759	8657.677088234
0	4134	405226.880073189512	7663.342184194
0	4164	407915.707203439288	7318.6156785036
0	4174	409909.122860312643	9259.5096284546
0	4193	411395.671531592271	6359.8352581523
0	4199	411738.506430442012	6137.1454742091
0	4217	415205.020963151937	8519.9761310005
0	4283	421781.085402286267	11565.823390121
0	4288	422104.982506769939	8692.9665740058
0	4296	422421.06011135083	6252.9464802504
0	4301	422766.604795615368	6193.5964081505
0	4309	423295.44630411819	5465.8961062837
0	4326	424986.914541151304	6813.8409871584
0	4343	426076.19463743314	7050.1892984976
0	4361	428925.854086620554	9112.2092345669
0	4369	429549.916362181482	5853.2463292356
0	4387	433190.929112291708	8152.1450914896
0	4614	452250.940048876931	24637.130782717
0	4622	452527.960148076963	21650.455608188
0	4628	452813.267686375707	19522.155572823
0	4633	453166.970404007666	18873.722905575
0	4641	453463.110651455985	18583.62227123
0	4646	453713.098393195389	18752.606429382
0	4651	454017.681202866059	19016.047997425
0	4660	454314.531186667695	19167.306545637
0	4668	454674.780031159187	19109.121765175
0	4684	455857.111654267797	18920.83182256
0	4695	457123.093122746238	19625.265288768
0	4700	457399.479803014798	18942.93065925
0	4708	457663.597067903744	19105.896578885
0	4722	458750.115362334057	19268.932651268
0	4727	458996.180003617384	18534.492374278
0	4732	459323.561900977673	16980.858105401
0	4738	459615.204549882489	17026.953535252
0	4746	459925.070346695425	14472.698616129
0	4751	460181.224367129783	14478.430911959
0	4759	460469.671805536656	14623.28304951
0	4773	461615.876942887539	13638.839180628
0	4795	463666.746111339941	14934.590646653
0	4800	463984.55014907032	9643.7694790479
0	4805	464295.925693070813	8630.7388596964
0	4814	465233.832818065412	7688.1742838795
0	4823	466501.558203585746	6297.1736652451
0	4831	467056.509412394515	5618.4825105638
0	4868	475413.116269878321	13092.82921925
0	4891	476910.066194324611	6412.6530694743
0	4910	479557.140223160103	8785.4477713392
0	4919	480402.678521181035	6068.0028421461
0	4927	481537.79354183724	5945.2879714591
0	4936	482166.862128620374	5532.072462031
0	4982	488541.421567970444	11845.021126693
0	4999	489696.632507959597	5895.5853523353
0	5004	490001.124316019509	5734.1319421897
0	5013	491501.821361959878	6701.3192737104
0	5023	493772.191637504054	6914.2780781626
0	5058	500163.834597366922	11666.885568428
0	5067	501138.346661179475	5596.8694143169
0	5084	503263.784949017126	7501.7953579296
0	5158	510680.866909084332	12057.602377225
0	5167	511011.161534329766	9761.1869917391
0	5172	511271.271681092653	6630.7632525429
0	5177	511537.270526457783	6757.5252526294
0	5188	511925.115592644779	6728.2410812128
0	5193	512203.305062934594	6137.6073133149
0	5210	513582.83564368162	7237.2157882482
0	5221	513948.858265324834	6999.6649304737
0	5287	519825.729535090722	11011.738275545
0	5300	520964.584271322814	8543.7617235338
0	5306	521263.813780624451	7542.3825423988
0	5311	521610.96673317134	7203.7867143013
0	5319	521986.617764250328	7537.1223911321
0	5327	522719.292965149783	7261.5133896251
0	5336	523852.317913710845	7356.2872206967
0	5345	524618.592665512933	7331.765508466
0	5372	531080.411720371615	11491.542624019
0	5381	532765.741119236446	6539.9703850023
0	5411	537846.710526103387	9674.2968828632
0	5434	541551.590587586502	8080.5665686984
0	5451	543064.721643440236	7176.6890351092
0	5469	545542.866542260439	7746.9758824127
0	5486	547405.901776472053	7195.2018182261
0	5495	549291.61383023813	7487.8091140769
0	5504	551378.808248079856	7145.4533646852
0	5543	557243.724696588125	11168.621540887
0	5565	559075.214203674221	7325.9861598813
0	5582	560866.854808865198	8285.0042643271
0	5590	561851.943665240041	5839.4591049881
0	5599	562784.628194129475	5640.6435280668
0	5608	564484.075293562177	7233.2586268239
0	5636	571599.011884229099	12271.385744051
0	5699	578216.867320132959	11406.242393044
0	5707	578492.280397061867	9449.4169945086
0	5718	578762.230504119638	6115.4625996392
0	5743	580851.051369686886	8169.5971849335
0	5749	581146.965595382692	7809.3431437899
0	5754	581480.861746356619	7044.7015403794
0	5762	582115.136591157189	6268.1554115186
0	5774	583856.080929595429	7206.8847194829
0	5779	584130.903933400977	5638.2577630013
0	5823	590748.371586341571	12067.684732135
0	5835	592498.732077668096	6540.4009472143
0	5849	593713.01392584585	6232.1468338016
0	5858	594911.936822898809	7314.8582795963
0	5875	597374.043583390111	7823.483569921
0	5888	600448.354402020544	8152.1498645949
0	5943	607468.636886964836	7056.8851092947
0	5954	608639.895121901889	12557.144315483
0	5962	609252.382722439581	8758.8005938984
0	5982	610454.310049128281	6192.2360837977
0	5987	610746.06172218152	5719.4394110725
0	5996	612633.216774569753	6556.1502691073
0	6004	613410.417311034986	6121.4579935102
0	6040	619708.653210639074	10399.80436885
0	6077	622909.577790752481	7439.0330407904
0	6082	623169.246582168268	5954.4706446305
0	6099	624806.3805419539	6782.8439090282
0	6127	627164.454955166873	7361.9059986059
0	6136	627493.54266005639	7216.8666647264
0	6158	629440.258374618917	9145.2314174038
0	6209	633332.781354260268	9768.0185391521
0	6214	633632.171842857112	8742.6197491815
0	6219	633955.535283977023	8530.3942372214
0	6230	634194.283637712354	6904.8020192613
0	6267	637023.883353848611	9494.4164272419
0	6272	637275.788810444836	7581.6254728418
0	6277	637591.739059864246	6845.5858524559
0	6283	637890.934319139622	7745.9077356566
0	6291	639020.820756225237	7933.1030105128
0	6300	639808.454289223805	5616.9167211991
0	6308	640788.934841993514	6014.4881299616
0	6360	647301.202703882937	12344.859157611
0	6369	648002.369635018454	5198.422904698
0	6417	652663.684016506717	9038.9996600327
0	6422	652977.291283180687	9107.180185891
0	6428	653233.120236386931	8288.6066126675
0	6436	653692.267440222004	8601.3739740258
0	6444	654241.019833757109	5529.3726252153
0	6453	655469.52648814271	5819.929941286
0	6461	656144.012732970668	6416.7380486293
0	6500	662560.485044396406	11410.516196094
0	6517	663598.431119063124	5670.6790497294
0	6522	663884.653522681595	5315.749219184
0	6532	666940.603475342121	7776.8270465544
0	6576	674550.181170121131	12098.966143755
0	6596	676315.790487246687	6939.4196567326
0	6601	676610.786014812655	7079.1738422255
0	6619	678875.766773187316	7580.7832457033
0	6664	683006.457536862023	9733.7442925857
0	6675	683328.731688818537	8183.3317584243
0	6703	685555.088138941973	7924.3707978345
0	6783	692271.991873142556	13313.512542936
0	6792	692602.479443847709	13343.28390449
0	6797	692928.845214820562	12310.415262234
0	6802	693208.726219715441	12177.664984573
0	6807	693481.571999423027	10318.226123384
0	6815	693731.610380717508	10333.158572805
0	6829	694910.863758852582	9554.4153607758
0	6837	695218.831399947512	9020.4192306663
0	6842	695528.856590144951	8650.00644739
0	6850	695877.24555705431	8750.0282236565
0	6856	696187.417029770072	7960.1253201691
0	6861	696511.423015728535	8033.9709021692
0	6873	698503.932387441887	9666.4135272428
0	6913	704387.496420987967	10681.447936902
0	6942	706965.552722182156	8607.8333663463
0	6950	707271.15878276761	6257.1785556301
0	6972	709444.79693221796	7242.2074171203
0	6992	710958.095426550133	7873.8443610998
0	6997	711238.627838524467	6355.6029945953
0	7006	713021.737771441984	7322.4571452955
0	7015	714069.48571520165	7038.4362757183
0	7026	714679.435162356416	6745.1323234566
0	7051	720184.24983866591	10484.583777881
0	7061	724049.111075853153	9519.4227529922
0	7151	735190.51379281355	16243.021675743
0	7157	735448.131544739786	8620.5675139216
0	7162	735781.917956227036	8840.614262453
0	7167	736062.489778456606	7489.9551047598
0	7172	736424.791950304432	7087.2939399367
0	7184	737142.43464404725	5808.4244530868
0	7197	738296.216271763501	6672.304232308
0	7205	738658.245711787906	6188.0651731072
0	7260	744792.662220802293	12244.507767335
0	7268	745097.828305918486	8098.1312451711
0	7273	745403.012060373352	6415.2031586682
0	7290	747105.696458195035	6563.2900519574
0	7299	747841.862244418517	5732.5198630331
0	7316	749394.011118381374	6353.8478158164
0	7324	749878.792428554073	6523.9177697561
0	7333	752228.371356690415	6708.8447284716
0	7378	759953.683285546888	11742.721197951
0	7398	762062.796189426152	8973.3761766246
0	7403	762364.291785547388	5446.703369787
0	7420	764015.910030667725	6498.2862439057
0	7437	765593.503060406461	7647.206376323
0	7477	769680.018293755252	9423.5946915941
0	7534	774063.598496932193	11321.542614274
0	7539	774413.403298783748	10236.7810496
0	7544	774709.591037609172	7892.4419788257
0	7550	775040.868251985983	8144.6155573472
0	7558	775340.235633140024	7337.868050843
0	7566	775665.852554984129	6228.5256245765
0	7594	777923.964808038166	7963.7328412345
0	7602	778217.836664140368	7274.3574960089
0	7613	779384.638431428764	8146.6835386696
0	7621	779726.470403343272	6977.211248187
0	7630	781647.286630313165	6302.682106356
0	7648	783417.374194710748	7435.9504288927
0	7658	787063.200039862244	8845.4588963099
0	7685	792379.716396691068	10200.736965597
0	7719	796361.916463468138	9113.0727642175
0	7728	798585.991744361173	8403.5431051095
0	7745	799966.880182453224	6473.0302561632
0	7753	800533.185221080032	6853.1527737978
0	7771	803685.286600157907	8507.3386941605
0	7806	808310.291921874462	9565.9372827352
0	7846	811958.282285933841	10050.100894476
0	7851	812310.941637567079	7847.292870917
0	7857	812604.276880864642	6269.0504350416
0	7896	815658.720405279643	8657.5721986617
0	7901	815979.838732077367	6845.7809548161
0	7907	816294.492731016602	6269.7180491329
0	7919	818148.831353217768	7811.0771222711
0	7924	818408.237951090392	5742.2735842489
0	7932	818893.129550918221	6157.2831453256
0	7951	823087.976693219366	9593.2553713182
0	7986	828089.955650188927	9054.6105590823
0	7994	829394.70317413311	5680.9369013147
0	8020	833027.450757919301	9256.8958895327
0	8073	839149.466577348984	8250.3364101007
0	8084	840202.143474297224	13204.643832172
0	8092	840464.42547841039	9425.5309628712
0	8097	840738.482783664881	5854.4677440405
0	8120	842712.382630444648	7729.6361544778
0	8142	844822.461771392382	8533.6786954097
0	8147	845115.740387309662	7895.8096409696
0	8164	846563.780461228684	7721.7531477701
0	8173	847464.462951324129	5975.7461367504
0	8190	848900.85083210837	6428.0028025709
0	8199	850341.343723369628	6903.6046444985
0	8275	856834.005709498939	11682.202534234
0	8284	857187.181020627281	9452.6028949529
0	8289	857473.188067448656	6974.7858900699
0	8294	857791.015004130757	7409.52072704
0	8299	858063.518075575163	7268.2969834742
0	8307	858762.437951909689	7163.7984777028
0	8316	859769.266431919218	7977.4998970458
0	8341	861730.058457100058	6905.9069762443
0	8373	865407.406153681807	9815.1796889792
0	8390	866612.744688558573	6741.0406526361
0	8404	867833.597468637962	7617.7999583427
0	8469	873619.999823073073	11466.257691738
0	8477	873882.908301458408	9712.4312290836
0	8485	874148.650890018776	8915.0546868742
0	8494	874451.243494471669	7944.4260066698
0	8539	878515.81956614264	10883.248469527
0	8544	878850.989097638487	10906.94447003
0	8549	879216.523354525123	10303.270256116
0	8558	879504.700922936578	9713.6645695627
0	8563	879834.18568999054	8716.665864539
0	8568	880123.949452511156	8984.64191893
0	8576	880766.330348943981	6528.8623075243
0	8593	882470.318873104853	7856.7956569168
0	8602	883301.004944228926	8088.6432240088
0	8636	887040.59340851927	10286.714478895
0	8659	889354.832718753661	5562.7738979289
0	8693	892453.174614155771	11249.72518921
0	8698	892731.194023608862	7715.7763764712
0	8703	893048.405203576196	7602.9028109198
0	8735	895920.579344713155	8471.9276037608
0	8749	897156.994290124616	7906.6143441209
0	8754	897425.246327671846	7358.4808303334
0	8762	898048.712150547854	7802.0581892238
0	8774	899185.866194259577	5467.0593485041
0	8791	900761.891143450078	6251.0600882953
0	8834	905867.385813574894	9995.3594998078
0	8839	906162.141371020275	7262.3806190277
0	8862	908368.960048881887	7772.2347977183
0	8873	909411.698480786734	6453.4874736356
0	8881	909947.125637805939	6542.879784343
0	8891	912303.272958927871	7560.1908210634
0	8899	912688.499817192991	5560.8060075973
0	8942	918531.345680478961	10259.875164526
0	8951	919161.947019979182	6247.437161781
0	8959	920323.29952928303	6287.7414001922
0	8985	922713.377416972517	7366.4932040714
0	9006	926504.474603129825	9249.2182806129
0	9011	926859.959963631072	6217.5181434553
0	9037	930773.781499815868	9820.8794057485
0	9055	933406.704874525583	8286.7975787551
0	9064	934853.930634784083	6267.4919675041
0	9092	937262.013170846942	8407.4060333234
0	9123	939992.517561756188	7773.5459378208
0	9132	941190.057343173032	5899.8962289944
0	9148	942443.11227483105	6361.8534257229
0	9163	943098.486043990488	5644.867188026
0	9185	945222.655578274372	8170.305544401
0	9199	946551.802963767402	8163.2938631899
0	9224	948572.975345792708	7344.4691753604
0	9232	949496.345722791581	6451.809811842
0	9241	949956.855457730803	5963.9157944357
0	9269	952218.656030966909	7124.0257534087
0	9274	952492.195881557714	5810.1660132611
0	9295	955045.330647970081	7847.5565841149
0	9311	956315.395357720212	6061.6479325011
0	9353	959808.316297047319	9287.67471731
0	9359	960077.491140290105	7260.5844521023
0	9367	960844.335014540175	5941.9960569527
0	9375	961582.691840113283	5549.5265193276
0	9384	962201.946512841774	5352.0703654335
0	9401	963787.919068281739	6147.4354064161
1	1032	103509.814333341511	0
1	1043	104409.477131490783	68.378486843231
1	1057	105783.027564176887	0
1	1066	107096.249950307763	0
1	1078	108004.685630925064	240.46263715917
1	1117	112181.328274654932	0
1	1146	120078.189339655352	0
1	1155	122642.37196496465	0
1	1164	123536.534501831045	133.36445898338
1	1178	124571.346276084932	749.87076065765
1	1187	125490.424001213546	974.60199217972
1	1192	126439.097417266308	1430.5491904925
1	1223	128783.459507288454	73.313383924568
1	1237	129777.079960989588	716.19901157382
1	1249	130686.019030116004	611.88551323427
1	1257	131583.27128349597	1374.6142634505
1	1290	133760.567860261174	172.54906925691
1	1301	134706.601695402965	196.47914283661
1	1310	135710.492484735494	1004.0436668587
1	1324	136511.983086379475	765.20754165512
1	1357	138888.91154169517	33.761013758992
1	1368	139851.158965844516	723.99194884672
1	1385	141048.698362549989	118.31090324036
1	1407	142610.549473714519	0
1	1421	143596.016960515789	554.79429529493
1	1430	144510.34083957466	1415.4652276181
1	1441	145242.329620291774	783.5740497701
1	1450	146157.735249378135	1324.2618276862
1	1466	147143.27932043012	197.45285976254
1	1481	148084.991593593509	825.58237436844
1	1489	148841.678075005157	899.31816203416
1	1498	149750.739493539166	1300.5050942797
1	1512	150608.12178477401	98.735729841196
1	1553	152921.952277135619	227.42253821006
1	1567	153922.190299730543	89.541773408426
1	1632	158643.123982611291	0
1	1643	159422.697066312437	768.1044830705
1	1649	160596.333022223241	1933.9742169193
1	1661	161395.424683212426	387.67254509065
1	1666	162396.800338802412	1348.9760599902
1	1678	163318.11349429119	123.91545338023
1	1694	164413.082584045157	237.19158152966
1	1733	167131.816013132966	207.18809019985
1	1741	167908.581319143887	0
1	1768	171924.06131708754	0
1	1782	172965.536771298622	394.8871570159
1	1811	176904.997352204735	208.91190374018
1	1822	177765.635600777181	432.69516753492
1	1836	179271.975592774219	0
1	1845	180836.858599758776	0
1	1870	182354.084536841603	140.75326874268
1	1895	185042.843367371503	309.85055614097
1	1904	185902.624433610706	0
1	1930	189808.165614928228	191.48592896523
1	1942	190820.763682888621	35.094507942312
1	1956	192690.459147565137	0
1	1965	194062.380707528367	0
1	2008	200260.102884208949	0
1	2017	201461.015511747584	0
1	2035	205374.134776578663	0
1	2053	208071.70421582923	0
1	2061	209045.912431324946	954.2396848872
1	2079	211071.339404874456	0
1	2088	212651.512738306391	0
1	2113	215076.236751467919	0
1	2125	216189.977976959101	390.57022286769
1	2136	217252.880974156428	1031.8198558789
1	2148	218171.868352074845	949.79503342286
1	2153	219029.884793251354	1247.1637156759
1	2180	220829.636582075704	4.545436195414
1	2192	221665.478037598578	58.193973083625
1	2212	222875.951239278626	99.085733035435
1	2239	224865.892826131611	0
1	2253	225829.096335062338	134.11809425061
1	2262	226697.656294991866	973.50888595997
1	2289	229578.50136734001	0
1	2323	231491.458668378136	170.47765569464
1	2341	235095.469211168143	0
1	2358	237029.445583655242	0
1	2367	239465.216717939088	0
1	2379	240511.617369136821	136.18182106819
1	2420	247923.242119034524	0
1	2429	248744.880921015058	775.95681051915
1	2438	251242.857506497363	0
1	2450	252224.489424390878	328.134140933
1	2491	259209.130312789929	0
1	2499	260210.002921537282	0
1	2508	261628.662706283931	0
1	2520	262437.785655148422	424.20902264697
1	2525	263352.422012232369	1289.8924747852
1	2537	264277.960162381841	151.3719817263
1	2559	266045.915705536278	0
1	2600	268796.231006879794	0
1	2618	271387.959499185715	0
1	2626	272396.641158599178	29.883235027631
1	2641	273245.844857574039	760.41699499031
1	2649	274028.096748961152	1519.9119502985
1	2658	274860.2186199047	1298.4091962296
1	2663	275861.40736769755	1379.3829444478
1	2675	276692.311627815236	247.12860943949
1	2689	277540.966563032571	772.77670161451
1	2738	280298.16417172774	165.77226325291
1	2771	282684.195364999856	94.8764138737
1	2777	283689.558728542037	1066.1786026566
1	2786	284643.171268886591	664.76771391258
1	2797	285589.756322194743	885.66973589536
1	2809	286487.904549024055	478.27111363277
1	2817	287437.055881698146	1347.9900142715
1	2832	288141.004917807512	689.54837699885
1	2840	288918.95526149557	1429.7910632318
1	2849	289810.141440234569	1904.1530943201
1	2868	290972.854371926085	96.670302299249
1	2883	291825.48577122932	912.96078760328
1	2894	292733.330645808008	1012.8677580186
1	2903	293718.374047606532	1596.8496497774
1	2954	296610.255707738349	112.0768333874
1	2997	299223.094560912589	4.267843067042
1	3006	300015.290077505002	145.75012781885
1	3017	301023.915788596964	779.70145531254
1	3036	302613.659611358166	0
1	3062	305244.396869769646	0
1	3073	306060.69860509058	196.14564305016
1	3096	309343.843917424707	0
1	3110	310125.811628660733	767.03234438895
1	3122	310989.430111090013	899.19117918255
1	3127	311773.996555153381	1400.0707257764
1	3136	312703.963712081562	320.62170972317
1	3147	313675.443109983966	600.7673419763
1	3196	316600.33860502716	170.36371724244
1	3211	317542.455209962699	60.779321876434
1	3222	318407.867454872257	278.95202927467
1	3228	319367.175962491672	1207.777979659
1	3236	320400.087501954686	152.68339440822
1	3248	321318.55109033672	281.94367314637
1	3262	322134.158699962051	766.25014080864
1	3268	322929.841197593915	1349.3666067124
1	3306	325083.570475542447	133.99652598565
1	3355	329033.417290698231	0
1	3373	331124.681231137852	0
1	3381	332092.96004213933	436.21838879364
1	3399	334497.651717606278	0
1	3407	335409.168224399014	0
1	3419	336306.788350955374	55.486726325366
1	3435	337529.657328849858	32.534707017924
1	3466	340124.578355248783	165.33450611605
1	3505	351961.867089103438	0
1	3514	353619.424553993706	0
1	3525	354540.402738962751	698.67582911293
1	3534	355447.522097226993	1406.2451091252
1	3539	356348.63558186636	1702.7662628257
1	3565	359042.108541813867	0
1	3576	359861.880437025453	13.271850673618
1	3596	361197.28857526562	218.53939554314
1	3610	362458.51435034237	215.0214938285
1	3627	363713.338291905811	191.96201740929
1	3644	364729.68878790516	844.81054366348
1	3656	365702.742349200031	1406.2635252268
1	3670	366562.190161079896	2122.9849769386
1	3679	367406.323933061298	2775.6529478407
1	3688	368581.968547932201	3279.3098340355
1	3699	369523.718206972085	3384.1241483974
1	3708	370414.647121665494	3576.0434493183
1	3716	371402.397159837827	2730.7496384334
1	3802	375820.376790241723	92.885868241729
1	3815	377111.600022928931	0
1	3827	378026.264608995876	833.43766505124
1	3833	378871.776736728571	1520.9302508562
1	3850	381029.392078789373	0
1	3861	381880.192020864537	464.28767960115
1	3892	384383.711829219584	0
1	3903	385348.097817951955	788.14347549639
1	3912	386060.819334785523	986.61011352414
1	3923	387017.882436187544	7.25698830838
1	3942	388421.126009391617	61.063171006031
1	3954	389316.07710144965	811.42584323685
1	3971	390303.524059387809	824.66144122544
1	3980	391151.447575215368	1560.4660987822
1	3988	391923.896886858257	2143.1876038576
1	3997	392784.530197578431	639.97065046823
1	4024	394235.328404683385	314.05511796161
1	4075	397563.537888995544	0
1	4101	400597.091524935687	0
1	4110	401424.773070071849	775.15983821382
1	4136	405226.880073189512	191.04379974951
1	4144	405975.903948752771	374.54299251981
1	4156	406703.192527601436	18.147695449977
1	4179	410215.262012165545	0
1	4205	413412.015932764146	0
1	4222	416168.1136311004	0
1	4231	416980.311454619012	407.30306715414
1	4242	417906.386026371499	76.835828537034
1	4251	418993.441187395218	820.36763340235
1	4259	419801.438522794578	775.433183859
1	4274	420672.595545569085	858.95069351545
1	4315	423696.67003294588	0
1	4331	425038.784020802115	0
1	4349	427613.809266159744	0
1	4375	430877.504539889202	0
1	4392	433291.112113552331	0
1	4401	434293.247498432925	0
1	4415	435115.369466823954	235.88108659796
1	4430	436195.394840269678	1234.9028764568
1	4439	437171.305056307824	2169.6718508663
1	4450	438252.626238983652	3105.4015979529
1	4465	439096.650618614592	3530.9923526306
1	4473	440020.626798461944	3084.3469667543
1	4488	440819.81927231259	3321.9914383344
1	4493	441740.39343799469	3283.84429423
1	4508	442706.797550296581	4149.0970612778
1	4519	443565.344072715784	4084.1613616498
1	4528	444585.521727224875	4123.8340978852
1	4539	445494.758047597915	3152.0542520211
1	4554	446353.412609451592	3765.1615948208
1	4562	447331.828622502164	1879.4568919353
1	4574	448282.735115432895	2579.9416602624
1	4586	449262.17478371696	3415.7860276903
1	4594	450082.556933346149	2105.5191710862
1	4603	451029.237803110403	2297.0823384236
1	4670	454674.780031159187	333.99936113681
1	4686	455857.111654267797	191.9248208934
1	4710	457663.597067903744	117.93853371786
1	4761	460469.671805536656	265.28726719605
1	4775	461615.876942887539	177.85004105683
1	4786	462459.792302195795	139.5052515672
1	4838	470497.413124850306	0
1	4846	471339.886650035501	568.19419821461
1	4856	474334.675679034904	0
1	4873	475592.50557037817	0
1	4893	476910.066194324611	275.2765277352
1	4898	477852.554404888616	1156.1539636115
1	4942	483801.047155624292	0
1	4950	484630.482801496869	363.49042766705
1	4959	485531.112297369693	730.61020912017
1	4968	486857.913559341503	0
1	4984	488541.421567970444	44.47253903149
1	5029	495541.477246862618	0
1	5037	496442.566471732249	680.57688064469
1	5046	498623.2645318594	0
1	5072	501249.974542590641	0
1	5090	504640.508428549801	0
1	5101	505376.977308704711	597.23203487638
1	5116	506359.967467548064	1163.0929561161
1	5124	507335.438643486248	1269.7408938666
1	5130	508041.239894738298	1695.6200393048
1	5135	508733.069287788785	1783.8759529377
1	5147	509548.294569701807	734.30331015595
1	5198	512420.822547788986	0
1	5223	513948.858265324834	227.42702709921
1	5235	515021.46888665945	614.28886778941
1	5243	515768.444069165462	1318.9486960472
1	5255	516817.033397762697	1359.253822238
1	5264	517797.398044696218	1301.3673516821
1	5272	518786.395522571156	1499.5683655242
1	5289	519825.729535090722	236.86043873852
1	5350	526225.770734234107	0
1	5360	528172.413643240191	0
1	5387	533471.024018888081	0
1	5396	535888.032608331078	0
1	5413	537846.710526103387	50.819866255636
1	5423	540210.699958245963	0
1	5440	541803.804716161241	0
1	5457	544233.354883394693	0
1	5474	546075.103155701262	0
1	5509	551749.22804379295	0
1	5518	552685.346822956579	103.4962784185
1	5528	556012.484560251956	0
1	5545	557243.724696588125	99.740030525403
1	5556	557919.286603910336	668.46993717204
1	5570	559327.626140178365	0
1	5614	566810.624927088965	0
1	5623	569042.863402553315	0
1	5642	572646.767904480395	0
1	5653	573602.119948399602	920.6657636462
1	5662	574389.988553749623	1052.3661021569
1	5670	575319.421524602966	883.26131862579
1	5679	576171.082398715399	324.1012190768
1	5687	577095.529665329804	446.33345521726
1	5720	578762.230504119638	269.58433372
1	5732	579530.810172170826	850.12331796448
1	5785	585958.331130453769	0
1	5794	587480.86709204424	0
1	5803	588508.951112933686	911.87256963113
1	5811	589550.560013469121	0
1	5837	592498.732077668096	202.52754024246
1	5863	596082.750806419119	0
1	5890	600448.354402020544	36.602624350388
1	5898	601264.280144677873	770.6980161367
1	5908	604262.073965330605	0
1	5917	605284.149686573307	257.52737546426
1	5931	606220.224493189855	143.1579877274
1	5945	607468.636886964836	179.67756944009
1	5967	609308.848841789182	0
1	6011	615470.544749962058	0
1	6020	617214.775937537787	0
1	6028	618154.606978631508	131.07034570581
1	6045	619802.548956561021	0
1	6057	620693.181328502645	416.50533317265
1	6062	621587.574756024413	1292.5477988093
1	6087	623564.762815108138	0
1	6104	624889.552093675608	0
1	6116	625835.527568445427	410.38652168977
1	6138	627493.54266005639	204.06104160539
1	6149	628264.952173136946	735.48524653026
1	6163	629694.163337602986	0
1	6177	630530.848020813881	385.82143733083
1	6189	631400.636834276064	654.48362686774
1	6194	632102.101900925339	1014.3841552129
1	6232	634194.283637712354	2.746069687691
1	6244	634921.846889113986	147.40017708208
1	6252	635750.82983493222	794.48628866034
1	6314	642803.946730320499	0
1	6323	643647.874150670412	23.189794196412
1	6331	644482.370625957908	612.25952866824
1	6343	645328.901045162002	384.3874214426
1	6348	646230.439078242843	1139.5456120467
1	6374	648711.647208541853	0
1	6388	649700.337838115346	50.741291258605
1	6397	650548.466179756232	821.19149541489
1	6409	651547.514151273182	397.54530297111
1	6467	657927.752069333712	0
1	6476	658742.340208934714	173.43590543709
1	6484	659627.023868582274	463.24743979458
1	6502	662560.485044396406	109.27001802993
1	6538	669376.37083051411	0
1	6547	670308.002643855826	776.39047126863
1	6555	671356.108665143307	61.125137659294
1	6564	673272.71324427636	0
1	6581	675145.399930394256	0
1	6607	677630.717341107439	0
1	6624	678958.479330206743	0
1	6632	679891.044525598369	631.84898624114
1	6644	680754.147189240902	135.71723665387
1	6652	681666.77062995068	635.70939480785
1	6677	683328.731688818537	165.38581277965
1	6686	684204.791700872897	806.33989296079
1	6705	685555.088138941973	198.63974086516
1	6717	686440.552270011461	242.1401007302
1	6728	687261.198346589593	382.34820383463
1	6743	688260.666082171639	1133.4487487739
1	6755	689223.703561735792	996.41185213479
1	6763	690109.133488058133	1631.6813744988
1	6772	691112.736932151733	2275.2180719526
1	6817	693731.610380717508	25.561896631772
1	6875	698503.932387441887	146.21303160607
1	6884	701013.980227137485	0
1	6893	702202.58951509762	0
1	6905	703198.397060124282	114.14599467394
1	6919	704883.024843929189	0
1	6930	705700.623037735596	1.342411589151
1	6952	707271.15878276761	240.10934328426
1	6964	708353.133323809649	418.83048490982
1	6977	709699.666060785336	0
1	7028	714679.435162356416	149.74683949549
1	7039	718947.492117070945	0
1	7067	726827.564030818137	0
1	7076	727604.501049509378	663.19735573538
1	7085	728572.534673696768	0
1	7093	729474.945416350818	137.44740598307
1	7102	731334.010190960458	0
1	7117	732226.443984841493	602.53194538597
1	7131	733201.452844843237	731.27230616252
1	7140	734038.167298059435	1490.0128445926
1	7186	737142.43464404725	142.73758329982
1	7211	738987.808901705106	0
1	7219	740542.406406237629	0
1	7228	742109.342381385389	0
1	7240	743093.019381197654	52.856078632718
1	7251	743835.850431232247	480.97577243429
1	7278	745519.526628218822	0
1	7304	748210.962087595784	0
1	7339	753089.42001280157	0
1	7349	756917.588415760342	0
1	7361	757814.045135125174	296.42134836315
1	7369	758749.358127100146	803.06144301666
1	7383	760256.423602161147	0
1	7408	762742.055882658041	0
1	7425	764176.622249183605	0
1	7443	766817.149058783492	0
1	7454	767817.009281437217	920.75658679848
1	7466	768579.562735064695	577.1951527677
1	7479	769680.018293755252	242.69136334758
1	7488	770426.713086703475	466.4811198998
1	7499	771385.803922556455	442.32475442503
1	7508	772184.774089594353	946.8191968352
1	7522	772979.364585882089	230.1054307258
1	7568	775665.852554984129	321.248031027
1	7580	776675.599673512552	694.17590769454
1	7604	778217.836664140368	0.095520588045
1	7636	782178.979431094389	0
1	7663	787248.843699250607	0
1	7672	790182.448639251632	0
1	7690	793493.849926290031	0
1	7699	794285.965295343812	605.93284806157
1	7710	795207.918130340777	29.970224343371
1	7733	798744.354639139217	0
1	7759	801908.181391457888	0
1	7777	804463.648766650107	0
1	7786	806335.226445822996	0
1	7797	807256.351258668465	255.20305205049
1	7812	809134.057777261238	0
1	7823	810039.119349986001	14.344668102274
1	7835	810860.015081014308	522.26085006764
1	7862	812665.964366841537	0
1	7873	813492.8841605003	757.03775490765
1	7882	814530.749661127024	1036.0283392259
1	7937	819035.345091106622	0
1	7956	823713.76627281845	0
1	7964	824512.272602348231	741.7177339616
1	7974	826997.499642125186	0
1	8000	830899.130167248324	0
1	8012	831896.119090864816	857.22457532559
1	8027	834884.015039624349	0
1	8035	835741.113415891178	758.36693992434
1	8050	836827.028013147703	538.24493716506
1	8058	837792.394495075672	572.46374873559
1	8075	839149.466577348984	307.43926389041
1	8102	841488.716814573757	0
1	8122	842712.382630444648	239.53460090721
1	8131	843622.92429339868	185.18521452753
1	8153	845151.803175264496	0
1	8178	847734.578125674427	0
1	8204	850381.494277090718	0
1	8215	851422.85787844484	924.45570106612
1	8227	852196.521068497656	1401.2999763967
1	8235	853049.19308978477	1450.5536155779
1	8241	853909.262931706784	2117.4963968334
1	8249	854838.95746700424	14.805986148522
1	8261	855770.382925876215	178.15646117358
1	8321	859871.704035922429	0
1	8333	860563.167221489393	347.36971119414
1	8346	862153.742131335379	0
1	8356	864170.477072374794	0
1	8375	865407.406153681807	173.80995053727
1	8392	866612.744688558573	105.92720075673
1	8406	867833.597468637962	201.02637202254
1	8417	868639.365340270089	695.32071266139
1	8426	869582.206027497919	668.95292908833
1	8437	870445.938552611991	654.90219923809
1	8449	871297.924994245359	180.40516879378
1	8460	872453.901100709626	1314.5935671285
1	8496	874451.243494471669	213.77545305198
1	8510	875437.665387496122	824.14217130803
1	8516	876454.821629432203	1242.4599092121
1	8530	877338.892162147111	585.01323252297
1	8582	881203.449424945288	0
1	8607	883792.05882082479	0
1	8616	885015.417647137696	0
1	8627	885936.761038227144	491.25864557076
1	8641	887448.651740952369	0
1	8661	889354.832718753661	104.4527727499
1	8676	890439.782146173418	373.01664883497
1	8681	891335.837936399096	1089.183975075
1	8709	893718.806845755501	0
1	8720	894681.35335230654	170.52229715181
1	8737	895920.579344713155	48.553030946059
1	8776	899185.866194259577	286.10544226701
1	8793	900761.891143450078	165.16589228651
1	8802	902958.211007151166	0
1	8814	903892.90643487583	488.6605814129
1	8822	904774.719406310923	31.637268446429
1	8845	907127.693809595649	0
1	8864	908368.960048881887	97.489532928645
1	8904	912914.509858198196	0
1	8913	914035.558129090836	0
1	8921	915346.884212901132	0
1	8931	917255.256322516935	0
1	8965	920642.441820175779	0
1	8973	921493.88651568626	540.98442161892
1	8991	925119.90729577048	0
1	9017	928586.438667279934	0
1	9026	929549.185672511919	694.57853498843
1	9043	932218.971623935402	0
1	9069	935290.161114178585	0
1	9081	936133.151661480651	51.892812372544
1	9094	937262.013170846942	209.66313697359
1	9103	937933.135731009751	479.51687504522
1	9111	938776.710069128092	388.20096855055
1	9137	941228.506170432327	0
1	9165	943098.486043990488	53.950133040939
1	9173	944123.704923153034	130.76525985795
1	9187	945222.655578274372	128.02530071613
1	9204	946682.029868296597	0
1	9212	947472.933586760369	275.15952290516
1	9246	950253.747425219134	0
1	9257	951035.320504987072	514.67892524976
1	9279	952816.906688187789	0
1	9297	955045.330647970081	142.99169038256
1	9313	956315.395357720212	282.23003693456
1	9322	957000.212489691894	150.33634228362
1	9333	957966.41365026835	325.9299884027
1	9342	958818.374299438144	653.61500470215
1	9389	962746.743677234381	0
2	1030	103509.814333341511	1
2	1032	103509.814333341511	0
2	1038	104341.098644647552	1
2	1043	104409.477131490783	0
2	1055	105783.027564176887	1
2	1057	105783.027564176887	0
2	1064	107096.249950307763	1
2	1066	107096.249950307763	0
2	1069	107764.222993765889	1
2	1078	108004.685630925064	0
2	1115	112181.328274654932	1
2	1117	112181.328274654932	0
2	1144	120078.189339655352	1
2	1146	120078.189339655352	0
2	1153	122642.37196496465	1
2	1155	122642.37196496465	0
2	1158	123403.17004284766	1
2	1164	123536.534501831045	0
2	1167	123821.475515427283	1
2	1173	124515.822009033827	2
2	1178	124571.346276084932	1
2	1181	125008.548226773782	2
2	1187	125490.424001213546	1
2	1192	126439.097417266308	0
2	1218	128710.146123363886	1
2	1223	128783.459507288454	0
2	1229	129060.880949415767	1
2	1237	129777.079960989588	0
2	1240	130074.133516881733	1
2	1243	130208.657020045493	2
2	1249	130686.019030116004	1
2	1257	131583.27128349597	0
2	1284	133588.018791004263	1
2	1290	133760.567860261174	0
2	1293	134510.122552566358	1
2	1296	134706.448817876811	2
2	1301	134706.601695402965	1
2	1310	135710.492484735494	0
2	1316	135746.775544724355	1
2	1324	136511.983086379475	0
2	1352	138855.150527936178	1
2	1357	138888.91154169517	0
2	1360	139127.1670169978	1
2	1368	139851.158965844516	0
2	1380	140930.387459309633	1
2	1385	141048.698362549989	0
2	1405	142610.549473714519	1
2	1407	142610.549473714519	0
2	1410	143041.222665220858	1
2	1413	143094.875611956556	2
2	1421	143596.016960515789	1
2	1425	144458.755570521679	2
2	1430	144510.34083957466	1
2	1436	144833.473421691972	2
2	1441	145242.329620291774	1
2	1450	146157.735249378135	0
2	1458	146945.826460667575	1
2	1466	147143.27932043012	0
2	1469	147259.409219225066	1
2	1476	147942.359912970993	2
2	1481	148084.991593593509	1
2	1484	148450.234399259455	2
2	1489	148841.678075005157	1
2	1498	149750.739493539166	0
2	1504	150509.386054932814	1
2	1512	150608.12178477401	0
2	1548	152694.529738925561	1
2	1553	152921.952277135619	0
2	1562	153832.648526322117	1
2	1567	153922.190299730543	0
2	1630	158643.123982611291	1
2	1632	158643.123982611291	0
2	1635	158654.592583241941	1
2	1638	158662.358805303902	2
2	1643	159422.697066312437	1
2	1649	160596.333022223241	0
2	1652	161007.75213812178	1
2	1655	161047.824278812186	2
2	1661	161395.424683212426	1
2	1666	162396.800338802412	0
2	1673	163194.198040910957	1
2	1678	163318.11349429119	0
2	1689	164175.891002515497	1
2	1694	164413.082584045157	0
2	1728	166924.627922933112	1
2	1733	167131.816013132966	0
2	1739	167908.581319143887	1
2	1741	167908.581319143887	0
2	1766	171924.06131708754	1
2	1768	171924.06131708754	0
2	1777	172570.649614282727	1
2	1782	172965.536771298622	0
2	1806	176696.085448464558	1
2	1811	176904.997352204735	0
2	1814	177332.940433242264	1
2	1822	177765.635600777181	0
2	1834	179271.975592774219	1
2	1836	179271.975592774219	0
2	1843	180836.858599758776	1
2	1845	180836.858599758776	0
2	1865	182213.331268098928	1
2	1870	182354.084536841603	0
2	1890	184732.992811230536	1
2	1895	185042.843367371503	0
2	1902	185902.624433610706	1
2	1904	185902.624433610706	0
2	1925	189616.679685962998	1
2	1930	189808.165614928228	0
2	1937	190785.669174946309	1
2	1942	190820.763682888621	0
2	1954	192690.459147565137	1
2	1956	192690.459147565137	0
2	1963	194062.380707528367	1
2	1965	194062.380707528367	0
2	2006	200260.102884208949	1
2	2008	200260.102884208949	0
2	2015	201461.015511747584	1
2	2017	201461.015511747584	0
2	2033	205374.134776578663	1
2	2035	205374.134776578663	0
2	2051	208071.70421582923	1
2	2053	208071.70421582923	0
2	2056	208091.67274643775	1
2	2061	209045.912431324946	0
2	2077	211071.339404874456	1
2	2079	211071.339404874456	0
2	2086	212651.512738306391	1
2	2088	212651.512738306391	0
2	2111	215076.236751467919	1
2	2113	215076.236751467919	0
2	2116	215799.407754091412	1
2	2125	216189.977976959101	0
2	2128	216221.061118277547	1
2	2131	217222.073318651984	2
2	2136	217252.880974156428	1
2	2143	217782.721077575494	2
2	2148	218171.868352074845	1
2	2153	219029.884793251354	0
2	2175	220825.09114588029	1
2	2180	220829.636582075704	0
2	2187	221607.284064514953	1
2	2192	221665.478037598578	0
2	2206	222776.865506243191	1
2	2212	222875.951239278626	0
2	2237	224865.892826131611	1
2	2239	224865.892826131611	0
2	2245	225694.978240811724	1
2	2248	225724.147409031894	2
2	2253	225829.096335062338	1
2	2262	226697.656294991866	0
2	2287	229578.50136734001	1
2	2289	229578.50136734001	0
2	2317	231320.981012683494	1
2	2323	231491.458668378136	0
2	2339	235095.469211168143	1
2	2341	235095.469211168143	0
2	2356	237029.445583655242	1
2	2358	237029.445583655242	0
2	2365	239465.216717939088	1
2	2367	239465.216717939088	0
2	2374	240375.43554806863	1
2	2379	240511.617369136821	0
2	2418	247923.242119034524	1
2	2420	247923.242119034524	0
2	2423	247968.924110495911	1
2	2429	248744.880921015058	0
2	2436	251242.857506497363	1
2	2438	251242.857506497363	0
2	2441	251896.355283457881	1
2	2450	252224.489424390878	0
2	2489	259209.130312789929	1
2	2491	259209.130312789929	0
2	2497	260210.002921537282	1
2	2499	260210.002921537282	0
2	2506	261628.662706283931	1
2	2508	261628.662706283931	0
2	2511	262013.576632501447	1
2	2514	262062.529537447185	2
2	2520	262437.785655148422	1
2	2525	263352.422012232369	0
2	2532	264126.588180655537	1
2	2537	264277.960162381841	0
2	2557	266045.915705536278	1
2	2559	266045.915705536278	0
2	2598	268796.231006879794	1
2	2600	268796.231006879794	0
2	2616	271387.959499185715	1
2	2618	271387.959499185715	0
2	2621	272366.757923571547	1
2	2626	272396.641158599178	0
2	2629	272485.427862583724	1
2	2632	272508.184798662622	2
2	2641	273245.844857574039	1
2	2644	273561.809423675134	2
2	2649	274028.096748961152	1
2	2653	274482.024423249795	2
2	2658	274860.2186199047	1
2	2663	275861.40736769755	0
2	2670	276445.18301837575	1
2	2675	276692.311627815236	0
2	2678	276768.189861418065	1
2	2689	277540.966563032571	0
2	2733	280132.391908474829	1
2	2738	280298.16417172774	0
2	2763	282589.318951126156	1
2	2766	282623.38012588539	2
2	2771	282684.195364999856	1
2	2777	283689.558728542037	0
2	2780	283978.403554974011	1
2	2786	284643.171268886591	0
2	2789	284704.08658629938	1
2	2797	285589.756322194743	0
2	2800	286009.633435391282	1
2	2803	286089.065867426679	2
2	2809	286487.904549024055	1
2	2817	287437.055881698146	0
2	2820	287451.456540808665	1
2	2823	287489.164198263727	2
2	2826	287905.988345914419	3
2	2832	288141.004917807512	2
2	2840	288918.95526149557	1
2	2849	289810.141440234569	0
2	2860	290876.184069626836	1
2	2863	290912.524983626035	2
2	2868	290972.854371926085	1
2	2878	291720.462887789396	2
2	2883	291825.48577122932	1
2	2886	292121.524397829107	2
2	2894	292733.330645808008	1
2	2903	293718.374047606532	0
2	2948	296498.178874350947	1
2	2954	296610.255707738349	0
2	2992	299218.826717845547	1
2	2997	299223.094560912589	0
2	3000	299869.539949686156	1
2	3006	300015.290077505002	0
2	3009	300244.214333284426	1
2	3017	301023.915788596964	0
2	3034	302613.659611358166	1
2	3036	302613.659611358166	0
2	3060	305244.396869769646	1
2	3062	305244.396869769646	0
2	3068	305864.552962040421	1
2	3073	306060.69860509058	0
2	3094	309343.843917424707	1
2	3096	309343.843917424707	0
2	3099	309358.779284271788	1
2	3105	310090.238931907466	2
2	3110	310125.811628660733	1
2	3114	310373.925829376983	2
2	3122	310989.430111090013	1
2	3127	311773.996555153381	0
2	3131	312383.342002358389	1
2	3136	312703.963712081562	0
2	3139	313074.675768007669	1
2	3147	313675.443109983966	0
2	3191	316429.974887784722	1
2	3196	316600.33860502716	0
2	3203	317481.675888086265	1
2	3211	317542.455209962699	0
2	3214	318128.91542559759	1
2	3217	318159.397982832693	2
2	3222	318407.867454872257	1
2	3228	319367.175962491672	0
2	3231	320247.404107546463	1
2	3236	320400.087501954686	0
2	3243	321036.607417190349	1
2	3248	321318.55109033672	0
2	3251	321367.908559153411	1
2	3257	321580.474590881541	2
2	3262	322134.158699962051	1
2	3268	322929.841197593915	0
2	3301	324949.573949556802	1
2	3306	325083.570475542447	0
2	3353	329033.417290698231	1
2	3355	329033.417290698231	0
2	3371	331124.681231137852	1
2	3373	331124.681231137852	0
2	3376	331656.741653345693	1
2	3381	332092.96004213933	0
2	3397	334497.651717606278	1
2	3399	334497.651717606278	0
2	3405	335409.168224399014	1
2	3407	335409.168224399014	0
2	3414	336251.301624630008	1
2	3419	336306.788350955374	0
2	3430	337497.122621831934	1
2	3435	337529.657328849858	0
2	3461	339959.243849132734	1
2	3466	340124.578355248783	0
2	3503	351961.867089103438	1
2	3505	351961.867089103438	0
2	3512	353619.424553993706	1
2	3514	353619.424553993706	0
2	3517	353841.72690984982	1
2	3520	354041.276988101841	2
2	3525	354540.402738962751	1
2	3528	354645.86931904071	2
2	3534	355447.522097226993	1
2	3539	356348.63558186636	0
2	3563	359042.108541813867	1
2	3565	359042.108541813867	0
2	3571	359848.608586351835	1
2	3576	359861.880437025453	0
2	3591	360978.74917972248	1
2	3596	361197.28857526562	0
2	3605	362243.492856513871	1
2	3610	362458.51435034237	0
2	3619	363521.376274496517	1
2	3627	363713.338291905811	0
2	3630	363884.878244241675	1
2	3633	364296.478823973271	2
2	3636	364439.205184141315	3
2	3639	364630.670985220566	4
2	3644	364729.68878790516	3
2	3651	365302.658713896747	4
2	3656	365702.742349200031	3
2	3659	366139.594058574663	4
2	3670	366562.190161079896	3
2	3673	366838.603672347166	4
2	3679	367406.323933061298	3
2	3688	368581.968547932201	2
2	3691	368671.647521404454	3
2	3699	369523.718206972085	2
2	3708	370414.647121665494	1
2	3716	371402.397159837827	0
2	3797	375727.490921999994	1
2	3802	375820.376790241723	0
2	3813	377111.600022928931	1
2	3815	377111.600022928931	0
2	3819	377192.82694394464	1
2	3822	377350.846485872326	2
2	3827	378026.264608995876	1
2	3833	378871.776736728571	0
2	3848	381029.392078789373	1
2	3850	381029.392078789373	0
2	3856	381415.904341263391	1
2	3861	381880.192020864537	0
2	3890	384383.711829219584	1
2	3892	384383.711829219584	0
2	3895	384559.954342455562	1
2	3898	385074.209221261386	2
2	3903	385348.097817951955	1
2	3912	386060.819334785523	0
2	3918	387010.625447879164	1
2	3923	387017.882436187544	0
2	3937	388360.062838385586	1
2	3942	388421.126009391617	0
2	3945	388504.651258212803	1
2	3954	389316.07710144965	0
2	3960	389478.86261816237	1
2	3963	389590.981476433151	2
2	3966	389780.709283000696	3
2	3971	390303.524059387809	2
2	3980	391151.447575215368	1
2	3988	391923.896886858257	0
2	3991	392144.559547110202	1
2	3997	392784.530197578431	0
2	4013	393921.273286721772	1
2	4024	394235.328404683385	0
2	4073	397563.537888995544	1
2	4075	397563.537888995544	0
2	4099	400597.091524935687	1
2	4101	400597.091524935687	0
2	4104	400649.61323185803	1
2	4110	401424.773070071849	0
2	4131	405035.836273439998	1
2	4136	405226.880073189512	0
2	4139	405601.360956232958	1
2	4144	405975.903948752771	0
2	4151	406685.044832151459	1
2	4156	406703.192527601436	0
2	4177	410215.262012165545	1
2	4179	410215.262012165545	0
2	4203	413412.015932764146	1
2	4205	413412.015932764146	0
2	4220	416168.1136311004	1
2	4222	416168.1136311004	0
2	4226	416573.00838746487	1
2	4231	416980.311454619012	0
2	4237	417829.550197834465	1
2	4242	417906.386026371499	0
2	4245	418173.073553992869	1
2	4251	418993.441187395218	0
2	4254	419026.005338935574	1
2	4259	419801.438522794578	0
2	4262	419813.644852053636	1
2	4274	420672.595545569085	0
2	4313	423696.67003294588	1
2	4315	423696.67003294588	0
2	4329	425038.784020802115	1
2	4331	425038.784020802115	0
2	4347	427613.809266159744	1
2	4349	427613.809266159744	0
2	4373	430877.504539889202	1
2	4375	430877.504539889202	0
2	4390	433291.112113552331	1
2	4392	433291.112113552331	0
2	4399	434293.247498432925	1
2	4401	434293.247498432925	0
2	4404	434879.488380225999	1
2	4407	434960.491963812919	2
2	4410	435001.633205441537	3
2	4415	435115.369466823954	2
2	4418	435147.224641030757	3
2	4425	435565.658265983952	4
2	4430	436195.394840269678	3
2	4433	436936.27983170769	4
2	4439	437171.305056307824	3
2	4442	437497.82783397823	4
2	4450	438252.626238983652	3
2	4453	438456.549143764668	4
2	4456	438557.700489018753	5
2	4465	439096.650618614592	4
2	4468	439481.182711066012	5
2	4473	440020.626798461944	4
2	4482	440461.687629339725	5
2	4488	440819.81927231259	4
2	4493	441740.39343799469	3
2	4500	442342.703795576851	4
2	4503	442588.251014630744	5
2	4508	442706.797550296581	4
2	4519	443565.344072715784	3
2	4528	444585.521727224875	2
2	4531	445452.371730566838	3
2	4539	445494.758047597915	2
2	4542	445702.793455170508	3
2	4546	445846.388756026673	4
2	4554	446353.412609451592	3
2	4562	447331.828622502164	2
2	4569	447977.037762259988	3
2	4574	448282.735115432895	2
2	4577	448732.155464686837	3
2	4586	449262.17478371696	2
2	4594	450082.556933346149	1
2	4603	451029.237803110403	0
2	4665	454340.780670022379	1
2	4670	454674.780031159187	0
2	4681	455665.1868333744	1
2	4686	455857.111654267797	0
2	4705	457545.658534185884	1
2	4710	457663.597067903744	0
2	4756	460204.384538340602	1
2	4761	460469.671805536656	0
2	4770	461438.026901830714	1
2	4775	461615.876942887539	0
2	4781	462320.287050628594	1
2	4786	462459.792302195795	0
2	4836	470497.413124850306	1
2	4838	470497.413124850306	0
2	4841	470771.692451820895	1
2	4846	471339.886650035501	0
2	4854	474334.675679034904	1
2	4856	474334.675679034904	0
2	4871	475592.50557037817	1
2	4873	475592.50557037817	0
2	4885	476634.789666589414	1
2	4888	476696.400441277148	2
2	4893	476910.066194324611	1
2	4898	477852.554404888616	0
2	4940	483801.047155624292	1
2	4942	483801.047155624292	0
2	4945	484266.992373829822	1
2	4950	484630.482801496869	0
2	4953	484800.502088249523	1
2	4959	485531.112297369693	0
2	4966	486857.913559341503	1
2	4968	486857.913559341503	0
2	4979	488496.949028938954	1
2	4984	488541.421567970444	0
2	5027	495541.477246862618	1
2	5029	495541.477246862618	0
2	5032	495761.989591087562	1
2	5037	496442.566471732249	0
2	5044	498623.2645318594	1
2	5046	498623.2645318594	0
2	5070	501249.974542590641	1
2	5072	501249.974542590641	0
2	5088	504640.508428549801	1
2	5090	504640.508428549801	0
2	5093	504779.745273828334	1
2	5096	505196.874511431947	2
2	5101	505376.977308704711	1
2	5108	506065.697749619673	2
2	5111	506345.61985543345	3
2	5116	506359.967467548064	2
2	5119	506949.193334851103	3
2	5124	507335.438643486248	2
2	5130	508041.239894738298	1
2	5135	508733.069287788785	0
2	5138	508813.991259545857	1
2	5147	509548.294569701807	0
2	5196	512420.822547788986	1
2	5198	512420.822547788986	0
2	5218	513721.431238225627	1
2	5223	513948.858265324834	0
2	5227	514407.180018870043	1
2	5230	514449.495373118241	2
2	5235	515021.46888665945	1
2	5238	515457.779575524717	2
2	5243	515768.444069165462	1
2	5247	516496.030693014132	2
2	5255	516817.033397762697	1
2	5258	517286.827157046963	2
2	5264	517797.398044696218	1
2	5272	518786.395522571156	0
2	5281	519588.869096352199	1
2	5289	519825.729535090722	0
2	5348	526225.770734234107	1
2	5350	526225.770734234107	0
2	5358	528172.413643240191	1
2	5360	528172.413643240191	0
2	5385	533471.024018888081	1
2	5387	533471.024018888081	0
2	5394	535888.032608331078	1
2	5396	535888.032608331078	0
2	5408	537795.890659847751	1
2	5413	537846.710526103387	0
2	5421	540210.699958245963	1
2	5423	540210.699958245963	0
2	5438	541803.804716161241	1
2	5440	541803.804716161241	0
2	5455	544233.354883394693	1
2	5457	544233.354883394693	0
2	5472	546075.103155701262	1
2	5474	546075.103155701262	0
2	5507	551749.22804379295	1
2	5509	551749.22804379295	0
2	5513	552581.850544538081	1
2	5518	552685.346822956579	0
2	5526	556012.484560251956	1
2	5528	556012.484560251956	0
2	5540	557143.984666062722	1
2	5545	557243.724696588125	0
2	5548	557250.816666738297	1
2	5556	557919.286603910336	0
2	5568	559327.626140178365	1
2	5570	559327.626140178365	0
2	5612	566810.624927088965	1
2	5614	566810.624927088965	0
2	5621	569042.863402553315	1
2	5623	569042.863402553315	0
2	5640	572646.767904480395	1
2	5642	572646.767904480395	0
2	5645	572681.4541847534	1
2	5648	573337.622451592753	2
2	5653	573602.119948399602	1
2	5662	574389.988553749623	0
2	5665	574436.160205977177	1
2	5670	575319.421524602966	0
2	5673	575846.981179638594	1
2	5679	576171.082398715399	0
2	5682	576649.196210112544	1
2	5687	577095.529665329804	0
2	5712	578492.646170399634	1
2	5715	578680.686854206349	2
2	5720	578762.230504119638	1
2	5732	579530.810172170826	0
2	5783	585958.331130453769	1
2	5785	585958.331130453769	0
2	5792	587480.86709204424	1
2	5794	587480.86709204424	0
2	5797	587597.078543302551	1
2	5803	588508.951112933686	0
2	5809	589550.560013469121	1
2	5811	589550.560013469121	0
2	5832	592296.204537425639	1
2	5837	592498.732077668096	0
2	5861	596082.750806419119	1
2	5863	596082.750806419119	0
2	5885	600411.751777670156	1
2	5890	600448.354402020544	0
2	5893	600493.582128541177	1
2	5898	601264.280144677873	0
2	5906	604262.073965330605	1
2	5908	604262.073965330605	0
2	5911	605026.622311109043	1
2	5917	605284.149686573307	0
2	5926	606077.066505462454	1
2	5931	606220.224493189855	0
2	5940	607288.959317524745	1
2	5945	607468.636886964836	0
2	5965	609308.848841789182	1
2	5967	609308.848841789182	0
2	6009	615470.544749962058	1
2	6011	615470.544749962058	0
2	6018	617214.775937537787	1
2	6020	617214.775937537787	0
2	6023	618023.536632925693	1
2	6028	618154.606978631508	0
2	6043	619802.548956561021	1
2	6045	619802.548956561021	0
2	6048	620276.67599533	1
2	6051	620295.026957215123	2
2	6057	620693.181328502645	1
2	6062	621587.574756024413	0
2	6085	623564.762815108138	1
2	6087	623564.762815108138	0
2	6102	624889.552093675608	1
2	6104	624889.552093675608	0
2	6110	625425.14104675566	1
2	6116	625835.527568445427	0
2	6132	627289.481618451004	1
2	6138	627493.54266005639	0
2	6141	627529.466926606686	1
2	6149	628264.952173136946	0
2	6161	629694.163337602986	1
2	6163	629694.163337602986	0
2	6169	630145.026583483053	1
2	6177	630530.848020813881	0
2	6180	630746.153207408319	1
2	6184	631087.717745712451	2
2	6189	631400.636834276064	1
2	6194	632102.101900925339	0
2	6227	634191.537568024663	1
2	6232	634194.283637712354	0
2	6239	634774.446712031906	1
2	6244	634921.846889113986	0
2	6247	634956.343546271877	1
2	6252	635750.82983493222	0
2	6312	642803.946730320499	1
2	6314	642803.946730320499	0
2	6318	643624.684356474	1
2	6323	643647.874150670412	0
2	6326	643870.111097289664	1
2	6331	644482.370625957908	0
2	6335	644944.513623719402	1
2	6338	645090.893466196175	2
2	6343	645328.901045162002	1
2	6348	646230.439078242843	0
2	6372	648711.647208541853	1
2	6374	648711.647208541853	0
2	6383	649649.596546856741	1
2	6388	649700.337838115346	0
2	6392	649727.274684341344	1
2	6397	650548.466179756232	0
2	6400	651149.968848302074	1
2	6409	651547.514151273182	0
2	6465	657927.752069333712	1
2	6467	657927.752069333712	0
2	6471	658568.904303497623	1
2	6476	658742.340208934714	0
2	6479	659163.776428787697	1
2	6484	659627.023868582274	0
2	6497	662451.215026366474	1
2	6502	662560.485044396406	0
2	6536	669376.37083051411	1
2	6538	669376.37083051411	0
2	6541	669531.612172587193	1
2	6547	670308.002643855826	0
2	6550	671294.983527484013	1
2	6555	671356.108665143307	0
2	6562	673272.71324427636	1
2	6564	673272.71324427636	0
2	6579	675145.399930394256	1
2	6581	675145.399930394256	0
2	6605	677630.717341107439	1
2	6607	677630.717341107439	0
2	6622	678958.479330206743	1
2	6624	678958.479330206743	0
2	6627	679259.19553935723	1
2	6632	679891.044525598369	0
2	6639	680618.42995258703	1
2	6644	680754.147189240902	0
2	6647	681031.061235142826	1
2	6652	681666.77062995068	0
2	6669	683163.345876038884	1
2	6677	683328.731688818537	0
2	6680	683398.451807912103	1
2	6686	684204.791700872897	0
2	6700	685356.448398076815	1
2	6705	685555.088138941973	0
2	6709	686198.412169281258	1
2	6717	686440.552270011461	0
2	6720	686878.850142754965	1
2	6723	687127.217333397765	2
2	6728	687261.198346589593	1
2	6738	688227.291709601004	2
2	6743	688260.666082171639	1
2	6746	688477.452113559296	2
2	6749	688837.51886019913	3
2	6755	689223.703561735792	2
2	6763	690109.133488058133	1
2	6772	691112.736932151733	0
2	6812	693706.048484085736	1
2	6817	693731.610380717508	0
2	6870	698357.719355835812	1
2	6875	698503.932387441887	0
2	6882	701013.980227137485	1
2	6884	701013.980227137485	0
2	6891	702202.58951509762	1
2	6893	702202.58951509762	0
2	6897	703084.25106545034	1
2	6905	703198.397060124282	0
2	6917	704883.024843929189	1
2	6919	704883.024843929189	0
2	6925	705699.280626146445	1
2	6930	705700.623037735596	0
2	6947	707031.049439483347	1
2	6952	707271.15878276761	0
2	6958	707934.302838899828	1
2	6964	708353.133323809649	0
2	6975	709699.666060785336	1
2	6977	709699.666060785336	0
2	7023	714529.688322860928	1
2	7028	714679.435162356416	0
2	7037	718947.492117070945	1
2	7039	718947.492117070945	0
2	7065	726827.564030818137	1
2	7067	726827.564030818137	0
2	7071	726941.303693773999	1
2	7076	727604.501049509378	0
2	7083	728572.534673696768	1
2	7085	728572.534673696768	0
2	7088	729337.498010367753	1
2	7093	729474.945416350818	0
2	7100	731334.010190960458	1
2	7102	731334.010190960458	0
2	7108	731623.912039455518	1
2	7117	732226.443984841493	0
2	7120	732470.18053868072	1
2	7123	732548.154453466865	2
2	7131	733201.452844843237	1
2	7140	734038.167298059435	0
2	7180	736999.697060747428	1
2	7186	737142.43464404725	0
2	7209	738987.808901705106	1
2	7211	738987.808901705106	0
2	7217	740542.406406237629	1
2	7219	740542.406406237629	0
2	7226	742109.342381385389	1
2	7228	742109.342381385389	0
2	7235	743040.163302564936	1
2	7240	743093.019381197654	0
2	7243	743354.874658797956	1
2	7251	743835.850431232247	0
2	7276	745519.526628218822	1
2	7278	745519.526628218822	0
2	7302	748210.962087595784	1
2	7304	748210.962087595784	0
2	7337	753089.42001280157	1
2	7339	753089.42001280157	0
2	7347	756917.588415760342	1
2	7349	756917.588415760342	0
2	7355	757517.623786762029	1
2	7361	757814.045135125174	0
2	7364	757946.296684083481	1
2	7369	758749.358127100146	0
2	7381	760256.423602161147	1
2	7383	760256.423602161147	0
2	7406	762742.055882658041	1
2	7408	762742.055882658041	0
2	7423	764176.622249183605	1
2	7425	764176.622249183605	0
2	7441	766817.149058783492	1
2	7443	766817.149058783492	0
2	7446	766896.252694638736	1
2	7454	767817.009281437217	0
2	7458	768002.367582296994	1
2	7466	768579.562735064695	0
2	7474	769437.326930407674	1
2	7479	769680.018293755252	0
2	7483	769960.231966803676	1
2	7488	770426.713086703475	0
2	7491	770943.479168131423	1
2	7494	771237.954892759149	2
2	7499	771385.803922556455	1
2	7508	772184.774089594353	0
2	7514	772749.25915515629	1
2	7522	772979.364585882089	0
2	7563	775344.604523957124	1
2	7568	775665.852554984129	0
2	7574	775981.423765818009	1
2	7580	776675.599673512552	0
2	7599	778217.741143552323	1
2	7604	778217.836664140368	0
2	7634	782178.979431094389	1
2	7636	782178.979431094389	0
2	7661	787248.843699250607	1
2	7663	787248.843699250607	0
2	7670	790182.448639251632	1
2	7672	790182.448639251632	0
2	7688	793493.849926290031	1
2	7690	793493.849926290031	0
2	7693	793680.03244728224	1
2	7699	794285.965295343812	0
2	7705	795177.947905997406	1
2	7710	795207.918130340777	0
2	7731	798744.354639139217	1
2	7733	798744.354639139217	0
2	7757	801908.181391457888	1
2	7759	801908.181391457888	0
2	7775	804463.648766650107	1
2	7777	804463.648766650107	0
2	7784	806335.226445822996	1
2	7786	806335.226445822996	0
2	7792	807001.148206617978	1
2	7797	807256.351258668465	0
2	7810	809134.057777261238	1
2	7812	809134.057777261238	0
2	7818	810024.774681883727	1
2	7823	810039.119349986001	0
2	7826	810337.754230946671	1
2	7835	810860.015081014308	0
2	7860	812665.964366841537	1
2	7862	812665.964366841537	0
2	7865	812735.84640559265	1
2	7873	813492.8841605003	0
2	7876	813494.721321901172	1
2	7882	814530.749661127024	0
2	7935	819035.345091106622	1
2	7937	819035.345091106622	0
2	7954	823713.76627281845	1
2	7956	823713.76627281845	0
2	7959	823770.554868386635	1
2	7964	824512.272602348231	0
2	7972	826997.499642125186	1
2	7974	826997.499642125186	0
2	7998	830899.130167248324	1
2	8000	830899.130167248324	0
2	8003	831038.894515539222	1
2	8012	831896.119090864816	0
2	8025	834884.015039624349	1
2	8027	834884.015039624349	0
2	8030	834982.74647596684	1
2	8035	835741.113415891178	0
2	8044	836288.783075982639	1
2	8050	836827.028013147703	0
2	8053	837219.930746340081	1
2	8058	837792.394495075672	0
2	8070	838842.027313458572	1
2	8075	839149.466577348984	0
2	8100	841488.716814573757	1
2	8102	841488.716814573757	0
2	8117	842472.848029537434	1
2	8122	842712.382630444648	0
2	8126	843437.739078871153	1
2	8131	843622.92429339868	0
2	8151	845151.803175264496	1
2	8153	845151.803175264496	0
2	8176	847734.578125674427	1
2	8178	847734.578125674427	0
2	8202	850381.494277090718	1
2	8204	850381.494277090718	0
2	8207	850498.402177378716	1
2	8210	850795.221092100966	2
2	8215	851422.85787844484	1
2	8218	851598.639474206842	2
2	8221	851791.766534873398	3
2	8227	852196.521068497656	2
2	8235	853049.19308978477	1
2	8241	853909.262931706784	0
2	8244	854824.151480855718	1
2	8249	854838.95746700424	0
2	8256	855592.226464702634	1
2	8261	855770.382925876215	0
2	8319	859871.704035922429	1
2	8321	859871.704035922429	0
2	8324	860215.797510295252	1
2	8333	860563.167221489393	0
2	8344	862153.742131335379	1
2	8346	862153.742131335379	0
2	8354	864170.477072374794	1
2	8356	864170.477072374794	0
2	8370	865233.596203144534	1
2	8375	865407.406153681807	0
2	8387	866506.817487801843	1
2	8392	866612.744688558573	0
2	8401	867632.571096615424	1
2	8406	867833.597468637962	0
2	8409	867944.044627608701	1
2	8417	868639.365340270089	0
2	8420	868913.253098409593	1
2	8426	869582.206027497919	0
2	8429	869791.0363533739	1
2	8437	870445.938552611991	0
2	8441	871117.519825451575	1
2	8444	871139.307533581163	2
2	8449	871297.924994245359	1
2	8460	872453.901100709626	0
2	8490	874237.468041419691	1
2	8496	874451.243494471669	0
2	8502	874613.523216188089	1
2	8505	875212.361720220129	2
2	8510	875437.665387496122	1
2	8516	876454.821629432203	0
2	8519	876753.878929624139	1
2	8530	877338.892162147111	0
2	8580	881203.449424945288	1
2	8582	881203.449424945288	0
2	8605	883792.05882082479	1
2	8607	883792.05882082479	0
2	8614	885015.417647137696	1
2	8616	885015.417647137696	0
2	8622	885445.50239265638	1
2	8627	885936.761038227144	0
2	8639	887448.651740952369	1
2	8641	887448.651740952369	0
2	8653	889250.379946003763	1
2	8661	889354.832718753661	0
2	8668	890066.765497338444	1
2	8671	890246.653961324093	2
2	8676	890439.782146173418	1
2	8681	891335.837936399096	0
2	8707	893718.806845755501	1
2	8709	893718.806845755501	0
2	8715	894510.831055154729	1
2	8720	894681.35335230654	0
2	8732	895872.026313767096	1
2	8737	895920.579344713155	0
2	8771	898899.760751992566	1
2	8776	899185.866194259577	0
2	8788	900596.725251163572	1
2	8793	900761.891143450078	0
2	8800	902958.211007151166	1
2	8802	902958.211007151166	0
2	8805	903404.245853462933	1
2	8814	903892.90643487583	0
2	8817	904743.082137864494	1
2	8822	904774.719406310923	0
2	8843	907127.693809595649	1
2	8845	907127.693809595649	0
2	8856	908271.470515953242	1
2	8864	908368.960048881887	0
2	8902	912914.509858198196	1
2	8904	912914.509858198196	0
2	8911	914035.558129090836	1
2	8913	914035.558129090836	0
2	8919	915346.884212901132	1
2	8921	915346.884212901132	0
2	8929	917255.256322516935	1
2	8931	917255.256322516935	0
2	8963	920642.441820175779	1
2	8965	920642.441820175779	0
2	8968	920952.902094067343	1
2	8973	921493.88651568626	0
2	8989	925119.90729577048	1
2	8991	925119.90729577048	0
2	9015	928586.438667279934	1
2	9017	928586.438667279934	0
2	9020	928854.607137523493	1
2	9026	929549.185672511919	0
2	9041	932218.971623935402	1
2	9043	932218.971623935402	0
2	9067	935290.161114178585	1
2	9069	935290.161114178585	0
2	9076	936081.258849108107	1
2	9081	936133.151661480651	0
2	9089	937052.35003387335	1
2	9094	937262.013170846942	0
2	9097	937453.618855964534	1
2	9103	937933.135731009751	0
2	9106	938388.509100577537	1
2	9111	938776.710069128092	0
2	9135	941228.506170432327	1
2	9137	941228.506170432327	0
2	9160	943044.535910949549	1
2	9165	943098.486043990488	0
2	9168	943992.939663295083	1
2	9173	944123.704923153034	0
2	9182	945094.63027755824	1
2	9187	945222.655578274372	0
2	9202	946682.029868296597	1
2	9204	946682.029868296597	0
2	9207	947197.77406385521	1
2	9212	947472.933586760369	0
2	9244	950253.747425219134	1
2	9246	950253.747425219134	0
2	9249	950520.641579737312	1
2	9257	951035.320504987072	0
2	9277	952816.906688187789	1
2	9279	952816.906688187789	0
2	9292	954902.338957587522	1
2	9297	955045.330647970081	0
2	9308	956033.165320785656	1
2	9313	956315.395357720212	0
2	9317	956849.87614740827	1
2	9322	957000.212489691894	0
2	9328	957640.483661865654	1
2	9333	957966.41365026835	0
2	9336	958164.759294735993	1
2	9342	958818.374299438144	0
2	9387	962746.743677234381	1
2	9389	962746.743677234381	0
3	988	100478.819655283154	3816.1498185372
3	993	100786.69167854166	3896.4608928274
3	998	101079.974979536509	807.99677287967
3	1007	101402.716320723055	158.70403738056
3	1015	101721.463005767717	218.13472999725
3	1024	103154.379586423135	0
3	1049	105252.101126227103	1157.636213756
3	1083	109005.544378422583	1162.7830299176
3	1091	109333.056703641775	0
3	1100	110535.192803346795	0
3	1108	111337.873229151063	0
3	1125	113125.910021823567	683.68793174859
3	1136	117077.780350152342	0
3	1201	127377.044681828805	3274.7692229017
3	1206	127694.212950830542	766.20879652939
3	1214	128443.578945062727	0
3	1263	132477.947192405223	3640.7317467218
3	1268	132804.159999567314	3399.9944163057
3	1273	133124.57009813919	2220.5919052025
3	1281	133465.24410895696	0
3	1330	137660.915037809417	2809.6757045355
3	1335	137944.621553537544	2208.9805406776
3	1343	138216.860080167232	2271.5263274494
3	1348	138523.438376508835	492.40194350488
3	1377	140747.412656646324	1116.2425648054
3	1393	141929.192734795807	1580.2377842218
3	1398	142224.444782531898	1174.4736755123
3	1455	146878.814685544303	3531.5376303821
3	1518	151407.301450561932	6622.6450960638
3	1523	151685.493984534488	6326.4598104565
3	1531	151968.580715524841	4923.3937334415
3	1539	152249.088668285373	4436.4503787756
3	1545	152577.844110262645	3166.150201156
3	1576	154727.958566792651	4629.5941018213
3	1581	154981.807476026702	4384.2068211053
3	1586	155290.571863494067	3459.0906228011
3	1591	155587.409597983699	3359.7437436768
3	1596	155903.648774388929	2307.337083619
3	1602	156138.272964988117	2307.0505405644
3	1607	156476.676903788597	1766.2240584769
3	1615	157347.790981586571	0
3	1624	158161.489893928041	0
3	1686	164141.459002644259	1110.142561308
3	1703	165258.071130723268	1557.9437878789
3	1708	165549.69070646372	661.43941646029
3	1716	166099.305104144738	0
3	1725	166827.371479520309	0
3	1750	168700.622013676736	688.44776758495
3	1758	169013.725204872732	125.22537360866
3	1788	173846.450706856477	1782.2314734877
3	1793	174141.359340861077	1747.5037843675
3	1803	176578.487594755366	0
3	1828	178517.37011297029	1001.158230773
3	1854	181759.407739150851	918.31052552005
3	1862	182065.490645469788	278.71121458106
3	1879	183614.492549401047	0
3	1887	184690.986090181885	0
3	1913	186881.637447928697	603.72704099197
3	1922	189467.671453825141	0
3	1947	191672.109956073605	1766.7578726717
3	1973	195372.643956490051	0
3	1982	195724.482964973876	0
3	1991	197318.589074894282	0
3	1999	198762.127290226297	0
3	2027	204368.300140051237	0
3	2044	206344.124499558797	0
3	2070	210035.376042960026	790.00294430959
3	2099	213632.349180237042	546.55922083136
3	2104	213964.767057647912	785.00498140266
3	2159	219936.977540476433	4102.2998826133
3	2167	220245.241049288496	2958.3380696413
3	2172	220494.97058859074	455.14799745497
3	2200	222606.338015394384	1302.4992327159
3	2217	223565.29616802156	1758.217199859
3	2222	223832.077353024011	1145.9833607466
3	2230	224166.946277644417	287.41284157343
3	2270	227478.772554520444	2385.0996688197
3	2275	227793.991768695733	1634.7681675286
3	2281	228094.885928688622	1184.071390091
3	2301	230564.871532320556	946.36539733438
3	2309	230867.741919633746	1106.018504121
3	2314	231140.744675794092	462.51000849051
3	2332	234688.902034858901	0
3	2349	235976.83485940598	375.18498282814
3	2387	241565.380492454498	1805.4562669685
3	2393	241908.790150047759	553.43988307237
3	2402	244255.102402249974	0
3	2411	245539.487298183279	0
3	2458	253071.381509788749	881.57211743969
3	2463	253352.808906629295	332.07813019979
3	2473	255577.959156318591	0
3	2481	256312.569494549642	0
3	2545	265136.980932789447	1282.3390441501
3	2550	265440.308934732543	748.76753454198
3	2570	266871.497631987874	572.23506150813
3	2575	267186.978810277097	503.248205725
3	2584	268076.775804341705	0
3	2592	268407.107752579892	0
3	2609	270068.737718938265	0
3	2698	278462.148218054199	5370.9641867968
3	2703	278798.391848026398	2491.0415356814
3	2708	279129.997942423876	2017.1663269958
3	2717	279432.93201997416	1908.2534087054
3	2725	279719.418087828007	1549.8441124443
3	2730	280029.005765153681	684.52787463432
3	2744	281233.262945647004	1519.6695787055
3	2752	281512.546829984397	157.98939325089
3	2760	282373.16461530098	0
3	2854	290615.631908905107	5230.8017152021
3	2911	294614.236956971998	7677.9654302383
3	2917	294917.606526130283	6255.5855771768
3	2922	295231.741973724092	6276.3762537092
3	2930	295458.236343850976	4730.9277579496
3	2935	295766.124103298497	4584.1685051109
3	2940	296057.294547466442	4723.0366913055
3	2945	296353.911670452733	3705.4673014133
3	2962	297667.203817474719	4647.5878297031
3	2970	298012.133502059537	4213.6980440115
3	2979	298322.529454432973	2967.062303532
3	2984	298619.627839726343	1728.5916461469
3	2989	298908.415718192444	1127.0725718944
3	3023	301977.917266514647	3941.4839704852
3	3028	302244.283510196481	1605.1670193207
3	3045	303912.371916501051	0
3	3053	304307.383285764649	0
3	3082	307021.344765694632	1299.901918816
3	3087	307279.574652082512	430.03228702279
3	3153	314611.316711212149	4739.5516037474
3	3161	314887.595875811662	4310.8736679734
3	3166	315178.249390002608	1662.6509926048
3	3175	315504.496608458688	708.72494327077
3	3180	315780.169908527796	392.20006743953
3	3188	316283.605257293573	0
3	3279	323829.123881253762	6822.7724186228
3	3285	324166.903918875318	6634.2146740507
3	3290	324466.726578348284	3733.4436202962
3	3298	324760.235540191579	3275.1075372993
3	3315	325916.732212355464	2752.9087476821
3	3320	326180.215859857572	2708.4086559407
3	3325	326491.792585603288	1976.4052971632
3	3333	326766.488027455331	1017.4850031224
3	3338	327084.018018577363	484.55860872993
3	3346	327359.057384763229	75.513386362782
3	3364	330016.532435197399	0
3	3390	333034.070363016527	27.744346270457
3	3427	337166.551559477453	1514.4177909672
3	3441	338540.454353959549	1680.8394154357
3	3449	339033.323577125829	0
3	3458	339811.894561575122	0
3	3474	341098.680456659603	370.618851952
3	3484	343121.461791653551	0
3	3493	344682.92957447475	0
3	3548	357380.390884169936	625.45570633727
3	3556	357780.298779517745	0
3	3588	360928.532214588755	1878.0598678501
3	3602	362146.411746869251	1855.7316929054
3	3615	363399.505188104106	2580.0194006616
3	3722	372266.748288414498	8707.5907924141
3	3730	372534.100659760398	7672.4405348831
3	3735	372839.897193276884	6677.997452998
3	3743	373128.083758224156	6885.3064899414
3	3748	373384.205227429069	5366.7526183012
3	3753	373683.213718592051	4207.9063826615
3	3762	373988.739625321157	3856.1499940561
3	3767	374283.748703507211	3641.7622939154
3	3772	374562.332263516486	2175.4171993037
3	3777	374849.264780460888	2000.6031588565
3	3785	375162.435800116965	1205.1133637662
3	3791	375458.233514931221	576.35215148517
3	3807	376716.369921429419	1057.971083187
3	3841	379746.734563389538	52.697967930332
3	3867	382802.269802431538	1472.3491923255
3	3875	383033.023692660304	112.17963983939
3	3883	383322.721037739954	146.64980493113
3	3929	387814.203108247537	2392.5750632063
3	3934	388129.318522024755	1705.0727246541
3	4005	393575.874592551416	4614.2198053876
3	4010	393876.120885318808	4521.6225661967
3	4030	395247.480057446938	4447.2717892411
3	4038	395528.902577297806	3846.1419440302
3	4043	395795.416927062204	2760.6500981475
3	4049	396114.256896645045	2112.077080676
3	4054	396365.352360350128	2246.056418438
3	4059	396715.842006642839	1300.8119082472
3	4067	397111.49232448097	0
3	4084	398471.781999958594	769.28347082548
3	4092	398886.144898434842	0
3	4118	402306.289844802338	342.88220296714
3	4128	404964.599005153826	0
3	4161	407577.694440490564	1306.8078947319
3	4170	409644.05301846369	0
3	4187	411100.364572344139	596.3717584501
3	4195	411395.671531592271	244.22590677999
3	4214	414909.335220385659	0
3	4279	421473.457331805698	3649.089791123
3	4285	421781.085402286267	1431.816601435
3	4290	422104.982506769939	1540.7678560897
3	4298	422421.06011135083	21.741039461854
3	4306	422959.682317066463	0
3	4323	424713.891665780365	0
3	4340	425750.080931309321	326.25972026717
3	4358	428623.132028785908	521.76157073078
3	4366	429316.091827731975	0
3	4384	432848.471866422067	0
3	4611	451977.057452385691	16639.578921339
3	4616	452250.940048876931	14500.492464353
3	4624	452527.960148076963	13813.592593132
3	4630	452813.267686375707	12605.759744998
3	4635	453166.970404007666	12706.035802941
3	4643	453463.110651455985	11259.052606962
3	4648	453713.098393195389	10365.190838592
3	4653	454017.681202866059	10636.566129065
3	4662	454314.531186667695	10014.389431874
3	4678	455510.565240215081	10036.615168704
3	4692	456851.992949560803	10766.340208616
3	4697	457123.093122746238	10403.52590672
3	4702	457399.479803014798	9680.3453844333
3	4716	458469.528737841628	9300.7872858775
3	4724	458750.115362334057	9468.2307219441
3	4729	458996.180003617384	8082.0891018041
3	4734	459323.561900977673	7855.8163684891
3	4740	459615.204549882489	7364.2545553757
3	4748	459925.070346695425	6681.1644644218
3	4753	460181.224367129783	6129.2218807261
3	4767	461298.896723410204	5877.1227692305
3	4792	463373.940399586822	4861.0598357077
3	4797	463666.746111339941	3891.2205088108
3	4802	463984.55014907032	1732.4614695774
3	4811	464893.595615884827	0
3	4819	466212.941556061466	0
3	4828	466764.521273817447	0
3	4865	475125.945367363993	441.43089601588
3	4882	476600.341497369755	583.24074477458
3	4907	479239.582911034308	0
3	4916	480104.472968603296	0
3	4924	481232.872590275184	0
3	4933	481850.47417862507	0
3	4976	488233.028810422424	0
3	4993	489368.410965867403	116.75408341532
3	5001	489696.632507959597	30.020253293088
3	5010	491165.272378772287	0
3	5019	493501.397348903589	0
3	5055	499865.241801399312	0
3	5064	500878.763771811146	0
3	5081	502958.883052429351	0
3	5152	510367.553371726967	4715.3637984536
3	5160	510680.866909084332	1457.401570477
3	5169	511011.161534329766	407.35973284868
3	5174	511271.271681092653	470.40614215864
3	5182	511671.126263778997	0
3	5190	511925.115592644779	14.33712438129
3	5207	513283.946748016772	361.81276167172
3	5215	513649.365654995305	0
3	5278	519585.622745258631	2823.1939475348
[...]
7	3523	354540.402738962751	2
7	3532	355447.522097226993	3
7	3537	356348.63558186636	4
7	3542	356754.935177832661	3
7	3546	357380.390884169936	4
7	3553	357780.298779517745	3
7	3567	359050.472346738696	2
7	3574	359861.880437025453	3
7	3579	360290.68005396385	2
7	3582	360819.485787442536	1
7	3586	360928.532214588755	2
7	3600	362146.411746869251	3
7	3613	363399.505188104106	4
7	3621	363559.157496000443	3
7	3642	364729.68878790516	4
7	3646	364861.660124877308	3
7	3654	365702.742349200031	4
7	3661	366161.899740278872	3
7	3664	366242.777268282762	2
7	3668	366562.190161079896	3
7	3677	367406.323933061298	4
7	3681	368017.452609127862	3
7	3686	368581.968547932201	4
7	3693	369475.307335930585	3
7	3697	369523.718206972085	4
7	3701	370132.589631265099	3
7	3706	370414.647121665494	4
7	3710	370641.986409591764	3
7	3714	371402.397159837827	4
7	3720	372266.748288414498	5
7	3724	372386.915064212805	4
7	3737	372848.661621604361	3
7	3756	373957.322436350738	2
7	3779	374881.881363446055	1
7	3793	375658.398838242411	0
7	3805	376716.369921429419	1
7	3825	378026.264608995876	2
7	3831	378871.776736728571	3
7	3835	379694.036595459206	2
7	3839	379746.734563389538	3
7	3852	381329.920610106058	2
7	3859	381880.192020864537	3
7	3865	382802.269802431538	4
7	3869	382920.844052820911	3
7	3877	383176.071232808829	2
7	3901	385348.097817951955	3
7	3905	385421.628045041214	2
7	3910	386060.819334785523	3
7	3914	386424.24579737064	2
7	3921	387017.882436187544	3
7	3927	387814.203108247537	4
7	3947	388961.654787163827	3
7	3952	389316.07710144965	4
7	3956	389354.498319122072	3
7	3969	390303.524059387809	4
7	3973	390800.20826820585	3
7	3978	391151.447575215368	4
7	3982	391682.760633267615	3
7	3986	391923.896886858257	4
7	3995	392784.530197578431	5
7	3999	393034.766828914675	4
7	4003	393575.874592551416	5
7	4015	394002.179815969069	4
7	4018	394119.295941912158	3
7	4028	395247.480057446938	4
7	4032	395415.03009839563	3
7	4064	397111.49232448097	2
7	4077	397702.498529133118	1
7	4082	398471.781999958594	2
7	4089	398886.144898434842	1
7	4108	401424.773070071849	2
7	4112	401963.407641835194	1
7	4116	402306.289844802338	2
7	4125	404964.599005153826	1
7	4142	405975.903948752771	2
7	4146	406270.886545758622	1
7	4154	406703.192527601436	2
7	4159	407577.694440490564	3
7	4167	409644.05301846369	2
7	4181	410503.992813894037	1
7	4185	411100.364572344139	2
7	4189	411151.44562481228	1
7	4208	414283.357780177073	2
7	4211	414909.335220385659	1
7	4229	416980.311454619012	2
7	4233	417824.367540682685	1
7	4240	417906.386026371499	2
7	4249	418993.441187395218	3
7	4257	419801.438522794578	4
7	4265	420349.268800851308	3
7	4268	420564.214650680236	2
7	4272	420672.595545569085	3
7	4277	421473.457331805698	4
7	4292	422399.319071888976	3
7	4303	422959.682317066463	2
7	4318	424674.434584359111	3
7	4320	424713.891665780365	2
7	4334	425423.821211042152	1
7	4338	425750.080931309321	2
7	4351	428101.370458055131	1
7	4356	428623.132028785908	2
7	4363	429316.091827731975	1
7	4378	431611.460429508817	2
7	4381	432848.471866422067	1
7	4396	434150.051121311902	2
7	4413	435115.369466823954	3
7	4420	435337.478531047083	2
7	4428	436195.394840269678	3
7	4437	437171.305056307824	4
7	4444	437750.447584524022	3
7	4448	438252.626238983652	4
7	4458	438714.367554945421	3
7	4463	439096.650618614592	4
7	4471	440020.626798461944	5
7	4475	440207.507941378003	4
7	4478	440460.93460106622	3
7	4486	440819.81927231259	4
7	4491	441740.39343799469	5
7	4495	442204.058044494029	4
7	4506	442706.797550296581	5
7	4510	443347.907554603273	4
7	4513	443381.115073800676	3
7	4517	443565.344072715784	4
7	4522	444300.141754793347	3
7	4526	444585.521727224875	4
7	4533	445473.950071511103	3
7	4537	445494.758047597915	4
7	4548	446085.652740944788	3
7	4552	446353.412609451592	4
7	4556	446719.567216025803	3
7	4560	447331.828622502164	4
7	4565	447719.134418581513	3
7	4572	448282.735115432895	4
7	4580	449168.741451964157	3
7	4584	449262.17478371696	4
7	4588	449281.884640390005	3
7	4592	450082.556933346149	4
7	4597	450914.090901813266	3
7	4601	451029.237803110403	4
7	4605	451467.745532488531	3
7	4609	451977.057452385691	4
7	4618	452250.949994506813	3
7	4637	453243.905882273603	2
7	4655	454052.002486403671	1
7	4672	455421.773954179748	0
7	4676	455510.565240215081	1
7	4690	456851.992949560803	2
7	4714	458469.528737841628	3
7	4718	458512.880563879148	2
7	4742	459775.525602529137	1
7	4765	461298.896723410204	2
7	4777	462252.088679492919	1
7	4784	462459.792302195795	2
7	4790	463373.940399586822	3
7	4808	464893.595615884827	2
7	4816	466212.941556061466	1
7	4825	466764.521273817447	0
7	4844	471339.886650035501	1
7	4850	472263.101934487798	2
7	4858	474684.514471348108	1
7	4863	475125.945367363993	2
7	4875	476017.100752595176	1
7	4880	476600.341497369755	2
7	4896	477852.554404888616	3
7	4902	478500.30911600767	4
7	4904	479239.582911034308	3
7	4913	480104.472968603296	2
7	4921	481232.872590275184	1
7	4930	481850.47417862507	0
7	4948	484630.482801496869	1
7	4957	485531.112297369693	2
7	4962	486333.822088289673	3
7	4971	487817.380444623609	4
7	4973	488233.028810422424	3
7	4987	489251.656882452084	2
7	4991	489368.410965867403	3
7	4995	489666.612254666509	2
7	5007	491165.272378772287	1
7	5016	493501.397348903589	0
7	5035	496442.566471732249	1
7	5041	497517.870473219999	2
7	5050	499529.675894405927	3
7	5052	499865.241801399312	2
7	5061	500878.763771811146	1
7	5076	502286.413393901551	2
7	5078	502958.883052429351	1
7	5099	505376.977308704711	2
7	5103	505652.189573273343	1
7	5114	506359.967467548064	2
7	5122	507335.438643486248	3
7	5128	508041.239894738298	4
7	5133	508733.069287788785	5
7	5141	509223.465338607341	4
7	5145	509548.294569701807	5
7	5150	510367.553371726967	6
7	5154	510603.801801481087	5
7	5162	510800.865538934008	4
7	5179	511671.126263778997	3
7	5184	511910.778468263489	2
7	5201	512922.133986345054	1
7	5205	513283.946748016772	2
7	5212	513649.365654995305	1
7	5233	515021.46888665945	2
7	5241	515768.444069165462	3
7	5249	516762.428797723875	2
7	5253	516817.033397762697	3
7	5262	517797.398044696218	4
7	5266	518555.873416643564	3
7	5270	518786.395522571156	4
7	5276	519585.622745258631	5
7	5283	519633.301213957419	4
7	5291	520015.288339986948	3
7	5295	520705.029245834069	4
7	5313	521660.380154500465	3
7	5321	522429.991637326101	2
7	5330	523564.412945400407	1
7	5338	524276.825296596376	0
7	5354	527142.999908154072	1
7	5363	528995.101973190448	2
7	5366	530808.257718923125	1
7	5375	532457.248854505209	0
7	5390	534358.946545471885	1
7	5400	536746.887480301833	2
7	5402	537528.784030974523	1
7	5417	538643.888359128224	2
7	5425	540358.72303197735	1
7	5429	541205.862002129211	2
7	5442	542511.011069483783	1
7	5446	542742.845404317708	2
7	5459	544299.622253847563	1
7	5464	545297.875796056849	2
7	5476	546304.237665679261	1
7	5481	547077.157060747957	2
7	5489	548961.228639812505	1
7	5498	551014.299689496439	0
7	5516	552685.346822956579	1
7	5522	553760.927979998361	2
7	5530	556459.420851013437	1
7	5534	556967.472142250187	2
7	5550	557671.666453158745	1
7	5554	557919.286603910336	2
7	5559	558802.733675670037	3
7	5573	560072.963195645407	4
7	5576	560564.564686569732	3
7	5584	561574.317697812386	2
7	5593	562480.048748065375	1
7	5602	564167.278226951112	0
7	5618	567678.761427807555	1
7	5627	570032.240070611374	2
7	5630	571324.834758624794	1
7	5651	573602.119948399602	2
7	5655	573621.367172520181	1
7	5660	574389.988553749623	2
7	5668	575319.421524602966	3
7	5677	576171.082398715399	4
7	5685	577095.529665329804	5
7	5689	577538.269033849114	4
7	5694	577931.606919168581	5
7	5703	578487.472903025891	4
7	5722	578806.705878678014	3
7	5726	579511.15251347254	2
7	5730	579530.810172170826	3
7	5734	580385.097339784568	2
7	5738	580481.074791971757	3
7	5756	581856.121642500287	2
7	5765	583531.404288147361	1
7	5770	583548.680308034173	0
7	5789	587015.085586728908	1
7	5801	588508.951112933686	2
7	5806	589406.536744914087	3
7	5814	590436.417925355924	2
7	5818	590445.697810066558	3
7	5826	592198.596141411538	2
7	5840	593141.095111922993	1
7	5844	593404.356244614958	2
7	5851	594611.439578649784	1
7	5867	596991.370677755498	2
7	5869	597089.688163026117	1
7	5879	600174.043818935097	0
7	5896	601264.280144677873	1
7	5902	602089.622359434322	2
7	5915	605284.149686573307	3
7	5919	605665.050324137243	2
7	5922	605800.089196984637	1
7	5929	606220.224493189855	2
7	5935	607142.97200217085	3
7	5948	608338.114634844032	4
7	5956	608974.499342974061	3
7	5969	610137.51386956537	2
7	5973	610174.054952144395	3
7	5978	610449.32520850478	2
7	5990	612313.184516459725	1
7	5998	613110.374812207838	0
7	6014	616264.970559842797	1
7	6026	618154.606978631508	2
7	6032	618935.532448413845	3
7	6034	619389.057647981116	2
7	6055	620693.181328502645	3
7	6060	621587.574756024413	4
7	6064	622241.110768874715	3
7	6068	622572.126154642327	2
7	6072	622582.827187603897	3
7	6089	623972.235068426157	2
7	6094	624510.025568646194	3
7	6106	625035.353695935115	2
7	6114	625835.527568445427	3
7	6118	626669.997678339431	2
7	6122	626877.560835328671	3
7	6143	627755.173658771676	2
7	6147	628264.952173136946	3
7	6153	629169.533323541061	4
7	6165	629846.549034697399	3
7	6171	630522.218982667609	2
7	6175	630530.848020813881	3
7	6187	631400.636834276064	4
7	6192	632102.101900925339	5
7	6196	632161.8589233426	4
7	6201	633018.448461400817	5
7	6205	633171.868075853134	4
7	6223	633993.306354301966	3
7	6235	634706.636636320431	2
7	6242	634921.846889113986	3
7	6250	635750.82983493222	4
7	6254	635812.830933529219	3
7	6257	635903.193312621885	2
7	6262	636724.208101124069	3
7	6285	638741.517289836955	2
7	6294	639521.476104854738	1
7	6302	640449.236233147347	0
7	6321	643647.874150670412	1
7	6329	644482.370625957908	2
7	6341	645328.901045162002	3
7	6346	646230.439078242843	4
7	6351	646813.071108847696	3
7	6355	647058.116511511783	4
7	6362	647707.809274909786	3
7	6376	649037.716838691388	2
7	6379	649308.71822301643	1
7	6386	649700.337838115346	2
7	6395	650548.466179756232	3
7	6402	651190.863610460581	2
7	6407	651547.514151273182	3
7	6412	652345.774995121846	4
7	6430	653408.6145754974	3
7	6438	653914.664538250114	2
7	6447	655119.713943036214	1
7	6455	655915.987110427149	0
7	6474	658742.340208934714	1
7	6482	659627.023868582274	2
7	6488	660461.222019799708	3
7	6491	662249.38433671231	2
7	6504	663217.738239515727	1
7	6508	663263.950544352756	2
7	6512	663323.47415242194	1
7	6525	666637.085698980474	0
7	6545	670308.002643855826	1
7	6553	671356.108665143307	2
7	6559	672215.22751447261	3
7	6566	673621.048138230353	2
7	6571	674264.242663230033	3
7	6584	675573.724699662124	2
7	6588	676063.993400546965	3
7	6592	676083.721276835187	2
7	6609	677689.394109099024	1
7	6613	678552.161761099208	2
7	6630	679891.044525598369	3
7	6634	680259.103685399426	2
7	6642	680754.147189240902	3
7	6650	681666.77062995068	4
7	6654	682031.60622005517	3
7	6659	682666.663329721943	4
7	6671	683221.882541733727	3
7	6684	684204.791700872897	4
7	6688	684246.057799383239	3
7	6691	684988.431497526006	2
7	6695	685232.23618627092	3
7	6711	686362.331149132755	2
7	6715	686440.552270011461	3
7	6726	687261.198346589593	4
7	6731	687468.583050638274	3
7	6734	688210.692646937227	2
7	6741	688260.666082171639	3
7	6753	689223.703561735792	4
7	6757	689980.381829293003	3
7	6761	690109.133488058133	4
7	6765	690737.368447840344	3
7	6770	691112.736932151733	4
7	6774	691770.944680672587	3
7	6778	692002.748857399576	4
7	6787	692382.658011710381	3
7	6819	694144.381125793723	2
7	6824	694607.442184950678	3
7	6833	694984.372777189978	2
7	6846	695692.551095633321	1
7	6864	698204.994473069673	0
7	6878	699389.149923772888	1
7	6888	701876.251231613519	2
7	6899	703092.214968264377	1
7	6903	703198.397060124282	2
7	6908	704117.545529818936	3
7	6921	705385.54361417196	2
7	6928	705700.623037735596	3
7	6934	706672.99721090486	4
7	6938	706694.109980273242	3
7	6954	707838.791689017201	2
7	6962	708353.133323809649	3
7	6967	709176.462402702529	4
7	6980	709822.594285673303	3
7	6983	710251.33103437302	2
7	6987	710662.259872917823	3
7	7000	712706.117897007365	2
7	7009	713755.933307405773	1
7	7017	714361.160865786038	0
7	7032	715630.087152960494	1
7	7041	719782.512883161633	0
7	7045	719889.671520894526	1
7	7055	723808.814729521565	0
7	7074	727604.501049509378	1
7	7079	728503.469196410062	2
7	7091	729474.945416350818	3
7	7097	730408.785380140138	4
7	7104	731390.648652048875	3
7	7111	732102.09252539837	2
7	7115	732226.443984841493	3
7	7125	732975.601067021759	2
7	7129	733201.452844843237	3
7	7133	733502.15453836147	2
7	7138	734038.167298059435	3
7	7143	734892.908850609351	4
7	7147	735065.200627761997	3
7	7174	736856.04503190031	2
7	7188	737906.885690287851	1
7	7192	737965.317035078146	2
7	7199	738345.925014328041	1
7	7214	739901.962175624626	2
7	7223	741503.25516359349	3
7	7230	742204.11901638831	2
7	7238	743093.019381197654	3
7	7245	743410.144727340976	2
7	7249	743835.850431232247	3
7	7255	744507.410720589491	4
7	7264	744899.40924273598	3
7	7282	746420.465820490718	4
7	7284	746784.181149417703	3
7	7293	747555.596543322876	2
7	7306	748533.70332570166	1
7	7310	749069.284595539159	2
7	7318	749562.51322205526	1
7	7327	751871.999361643592	0
7	7342	754031.088752112363	1
7	7351	757256.452229727648	0
7	7359	757814.045135125174	1
7	7367	758749.358127100146	2
7	7373	759626.290246240762	3
7	7387	761146.0742030488	4
7	7389	761712.438106481747	3
7	7394	761964.782769777203	2
7	7411	763085.556059190868	1
7	7415	763701.887054568621	2
7	7429	765111.134803874912	3
7	7431	765254.406671203973	2
7	7448	767516.503525496974	1
7	7452	767817.009281437217	2
7	7460	768445.868838660932	1
7	7464	768579.562735064695	2
7	7469	769399.355823983534	3
7	7486	770426.713086703475	4
7	7497	771385.803922556455	5
7	7502	771722.768396737819	4
7	7506	772184.774089594353	5
7	7510	772744.120076398662	4
7	7516	772753.263553694293	3
7	7520	772979.364585882089	4
7	7526	773817.225633181237	5
7	7530	774018.913697934402	4
7	7554	775318.477374656777	3
7	7570	775697.97185925397	2
7	7578	776675.599673512552	3
7	7582	776838.033597911807	2
7	7585	777470.562618176294	1
7	7589	777629.121206036188	2
7	7608	779123.740701864977	3
7	7615	779410.655811164408	2
7	7624	781332.706862514483	1
7	7638	782693.743135316547	0
7	7642	783145.698087531807	1
7	7651	786745.987004445672	0
7	7666	788102.693941216906	1
7	7676	791223.479716764871	2
7	7679	792100.468964695639	1
7	7697	794285.965295343812	2
7	7701	794436.65048914327	1
7	7708	795207.918130340777	2
7	7714	796062.998385985992	3
7	7722	798328.422336198179	2
7	7736	799342.061955112336	1
7	7740	799685.350549760791	2
7	7747	800225.878808302219	1
7	7763	802693.889079321449	2
7	7765	803440.669283706928	1
7	7780	805213.567769009725	2
7	7788	806361.479174612944	1
7	7795	807256.351258668465	2
7	7801	808012.144220666829	3
7	7814	809161.088519879055	2
7	7821	810039.119349986001	3
7	7828	810494.793072955735	2
7	7833	810860.015081014308	3
7	7837	811091.799816004676	2
7	7841	811676.75595271076	3
7	7867	813487.452825240367	2
7	7871	813492.8841605003	3
7	7880	814530.749661127024	4
7	7884	814701.107449611887	3
7	7888	815364.112882716042	4
7	7892	815568.913427417073	3
7	7910	817868.299719915092	2
7	7915	818089.752043515755	1
7	7926	818573.367285296771	0
7	7941	819849.912922139449	1
7	7944	822776.109362308056	0
7	7962	824512.272602348231	1
7	7968	825323.841724746469	2
7	7976	827796.932682763452	1
7	7980	827825.370940178071	2
7	7988	829136.46993533743	1
7	8005	831362.405716321071	0
7	8010	831896.119090864816	1
7	8015	832736.228417981693	2
7	8033	835741.113415891178	3
7	8037	835986.824713993153	2
7	8040	836147.154900412542	1
7	8048	836827.028013147703	2
7	8056	837792.394495075672	3
7	8061	838400.525267844814	2
7	8065	838823.162922975717	3
7	8078	839906.298375291578	4
7	8088	840301.896616111054	3
7	8104	841581.709957274428	2
7	8108	842067.733256783612	1
7	8112	842411.041687855757	2
7	8129	843622.92429339868	3
7	8134	844572.786551989294	4
7	8138	844689.38946202855	3
7	8156	846187.284585374167	4
7	8158	846260.532117020826	3
7	8167	847112.272280187829	2
7	8180	848191.537068246235	1
7	8185	848597.1399037644	2
7	8192	850069.619111205341	1
7	8213	851422.85787844484	2
7	8225	852196.521068497656	3
7	8229	852533.789609847165	2
7	8233	853049.19308978477	3
7	8239	853909.262931706784	4
7	8247	854838.95746700424	5
7	8251	855242.203362873405	4
7	8259	855770.382925876215	5
7	8263	856151.11996727369	4
7	8266	856225.047065426779	3
7	8270	856652.628811435412	4
7	8280	857153.748870551003	3
7	8301	858434.520447057187	2
7	8310	859518.871230652637	1
7	8326	860378.27305012558	0
7	8331	860563.167221489393	1
7	8336	861421.835801613121	2
7	8350	862909.900797976472	3
7	8358	864176.571374363209	2
7	8362	865077.687267506569	3
7	8366	865178.500812271633	2
7	8378	866048.627293388015	1
7	8382	866298.292459932074	2
7	8396	867539.065991336529	3
7	8411	868493.89764547076	2
7	8415	868639.365340270089	3
7	8424	869582.206027497919	4
7	8431	870407.145070681177	3
7	8435	870445.938552611991	4
7	8447	871297.924994245359	5
7	8451	871531.745133171746	4
7	8454	872221.87788300807	3
7	8458	872453.901100709626	4
7	8464	873351.347425095998	5
7	8473	873744.317805450432	4
7	8481	873916.934574764165	3
7	8498	874541.582512784755	2
7	8508	875437.665387496122	3
7	8514	876454.821629432203	4
7	8521	876874.348961594789	3
7	8524	877096.629666933164	2
7	8528	877338.892162147111	3
7	8534	878214.966300788793	4
7	8553	879344.482993136143	3
7	8570	880471.172166863402	2
7	8584	881624.367676989714	1
7	8588	882180.424255278527	2
7	8596	882956.317114618233	1
7	8611	884869.676590979464	2
7	8618	885401.093754372619	1
7	8625	885936.761038227144	2
7	8631	886777.412781621011	3
7	8645	888385.917018207571	4
7	8647	889087.964858933087	3
7	8655	889337.804530219427	2
7	8663	889524.42696596127	1
7	8674	890439.782146173418	2
7	8679	891335.837936399096	3
7	8684	891739.758858854112	2
7	8688	892159.592066933289	3
7	8711	893871.626388767981	2
7	8718	894681.35335230654	3
7	8722	894775.908613261113	2
7	8727	895648.700734956834	3
7	8739	896365.629680692105	2
7	8744	896843.447041780194	3
7	8756	897706.571721402557	2
7	8765	898849.152779901451	1
7	8780	900207.325338601474	2
7	8782	900458.616647703164	1
7	8796	901689.457118122328	2
7	8808	903733.151987117735	1
7	8812	903892.90643487583	2
7	8820	904774.719406310923	3
7	8825	905169.98311437307	2
7	8829	905571.729944966681	3
7	8847	907522.566596647388	2
7	8851	908056.252629155905	3
7	8858	908351.096435123459	2
7	8868	909129.604739514056	3
7	8875	909669.803310817787	2
7	8884	911974.237717239104	1
7	8893	912367.676649425403	0
7	8908	913736.205538116986	1
7	8916	914857.331382578713	2
7	8925	916533.292118454969	3
7	8933	917293.901229872825	2
7	8937	918226.384559522649	3
7	8945	918866.429703066602	2
7	8953	920053.657209174103	1
7	8971	921493.88651568626	2
7	8975	921914.23788497949	1
7	8980	922431.43484796879	2
7	8993	925274.060544898703	1
7	8998	926196.630170406884	2
7	9002	926293.903468616374	1
7	9024	929549.185672511919	2
7	9028	929712.701674624211	1
7	9032	930437.78072641111	2
7	9046	932740.30060024896	1
7	9050	933128.852283961416	2
7	9058	934537.48098039595	1
7	9071	935763.541439698871	0
7	9079	936133.151661480651	1
7	9084	936968.287145539677	2
7	9101	937933.135731009751	3
7	9109	938776.710069128092	4
7	9114	939518.542988299807	3
7	9118	939746.393662199402	4
7	9125	940879.428431406182	3
7	9139	941662.827025684023	2
7	9143	942142.86725102808	3
7	9150	942806.49825912815	2
7	9156	942964.692735223622	1
7	9171	944123.704923153034	2
7	9177	944929.187482598202	3
7	9189	946007.937156986916	2
7	9193	946261.147132875968	3
7	9210	947472.933586760369	4
7	9214	947904.466218840915	3
7	9219	948312.478462929431	4
7	9226	949193.436418995909	3
7	9234	949633.797333598112	2
7	9251	951012.451254085917	1
7	9255	951035.320504987072	2
7	9260	951814.438387522714	1
7	9264	951895.32972616375	2
7	9283	953608.034795528117	3
7	9285	954751.992768512814	2
7	9299	955200.779789471694	1
7	9303	956008.474211539224	2
7	9320	957000.212489691894	3
7	9324	957638.747701444472	2
7	9331	957966.41365026835	3
7	9340	958818.374299438144	4
7	9344	959392.274295626031	3
7	9348	959515.310631722015	4
7	9361	960556.812519532796	3
7	9369	961314.119012835369	2
7	9378	961887.089572451054	1
7	9391	963313.830152984793	0
7	9396	963492.230733258994	1
