version 2
run ResponseMeasurement-5-20170110-19:34:23-20942
attr configname ResponseMeasurement
attr datetime 20170110-19:34:23
attr experiment ResponseMeasurement
attr inifile responseStudy.ini
attr iterationvars ""
attr iterationvars2 $repetition=5
attr measurement ""
attr network controltower.SimNetwork
attr processid 20942
attr repetition 5
attr replication #5
attr resultdir results
attr runnumber 5
attr seedset 5
param SimNetwork.a.parkingLot.parkingDelay "truncnormal(60min, 6min)"
param SimNetwork.a.runway.landingTime "truncnormal(15min, 1.5min)"
param SimNetwork.a.runway.takeoffTime "truncnormal(5min, 0.5min)"
param SimNetwork.a.runway.throughputCheckInterval 28.571min
param SimNetwork.wg.interArrivalTime exponential(28.571min)

vector 7  SimNetwork.a.parkingLot  parkingOccupancy:vector  ETV
attr source  parkingOccupancy
vector 4  SimNetwork.a.takeoffQueue  queueLength:vector  ETV
attr source  queueLengthSignal
vector 3  SimNetwork.a.takeoffQueue  queueTime:vector  ETV
attr source  queueTimeSignal
vector 5  SimNetwork.a.runway  landedThroughput:vector  ETV
attr source  landedThroughputSignal
vector 6  SimNetwork.a.runway  tookoffThroughput:vector  ETV
attr source  tookoffThroughputSignal
vector 0  SimNetwork.wg  responseTime:vector  ETV
attr source  responseTimeSignal
vector 2  SimNetwork.a.landingQueue  queueLength:vector  ETV
attr source  queueLengthSignal
vector 1  SimNetwork.a.landingQueue  queueTime:vector  ETV
attr source  queueTimeSignal
0	842	101364.493563884765	7926.7708513001
0	859	103668.87777102102	7199.9553296269
0	868	105032.72305132537	7279.7546551541
0	934	112015.418283373363	11938.396253214
0	939	112288.11795332768	9793.9393397304
0	944	112628.77329290825	6775.8306538629
0	959	113260.413494664329	5510.213901889
0	1055	121181.9409746167	13990.01809107
0	1066	121534.961299957471	13533.21404979
0	1092	123661.54851093103	15460.189189726
0	1100	123973.47638555036	14195.599145549
0	1105	124268.227184617685	11279.177886739
0	1113	124612.349019192214	10989.110139111
0	1150	127433.030401854336	12437.248027454
0	1155	127767.910789841032	12749.960766465
0	1163	128069.576161390936	12443.065974121
0	1174	129233.735290263022	13048.468669949
0	1182	129534.998402086792	12536.799425341
0	1190	129829.469170244162	12533.034171732
0	1198	130145.300765637478	12714.397953883
0	1207	130447.481867074135	9173.0717434974
0	1312	139756.045934258789	15149.692345459
0	1320	140036.627539767436	17801.161190402
0	1328	140341.471144679027	15326.53929318
0	1334	140645.964165094249	15329.832628196
0	1342	140950.818075009382	12918.942909878
0	1370	143158.720428660721	12799.37768899
0	1375	143430.548746801358	12746.243617083
0	1383	143737.595298451185	12254.609640505
0	1518	154710.95410280225	23201.068983627
0	1523	155040.104499307649	22061.873291152
0	1528	155332.198371145227	21211.213262577
0	1536	155628.790809775343	21491.081819773
0	1544	155952.830293070102	20291.910219804
0	1553	156195.170618818474	21901.057632459
0	1569	157388.290957129768	21359.37253745
0	1583	158616.987962638067	17806.005605347
0	1588	158919.312007383186	17189.850005112
0	1593	159211.873709302101	15587.510831572
0	1599	159475.311687889979	15683.816930685
0	1607	159779.218578587871	14971.239138827
0	1643	162636.670122143331	17196.195154571
0	1654	163911.710076093524	18337.272748416
0	1662	164274.692073175199	17640.206003228
0	1667	164565.895374620441	17686.942697646
0	1673	164867.064310231688	17156.520556136
0	1678	165176.82002414683	18245.547140661
0	1686	165442.923249364849	17606.004185676
0	1703	166560.995525536381	14268.721553007
0	1708	166837.932769325263	14136.641311507
0	1713	167143.090423756963	11082.37706208
0	1721	167455.463341973052	10114.43983946
0	1726	167802.662125742483	8283.1146787542
0	1732	168115.757827144998	7987.7806296418
0	1737	168387.471568718864	7197.9083366179
0	1754	169791.712541634216	7390.8586387852
0	1772	173511.316733157154	8293.6798215186
0	1801	176993.560759706918	8348.4294138471
0	1815	179434.981956287711	7236.3053276517
0	1832	180801.525808054963	6244.579133389
0	1958	191893.702484063387	16314.54213748
0	1967	192182.159688196743	15359.565971429
0	1972	192533.12863245721	12874.8144995
0	1977	192832.146807545316	11247.784131434
0	1982	193170.732998507931	11358.906389371
0	1990	193488.873763091076	11070.898301327
0	1996	193751.425203465832	9812.2428388278
0	2001	194024.308348410797	10072.168930179
0	2006	194297.661031651224	9622.4882025612
0	2017	194620.404178030403	9260.6372034865
0	2056	198612.130678778121	11740.480484977
0	2062	198954.531382437008	12032.858937216
0	2067	199264.310634212053	10512.581880686
0	2075	199755.414435640958	9192.7696313468
0	2086	200548.654248590604	6242.1685501216
0	2100	201689.320394659235	7101.8369357886
0	2125	203872.458905451657	8843.7997852707
0	2134	205226.895456788906	9390.3606861768
0	2143	206651.032806500547	6324.9190999474
0	2151	207122.196363385383	5412.1755459588
0	2171	213371.799628952722	10958.134645096
0	2210	220460.446259465897	11717.26248303
0	2221	220800.134440138701	5722.9337940897
0	2281	226354.363077416203	9789.8740396563
0	2286	226651.670182680798	9556.2968484982
0	2294	226992.76972216019	6334.8281585758
0	2302	227292.445722668766	6543.9412776958
0	2316	228335.998635506097	5747.9396234077
0	2336	230092.538001110964	7144.522561906
0	2341	230390.398047527978	7192.1798562018
0	2378	233720.288363878048	10041.033776731
0	2383	234019.8280825119	6928.6803058691
0	2400	235431.323979572043	6595.1375734981
0	2408	235913.02861907854	5163.0180798952
0	2425	238035.05022978166	7145.5160498311
0	2459	241158.212046374962	9053.8135858445
0	2476	242864.27130301131	8456.4904261659
0	2485	243527.737007302578	6789.3461445314
0	2513	245864.673055960121	7623.0399781001
0	2518	246176.953614635557	7837.8611490714
0	2526	246544.20935800304	6914.0354472569
0	2539	248609.176049555221	7018.6283023151
0	2613	255634.665078652226	12078.262784427
0	2627	255958.44846990401	12101.619942896
0	2646	257907.823386424111	9344.1431210346
0	2654	258169.144710861831	8609.7845293522
0	2659	258446.977118795473	8079.0881503088
0	2664	258779.227906802141	8925.6498727572
0	2673	259121.979386578788	8003.4977299411
0	2678	259420.321556718458	7467.963172393
0	2687	261339.595114092397	7910.7646751221
0	2695	261934.951663094465	6223.5754171335
0	2739	268273.993080047761	12425.16564037
0	2747	268828.966245653499	5527.3801254081
0	2756	269863.149610840573	6143.6396881969
0	2764	270760.427013212665	6355.9572038513
0	2786	275880.264834711045	10338.141313944
0	2802	280529.658418653346	9555.5488716444
0	2834	288101.533356527383	12389.039333104
0	2839	288409.017865938874	5863.2586658794
0	2866	294111.137679435265	10616.940921852
0	2892	297106.548935043836	7693.1564098558
0	3039	310466.125842177125	19366.72923962
0	3044	310800.684162145012	15797.389912226
0	3055	311094.606235857746	15991.171552745
0	3060	311379.64265362479	13267.510965942
0	3068	311670.207156053645	13229.279033248
0	3137	317477.457380972826	16595.11379238
0	3142	317810.512929783179	18656.350211097
0	3147	318089.338202703504	16758.471325321
0	3155	318409.790045271433	16503.848716987
0	3163	318703.932771283611	15937.566686971
0	3169	318912.096675738216	14212.476914964
0	3174	319226.519833883331	14277.711750129
0	3182	319490.450900209098	13515.010945119
0	3196	320724.928479474751	14739.96458786
0	3204	320988.875126676651	14715.713116422
0	3212	321309.100147816401	13897.0579449
0	3223	322558.219240615894	11113.523623288
0	3228	322827.28257129837	11000.721491524
0	3236	323089.264319872672	10677.39540478
0	3250	324519.415689869066	12059.265154554
0	3255	324776.027862475528	11412.300098145
0	3260	325070.359858903842	9778.7044803108
0	3269	326158.329565382021	6738.2457940138
0	3294	328330.619915913947	7094.8383257302
0	3340	332680.365367999872	9767.6585223936
0	3345	332992.698568092689	6718.5071272643
0	3353	334153.295802003466	7363.5536073088
0	3362	334750.43693131451	5950.7215281413
0	3370	335386.069819310544	6511.9290617393
0	3378	335767.749833050028	6013.9320367013
0	3422	341598.775916868613	10261.175408297
0	3445	343613.368993232222	6668.4329331545
0	3487	347246.046855792724	9051.3855734435
0	3492	347466.156880089853	8563.1902705907
0	3500	347802.841394890189	7953.2969793735
0	3514	349041.906322462839	6721.1712281574
0	3522	349396.143798373042	5827.5092456818
0	3531	350306.361437723565	6525.4016343565
0	3539	351136.3289382055	7349.3856708005
0	3559	352679.69659463835	7997.0199759215
0	3590	355772.372710839389	8150.0139527209
0	3607	357662.720261170471	6338.2060780038
0	3655	361686.203905414923	9104.4913619644
0	3661	361960.513709275826	9037.2758512029
0	3666	362283.697531198282	7914.7680847479
0	3674	362577.603467201452	6565.4174192096
0	3734	367920.075337664505	10008.231756641
0	3739	368192.470191504798	9803.4460636191
0	3744	368508.096114105088	9031.0116617481
0	3756	368849.271799870474	9001.5630905963
0	3772	370024.254450758898	6879.1456615829
0	3789	371189.682552373884	7804.2865219777
0	3794	371517.409512891093	7133.4572882547
0	3799	371794.299372623662	6429.2076107657
0	3825	374369.106360295192	8433.2944364048
0	3833	374986.138400670992	6443.1667116639
0	3854	377740.622500402459	7957.503439839
0	3859	378019.537236840246	5849.3163839741
0	3885	380725.38285519855	8011.3851121792
0	3914	384023.626644448315	8124.8099008157
0	3922	384311.190930431882	6156.1491201818
0	3944	386440.698198753689	7821.5852041343
0	4004	391689.682002833744	9736.9438761945
0	4012	392018.556377844041	9812.4937785969
0	4017	392309.676597915259	8026.3775317841
0	4026	392661.433041587591	7367.6201743535
0	4039	393879.213163162067	7272.4143279771
0	4047	394196.106815514563	7484.8856411455
0	4056	394515.62592142563	7722.8836286444
0	4069	395822.386632873837	8497.4122113721
0	4115	401061.047661061908	12959.12654842
0	4124	401340.218116985061	8739.8599285204
0	4207	408250.262906884794	13842.047893103
0	4212	408538.736004920993	11649.096736597
0	4217	408788.968332448544	10950.742591945
0	4225	409085.436390453717	10799.833899476
0	4230	409344.268907928635	10081.890298227
0	4238	409605.897484725483	8404.1900466945
0	4244	409930.173253402562	8455.7635831959
0	4249	410235.687587251951	8242.1877510497
0	4257	410503.189779535343	8208.0685335696
0	4262	410811.105821370115	6568.1759136793
0	4271	411938.686185482337	7412.9144002046
0	4290	417137.887578063595	11555.022918227
0	4311	425243.590434398806	13215.615001218
0	4395	435616.407824322621	15004.244679113
0	4403	435926.053382429396	9463.4446741608
0	4408	436181.762251929731	7207.3901170049
0	4413	436509.435606219966	7528.8775024458
0	4421	436912.917053357191	7793.0055128507
0	4430	437280.651351448324	7885.540824375
0	4578	449033.834684702804	18644.853280248
0	4587	449344.431077526681	17235.255735618
0	4600	450587.152123604644	17587.228719306
0	4612	450890.021312201151	13473.332344681
0	4631	452027.233566495516	14602.905415906
0	4650	454204.151507636356	15264.718571467
0	4659	454464.018603308369	14688.390941677
0	4664	454830.943154127101	14718.055656191
0	4669	455154.096017265116	14909.75727072
0	4674	455425.523822317873	15054.625696398
0	4682	455722.527750300202	14032.673016638
0	4688	456033.008100859995	14080.136069223
0	4693	456315.822945978526	13105.395307257
0	4698	456656.596673954822	12345.242419672
0	4709	456973.405203868064	10594.2123395
0	4803	465523.661027440505	17725.975363475
0	4811	465840.915311810656	16680.503929481
0	4816	466135.932781008112	15463.990990898
0	4825	466440.123636298073	14605.627013935
0	4841	467688.512940053309	15494.018801645
0	4846	467990.625157432073	11166.703705779
0	4855	468267.653081422992	11228.571104688
0	4860	468534.726769167192	11392.471690364
0	4865	468821.930449175936	10884.372975052
0	4870	469051.049748509421	10541.529658362
0	4878	469338.369640525979	10724.552403532
0	4883	469589.969887116452	10484.216707942
0	4889	469919.697243466023	9614.455340163
0	4909	472424.164935496207	10360.106795931
0	4952	476800.197177585608	10407.544430703
0	4957	477049.253197510842	5956.1731636658
0	4965	477813.083645875184	5689.6864941777
0	4974	479637.406755501062	6319.7120476654
0	4986	480248.090687093287	5605.7996394388
0	5010	485430.030541984004	9879.1986765276
0	5031	489199.61874623607	9014.5512457937
0	5096	495090.949190629306	10857.851109862
0	5110	496267.245767734141	10015.506730174
0	5115	496542.16333173674	7378.5910020942
0	5123	496820.70978372926	6885.1323625763
0	5128	497106.30434694291	6555.3765724544
0	5137	497656.221474019335	6076.9122668031
0	5217	505277.057185780423	12726.042174406
0	5222	505624.131167042182	12872.93584864
0	5228	505876.116601375505	10966.374845271
0	5233	506153.586264571953	7389.6704176462
0	5241	506470.227853316813	7511.9091896003
0	5246	506765.58038238431	7239.2366887149
0	5257	507411.572116540497	7507.0081741661
0	5263	507673.777100763873	7311.8627745683
0	5280	509563.728008799287	7792.7290468285
0	5306	513147.388034553657	10371.082734819
0	5334	515615.664944999029	7173.6957966532
0	5348	517317.258402381701	6796.3033913813
0	5357	518328.807420739521	6567.2585589331
0	5368	519343.827387633196	6061.7704631137
0	5382	520601.7259593565	6151.9870310538
0	5400	524046.724513589238	8712.4692425479
0	5418	527392.897271477761	8150.4886099647
0	5431	530507.202705405372	8026.515029069
0	5463	534959.744264268608	9531.7319674322
0	5471	535937.405102128978	5479.7837764101
0	5525	540759.863838509962	10035.134649141
0	5530	541050.865790185325	9760.2590614107
0	5542	542048.661465131043	6066.8840067237
0	5547	542381.456755639709	6033.5166719379
0	5556	544031.859916173703	7234.5503189525
0	5573	545545.541090810341	8222.3576359532
0	5615	549445.554420311104	11035.099292617
0	5624	550420.461971839648	6207.4315186972
0	5632	550937.856718175532	5365.2764603478
0	5640	551398.795106057406	5684.6955499068
0	5658	553991.023697488183	6772.0247620141
0	5709	560127.346474086724	12811.847344121
0	5717	560442.982100243438	7617.8303223289
0	5726	561499.564278596154	5947.0952056391
0	5737	562149.634002736434	4954.7643351576
0	5746	562508.618862973566	6794.6263649921
0	5759	563865.163818592066	6479.9275258544
0	5770	567530.661895921763	9039.7197580761
0	5824	574237.463767123421	11814.600178302
0	5847	576142.678733537276	6935.1884949695
0	5855	576440.15938755518	6120.5136831841
0	5864	577749.691354330656	7108.7481158468
0	5872	578321.638824158394	7277.1771283941
0	5880	578870.477268802443	7001.0753654966
0	5889	580099.647018948996	5890.982937608
0	5923	591526.413181457297	17114.372378233
0	5982	597157.393287927253	10412.804044539
0	5990	597455.340304929426	8031.9989256271
0	5998	597695.522326944441	6239.4683385063
0	6003	598005.664346492138	6057.8747853913
0	6015	599322.820919213934	6876.3914761905
0	6032	600551.100900640098	8376.4742734835
0	6040	600795.939262830511	7994.2783633506
0	6083	605804.310446650814	11915.78445556
0	6088	606072.522910780386	6800.8209289339
0	6108	608347.956510965331	7650.9984130066
0	6114	608621.050586702513	5418.0836205774
0	6128	609726.090945626058	6266.9805473427
0	6156	612849.464152310106	8450.0936410087
0	6173	614136.411238286431	6946.773588657
0	6193	616237.719291398025	6730.1078659439
0	6198	616555.737381964489	6841.6801443591
0	6236	620637.7434947908	9376.3469591467
0	6244	620906.494290284837	7973.953577997
0	6266	623090.283956959747	8101.3040359056
0	6274	623411.750069235607	5676.995743284
0	6283	624252.733372644193	6060.7146331096
0	6292	625725.517339217641	7380.4750141162
0	6303	626229.927295819836	5583.7526733231
0	6319	630978.740841585477	10009.494281562
0	6373	637403.748564788869	11328.101968321
0	6378	637678.172404755563	6142.0631614806
0	6387	638128.505554037001	6305.3003135068
0	6404	639552.203623725482	6474.9086874779
0	6412	640610.107764070691	7109.5948331753
0	6430	644162.563573820584	7912.1776662891
0	6440	647364.686365393936	9083.1402091137
0	6467	651876.261182502028	8845.9138354908
0	6502	656637.900729587643	9252.2344488507
0	6522	658799.792796333308	8850.008487253
0	6547	660919.822052131377	7463.41584461
0	6555	661225.453174196065	7435.2896021652
0	6569	662670.992091001811	8805.689892599
0	6586	664212.685095704676	6690.1648626797
0	6594	664596.683135484161	6029.5649221242
0	6603	665714.025669493297	6015.7259378681
0	6620	668179.420892958751	7247.3758562243
0	6638	671720.993443289529	8643.0495646994
0	6648	673990.72480017143	7102.7750401473
0	6694	679779.822942464511	10594.124163928
0	6719	681689.625497839626	6417.3152148874
0	6724	682008.465091100924	6705.6531318769
0	6733	682675.008163666659	6680.7146699975
0	6741	683515.874619472052	7223.0524485536
0	6750	685274.211579764057	5686.7811696437
0	6795	692897.561507298291	12504.565668295
0	6811	694057.006942593746	6180.1131145736
0	6829	696209.504997659661	7796.2138650172
0	6840	696967.86194486876	6364.9180078999
0	6845	697226.780788518325	5390.4058243507
0	6879	700244.758943188432	7309.4660299897
0	6904	702215.450332030991	7269.2065550966
0	6912	702744.405113478469	5465.9977330806
0	6932	704203.22317793314	5163.3489166075
0	6937	704502.232027612863	7158.450773443
0	6954	706221.99862704852	5946.8880585556
0	6964	708400.979743615095	7629.3065495608
0	7006	713077.232901095637	10071.821968378
0	7018	714492.289317920607	9521.9689617142
0	7026	714757.79747227574	5425.4350805543
0	7040	715771.249592250144	6049.2061764124
0	7057	717383.044251976458	6657.3695742113
0	7066	719394.238854298387	8539.1851406749
0	7087	721789.828943302765	7111.7185418061
0	7118	725160.243546205353	9153.5635668219
0	7135	726943.461968487941	7424.8280283973
0	7143	728081.432962504395	6563.0889953487
0	7152	728833.496991062345	5847.0515053467
0	7169	730602.241221862241	7141.411621681
0	7195	735168.748748042528	9436.5705312287
0	7204	735854.910061971003	6577.5144803309
0	7230	739165.186391190356	8402.1392954639
0	7239	740742.602671305196	6560.0067649227
0	7247	741913.567102209137	5793.7144523949
0	7284	749153.876378873406	12489.880279891
0	7292	749696.978508409709	5440.2841487989
0	7302	752995.988629804996	7943.2554662813
0	7346	759641.047249297269	11807.516000185
0	7355	761237.765576928777	6486.1142429091
0	7363	761693.075609279338	5371.7876659799
0	7383	764037.206438537919	7200.7857263734
0	7426	769037.246082709772	10555.775594162
0	7431	769329.124330626572	6358.8428047203
0	7474	772350.931404060154	8354.5029892405
0	7496	774721.889499981305	9911.1856280315
0	7505	775034.716449167286	7941.8132620839
0	7510	775368.030362387407	7717.8539275319
0	7515	775635.882018420281	6136.0904584248
0	7523	776029.230802928566	6461.5550089632
0	7532	776868.660557781085	6849.2070398692
0	7549	779300.018586404092	6987.8452713655
0	7583	782685.589853250836	10338.182737397
0	7595	784205.327153346556	6099.3410425172
0	7609	785199.300604410936	5815.8971171501
0	7617	785752.728144169616	5313.7837612991
0	7626	788050.356473067331	7026.7056203194
0	7662	794453.560423926468	10506.953594538
0	7670	795387.448881262235	6353.6340831224
0	7680	798185.832891965436	7597.8949491366
0	7708	804427.089565985649	11240.325646887
0	7733	807261.922663975495	7592.2029845572
0	7779	811485.028785234923	9604.2116748455
0	7784	811829.73016057744	6785.6555492896
0	7793	812565.35185189346	7363.0225129103
0	7804	813564.882198298314	5871.9612616157
0	7809	813839.815483353036	5699.2721647074
0	7826	815609.148367645925	7395.3533065453
0	7853	819447.131001393643	10325.696922522
0	7870	821956.282302475551	7626.5832190158
0	7887	823275.041353429987	5781.5523999079
0	7904	825751.51872784283	8043.6730562762
0	7913	827436.453979002431	6673.7910625067
0	7930	828677.534352304628	6576.1133910353
0	7957	833324.214784161185	9960.2462905909
0	7966	836132.917569690355	8542.5753133264
0	7975	837122.857443242845	6001.8396480795
0	8018	843294.046951429622	4690.6359956839
0	8027	843966.64661308029	12694.258972574
0	8036	845954.67375867287	7279.6773970178
0	8053	847761.880339467739	7001.2036191416
0	8079	851382.51074428449	9283.3848231146
0	8096	853436.137203002973	6911.084948004
0	8105	853982.262009312324	5606.3011209248
0	8117	856971.697823461911	7998.2765869547
0	8223	867144.119432204122	14824.193575501
0	8228	867411.525453454622	10639.315356356
0	8234	867695.551980199634	8723.0009211486
0	8242	867972.972544330063	8157.6081846232
0	8282	870981.164343251734	11085.665338235
0	8287	871251.300437971245	10903.484171301
0	8292	871526.490333252999	10000.250245513
0	8297	871781.376103107075	10252.89821894
0	8302	872084.032953871508	9666.9258788368
0	8310	872387.482065853872	8493.9194872227
0	8319	872678.277202478405	7565.8136165531
0	8344	874889.311072500321	7174.2011565056
0	8349	875210.69707982217	6705.2443439192
0	8395	879529.269709869229	10596.967842463
0	8400	879849.246264248266	7218.2691456979
0	8414	880505.232785400791	7818.3262546879
0	8448	883290.552097271225	7512.7294743305
0	8453	883549.284662059963	7050.4739569654
0	8458	883862.499988307404	7088.0580822061
0	8507	888454.861417413769	8201.9479644387
0	8512	888768.29468518597	11174.689306335
0	8517	889080.246807960895	8217.135841731
0	8525	889601.505395545823	7527.8655002093
0	8537	891191.605541161337	6541.454216975
0	8546	891487.610118540258	6627.9240890534
0	8551	891848.123336386767	5991.1380959657
0	8570	897540.536222287214	10932.406823752
0	8609	904698.805715222441	11729.520291781
0	8627	907702.021394007595	8551.2981597195
0	8669	911839.807324469431	9243.6424061718
0	8678	912120.838386725332	9394.0196961697
0	8683	912413.031723167867	7849.3259277288
0	8700	914162.072356427472	6529.4805430637
0	8708	914550.347834525929	6288.2720500288
0	8717	915496.475184247026	6099.0066693017
0	8742	918446.675064291226	7814.4028467574
0	8772	922631.068353570267	9678.2084439673
0	8777	922971.862563634542	6457.0441805326
0	8786	924954.637737600913	7879.2960937453
0	8795	926514.546651018067	5949.1558383754
0	8838	932442.48086739111	11707.473276372
0	8847	932966.522781013013	5259.2557545361
0	8859	934511.997859475602	5738.9947318326
0	8872	935721.444221041912	5670.9730053378
0	8891	939556.36021394604	9097.0910217919
0	8908	942081.425642300203	7596.7165670596
0	8943	946747.375184124512	9096.1933949654
0	8963	948828.21827401056	7865.5161023355
0	8971	949185.568832714079	5758.0406635229
0	8988	950441.71875688982	6578.6633999961
0	9108	960244.043853327868	14752.255640949
0	9116	960554.000691955015	13076.568183286
0	9124	960872.633067724786	11999.674088142
0	9129	961099.40824052016	10789.230450481
0	9134	961457.887759656189	10647.666558852
0	9143	961765.636101491402	10532.124963691
0	9154	962072.770735677732	10445.089849556
1	847	102494.178613597321	0
1	873	105852.942639045378	0
1	882	107191.92288354713	0
1	897	108135.806960187884	385.60736741257
1	905	108975.363018438591	973.6157682708
1	914	109787.41834485276	1586.059023648
1	922	110770.605483653554	992.72824365208
1	961	113260.413494664329	271.36419678567
1	969	114163.644455582168	540.40557550065
1	987	115109.808412367296	114.02603796671
1	995	115983.364439552402	965.4144161761
1	1004	116730.648892910299	1104.1387056402
1	1021	117710.73568976399	1525.4690694503
1	1027	118444.062480192503	1445.8635034472
1	1035	119152.883911450083	1856.4489129379
1	1046	119951.056662803262	2520.1538510489
1	1068	121534.961299957471	260.55117638075
1	1080	122386.832326309914	151.36597694444
1	1115	124612.349019192214	5.995430392757
1	1130	125491.602198204938	476.67034670558
1	1138	126327.911281885995	1011.7797449879
1	1165	128069.576161390936	37.700996259434
1	1209	130447.481867074135	88.139127403569
1	1217	131428.569533553009	744.26440383422
1	1229	132434.43961237543	951.45395442924
1	1240	133454.102104363152	1944.2169851883
1	1255	134424.728261256288	1446.4970531003
1	1263	135358.935950973266	1237.9508424048
1	1278	136253.001651068231	2115.2926610663
1	1283	137102.715836635561	2808.6028502765
1	1292	137943.651173882088	2282.7311006161
1	1300	138648.860767838101	2619.9423481582
1	1344	140950.818075009382	139.83571771818
1	1355	141907.281192170225	177.8191898987
1	1385	143737.595298451185	113.23242072126
1	1394	144607.061779562718	815.56702235811
1	1408	145476.719997361234	668.74055760043
1	1420	146447.554807351065	1007.0798397783
1	1434	147216.883931756882	1642.4466040797
1	1446	147989.391221354872	1354.9051514074
1	1454	149109.567962483984	2230.6152855093
1	1463	149908.319301299245	2977.0464178132
1	1471	150764.631762532034	3054.0880084361
1	1480	151677.693365941993	3840.7743022529
1	1494	152558.930684770846	266.65671224117
1	1506	153459.438740467559	758.1472826491
1	1555	156195.170618818474	134.4572571412
1	1571	157388.290957129768	47.267454616664
1	1609	159779.218578587871	259.6711315996
1	1617	160542.164092102326	414.18689459912
1	1629	161620.102445388229	430.53921328722
1	1645	162636.670122143331	235.81621929435
1	1688	165442.923249364849	225.28633772633
1	1742	168645.131345859846	0
1	1760	172198.676628636004	0
1	1777	174556.94667466593	0
1	1786	175579.160346583387	0
1	1803	176993.560759706918	170.96704293938
1	1820	179658.31413295733	0
1	1837	181584.362676111563	0
1	1852	182484.864134052412	673.03752491544
1	1857	183387.529790370844	969.55432860677
1	1872	184367.325125022009	428.14276038401
1	1881	185146.043996646508	1193.9045784144
1	1892	186003.867221936449	1328.6943928464
1	1901	186880.947813669232	1521.1808391253
1	1912	187649.930637573713	778.28044377242
1	1921	188652.676237838059	1731.0037926169
1	1935	189649.812002381106	898.08324885497
1	1944	190680.01053579386	117.36573149969
1	2019	194620.404178030403	313.91847956142
1	2034	195540.097982287551	952.61452341689
1	2042	196534.03661625493	1505.377496074
1	2048	197371.957050016017	1535.4222794039
1	2088	200548.654248590604	222.54054203751
1	2105	201710.02081742659	0
1	2117	202561.132532006795	147.46754815025
1	2157	208743.183776436146	0
1	2177	215077.200646049026	0
1	2186	216564.489037759871	0
1	2194	217310.46000052684	215.08666634428
1	2223	220800.134440138701	142.19287655428
1	2229	221649.331275057152	900.82683008421
1	2240	222609.922269551309	21.863257452923
1	2252	223508.839862887254	560.82442368232
1	2260	224201.006753432215	1002.788562106
1	2266	225102.115652731291	1422.8610655839
1	2304	227292.445722668766	201.29794602595
1	2321	228836.186406073895	0
1	2346	230750.010539183372	0
1	2355	231712.018476157528	822.48429620692
1	2366	232468.320862948799	363.92240241833
1	2388	234407.780876845408	0
1	2414	236738.390862771134	0
1	2430	238241.633077860052	0
1	2442	239297.992434046224	958.89996848202
1	2451	240096.509107627744	466.33519688158
1	2464	241590.547747240131	0
1	2490	243556.402294225285	0
1	2501	244608.084690795614	751.25616378756
1	2541	248609.176049555221	45.495784165685
1	2552	249595.106397943601	35.746216433962
1	2564	250521.40389966878	667.82586562387
1	2572	251405.695607635398	1037.8066391487
1	2581	252377.172019179298	1258.6903625416
1	2586	253374.378146636564	1422.0197623111
1	2601	254459.182984990516	1030.3525460202
1	2629	255958.44846990401	247.07222394301
1	2637	256942.581555669313	1093.7541159914
1	2701	263301.586120245393	0
1	2710	264223.843525032696	504.33360238901
1	2718	265029.447439439106	624.97763007774
1	2727	265879.266056640549	337.14253587328
1	2770	270974.109547008967	0
1	2788	275880.264834711045	167.7708112879
1	2808	282545.759200059463	0
1	2817	283529.767457293336	35.570699709954
1	2844	289413.392525188002	0
1	2853	291099.396602557401	0
1	2872	295003.294249918802	0
1	2883	295942.684536316473	839.24985320414
1	2897	298112.131687683237	0
1	2909	299160.677574003013	719.74945119722
1	2918	300046.768442549298	892.60572386269
1	2929	301025.993865002262	143.65027640951
1	2941	301985.151601849686	654.284724467
1	2952	302953.166010864304	1047.2246825796
1	2961	303783.184652144481	1016.8185678316
1	2969	304708.831128798223	9.211368023889
1	2981	305705.445672157206	756.63758840263
1	3001	306701.002095317025	725.56214022726
1	3013	307498.890882579206	1513.9269909647
1	3018	308447.2334897709	2174.0714795166
1	3027	309256.751322994791	1844.7091200781
1	3070	311670.207156053645	225.51153872562
1	3085	312677.602524845044	851.04144507077
1	3099	313525.264760888514	1113.395845796
1	3108	314415.293146292886	1955.1426109782
1	3116	315309.001289179016	1945.2735248483
1	3125	316241.322989134695	949.66761054167
1	3184	319490.450900209098	70.367128840851
1	3214	321309.100147816401	73.318557632689
1	3238	323089.264319872672	176.55747426638
1	3274	326274.191440828396	0
1	3282	327091.432251280924	301.69005658628
1	3299	328799.715403173243	0
1	3308	329726.77658170017	852.63582412888
1	3319	330581.755871499577	827.93807515081
1	3328	331396.286400874238	58.685892302302
1	3384	336944.93606007776	0
1	3393	338194.661282349192	0
1	3401	339179.742347748946	276.7757382498
1	3410	339870.989642000627	21.445226483986
1	3427	342320.73509430546	0
1	3447	343613.368993232222	44.734440541022
1	3461	344517.273280989862	736.31347762283
1	3470	345335.134559777706	1548.1912923727
1	3475	346118.434590015805	1435.7579712989
1	3502	347802.841394890189	180.48263677172
1	3544	351324.514183166655	0
1	3561	352679.69659463835	97.984051187874
1	3570	353679.591982380347	756.35412430744
1	3578	354589.395875813594	220.46642936321
1	3595	356012.186047991865	0
1	3612	357911.843581023053	0
1	3624	358874.108825792077	485.08469790641
1	3635	359712.172662924684	235.08821056771
1	3647	360573.33435804815	725.62564877401
1	3679	363145.108789175997	0
1	3691	364144.634851627572	759.2388212314
1	3705	365120.504077009871	736.5518523735
1	3717	365995.86075717965	630.76899532164
1	3722	366844.208540089764	908.39661619935
1	3758	368849.271799870474	306.30011086343
1	3774	370024.254450758898	241.13539019539
1	3805	372170.220852866182	0
1	3813	373141.844832150698	427.84708913136
1	3839	375898.816743632598	0
1	3864	378155.04181025009	0
1	3873	378964.578158954175	345.46516433479
1	3890	381952.738126639285	0
1	3902	382655.30726116034	449.24466191318
1	3924	384311.190930431882	27.891864300673
1	3932	385293.812867234138	0
1	3949	386606.798835185011	0
1	3967	387600.996910283117	889.77573591403
1	3975	388549.026932674017	1756.2846398928
1	3984	389446.544037913067	2121.5696164113
1	3992	390456.033253432552	2354.1121407908
1	4028	392661.433041587591	61.074853122898
1	4058	394515.62592142563	107.41090764399
1	4075	396889.639268324125	0
1	4087	398009.072639561355	170.84689905738
1	4098	398958.972618898248	673.37012792088
1	4107	399916.893750560176	654.51514085885
1	4126	401340.218116985061	138.51067895412
1	4140	402184.339679429678	709.93000922301
1	4152	403148.873900013184	1155.3740638109
1	4160	404089.283287556404	1794.1620415906
1	4178	405097.103906477472	854.17399878663
1	4186	405922.292120704562	1396.5203354268
1	4195	406887.593362962274	1304.7287031257
1	4276	412027.975433180561	0
1	4297	420612.163145209341	0
1	4316	426462.608708268603	0
1	4326	428974.372134924841	0
1	4340	429906.52601908584	925.96791531164
1	4352	430841.33425465785	1721.4227141514
1	4357	431694.177847869724	2299.0673207964
1	4366	432657.451163524009	2268.4697590689
1	4375	433708.938904458492	1599.7635625497
1	4383	434500.277477751283	1500.3540734527
1	4435	437416.688967519903	0
1	4443	438323.485864323168	899.15771373317
1	4458	439278.738215680784	339.30527951193
1	4469	440215.919462725831	440.29180109411
1	4481	441097.011220727032	984.12372279088
1	4495	441961.700713893142	1717.3619673477
1	4501	442771.237168551555	2400.3390426315
1	4512	443628.04628776287	1938.1915541004
1	4524	444497.419287680301	2544.5472560428
1	4535	445338.525740898132	2128.0981021764
1	4541	446141.243581123833	1829.8893268408
1	4555	447121.994225044395	742.80136067643
1	4567	447956.3572595705	158.67159560502
1	4589	449344.431077526681	184.01969519653
1	4614	450890.021312201151	218.07952209082
1	4633	452027.233566495516	192.73694413288
1	4642	452885.775664248712	691.28152583992
1	4711	456973.405203868064	149.4837522152
1	4726	457922.071731336601	882.98975460111
1	4740	458864.162364717887	1721.9072859146
1	4749	459785.544905093718	1847.9874309693
1	4757	460884.162383243651	2374.6422930963
1	4763	461810.309811771067	3196.4925747773
1	4777	462750.023675349816	3644.2704961755
1	4786	463648.149853428354	3342.9079501253
1	4791	464453.644189200493	2389.5860496351
1	4827	466440.123636298073	47.470889415643
1	4894	471093.080033845054	0
1	4911	472424.164935496207	300.7677837987
1	4920	473317.694707835661	0
1	4928	474642.291047654509	0
1	4937	475591.642704220812	40.810838764359
1	4988	480248.090687093287	63.0231866509
1	4998	484233.098080767229	0
1	5015	486251.739037560214	0
1	5033	489199.61874623607	36.046416593505
1	5041	490194.352017449094	258.77459629618
1	5053	491018.42221341798	467.49443892944
1	5061	491898.070675816707	318.76146860051
1	5073	492888.12728961603	337.11227824145
1	5079	493784.279688350787	1033.0843699484
1	5098	495090.949190629306	181.20743452438
1	5142	498763.915846925776	0
1	5160	499526.560882913765	568.24221919726
1	5171	500380.101714388737	853.75802071934
1	5177	501339.304471379829	1434.7405290055
1	5185	502208.584295641443	1846.6699694459
1	5197	503139.96024162327	1368.9612796525
1	5203	504038.728246136642	1262.4229464017
1	5268	508441.96914834585	0
1	5285	510520.955011000436	0
1	5294	511761.548861806398	0
1	5311	513282.056924519454	0
1	5320	514449.738928302679	0
1	5336	515615.664944999029	281.40967395764
1	5370	519343.827387633196	101.41872612009
1	5388	522480.68767633633	0
1	5406	525428.012296836412	0
1	5433	530507.202705405372	49.581379686492
1	5444	531318.569659060585	593.84046969118
1	5450	532274.19075783817	983.58402906354
1	5476	535981.777458407354	0
1	5488	536834.945164004529	487.00508030274
1	5499	537815.069108443976	1017.7595112228
1	5508	538685.126384382658	1361.9429295256
1	5513	539673.673903872485	1263.218776178
1	5561	544213.030453142462	0
1	5578	545572.58025782771	0
1	5586	546371.517725120792	657.4181689702
1	5595	547264.656976923976	45.658041449934
1	5603	548253.387418027126	937.88828806138
1	5646	552825.151777914566	0
1	5664	555552.469072957073	0
1	5672	556319.708168673618	605.71567069215
1	5681	557202.899928271765	8.030260692931
1	5692	558034.694862671061	649.45856993338
1	5701	558871.700079949583	380.75794210393
1	5748	562508.618862973566	85.755274152591
1	5776	569207.490238567795	0
1	5784	570339.711228351287	20.065523980198
1	5796	571303.738246128864	662.79500764496
1	5804	572190.072434920192	1145.6107391559
1	5810	573059.783790698829	1190.381887393
1	5826	574237.463767123421	28.799685782414
1	5838	575103.455521716479	691.41471849232
1	5898	586744.589243388703	0
1	5907	589423.341379302311	0
1	5925	591526.413181457297	70.359193019135
1	5936	592301.530849800645	353.74128869981
1	5948	593204.766157159119	1030.1395300025
1	5959	594154.215143506375	1707.7857004829
1	5965	595171.903968360149	2370.2430688802
1	5973	596009.102797178545	2120.5768060877
1	6017	599322.820919213934	51.118937367415
1	6042	600795.939262830511	98.981164871823
1	6051	603202.966966125081	0
1	6063	604007.730116869389	548.61971858603
1	6071	604772.005327141612	372.63481584018
1	6094	607189.637649629395	0
1	6130	609726.090945626058	218.47952017196
1	6136	610599.940267748862	885.88303014347
1	6147	611450.847162578721	189.45062693465
1	6161	612932.540712287842	0
1	6178	614988.979921054172	0
1	6204	617734.75432595156	0
1	6218	618564.74172606971	372.7229865351
1	6224	619502.369779038117	1157.3274539367
1	6246	620906.494290284837	260.31966778815
1	6257	621837.387596144598	868.14103612103
1	6305	626229.927295819836	154.28069935194
1	6324	631536.109243275011	0
1	6332	632551.054014590712	727.84877406047
1	6341	633434.123022427142	356.8280861796
1	6350	634298.369264866623	797.85633397121
1	6359	636250.385907531481	0
1	6392	638281.546156280275	0
1	6419	643030.347347011257	0
1	6445	647385.666280736968	0
1	6455	649949.784309080355	0
1	6473	653456.406207521412	0
1	6487	654342.326112679488	552.1625406486
1	6493	655271.578492126147	1406.2762937233
1	6507	657522.520233024942	0
1	6524	658799.792796333308	232.67458297338
1	6535	659726.681157845153	28.381426219931
1	6557	661225.453174196065	293.40813746162
1	6574	663077.943878590079	0
1	6609	666887.949760024082	0
1	6626	669185.698778536082	0
1	6653	675272.31028295221	0
1	6665	676089.90535054125	787.09339131718
1	6673	676994.790332330494	1000.4968386614
1	6679	677767.081930338354	1474.2597594199
1	6696	679779.822942464511	192.39253234419
1	6704	680479.126137326305	86.130298322635
1	6757	687876.89382802019	0
1	6765	688765.877014067774	352.58588142526
1	6774	690602.943936968814	0
1	6783	691836.374964167615	0
1	6800	692935.292913198759	0
1	6817	694946.243776934431	0
1	6850	697278.407380397853	0
1	6859	698172.818539712634	829.03728554275
1	6867	699039.874261325603	0
1	6884	700275.110568492966	0
1	6896	701150.132459396149	378.45926534187
1	6918	703005.410932717233	0
1	6943	704970.320356206449	0
1	6969	709332.362391721452	0
1	6981	710162.306788608552	440.2633727708
1	6992	711055.746485248247	330.07180748313
1	6998	711968.854542691869	1113.8008290683
1	7028	714757.79747227574	79.687070779091
1	7045	716006.679979383475	0
1	7071	719518.633940090593	0
1	7089	721789.828943302765	271.48497614708
1	7097	722986.445485715611	0
1	7106	724010.043799181764	549.21419900049
1	7123	725732.178216813805	0
1	7157	729277.395581640117	0
1	7174	730763.047095726411	0
1	7184	734182.595906382508	0
1	7209	736119.852649814221	0
1	7217	736991.679627269679	327.68352828723
1	7254	744256.69435961084	0
1	7262	745138.061398103231	85.328234579565
1	7272	747833.531249112005	0
1	7308	754751.651334019721	0
1	7317	756321.287943299393	0
1	7325	757237.723791849711	401.30307968517
1	7334	758481.47048854798	0
1	7369	762970.281525906292	0
1	7385	764037.206438537919	40.778023718269
1	7394	764956.003219060804	145.29934711105
1	7403	767092.903187083418	0
1	7415	767997.802091040322	347.6256561848
1	7436	769499.791559995501	0
1	7451	770379.189021949505	811.51322798413
1	7456	771283.827226548989	1264.3737086371
1	7476	772350.931404060154	38.758089021585
1	7488	773390.575222801103	1043.1681069471
1	7537	778105.986110829334	0
1	7554	779383.403487260822	0
1	7563	780438.944382870474	0
1	7571	781296.48041718049	272.82956443256
1	7597	784205.327153346556	258.72032395776
1	7632	789033.814798139851	0
1	7641	790587.93794282883	0
1	7650	793186.763919098742	0
1	7686	799669.719679418274	0
1	7695	801880.817110389411	0
1	7713	805044.074611287793	0
1	7725	806003.484338935938	801.15499995279
1	7739	807692.920936682608	0
1	7750	808516.428659381225	375.88534073563
1	7759	809408.283450704299	1194.4883896037
1	7767	810348.540567238699	1227.1064883669
1	7815	814329.699083459759	0
1	7832	817493.488953522108	0
1	7841	818223.635032826221	515.78936125963
1	7858	820762.662916495711	0
1	7875	822101.420961269346	0
1	7892	823363.968493570274	0
1	7918	827590.342256363967	0
1	7936	831121.017795163305	0
1	7948	832070.523787176731	798.13614667029
1	7981	838603.410955745744	0
1	7989	839518.870685887201	843.87432423217
1	7998	840760.676720326178	0
1	8007	842099.125921169853	0
1	8041	846525.052254998962	0
1	8058	848375.960888387527	0
1	8067	849261.93919504884	288.51795854158
1	8085	852319.925856703225	0
1	8119	856971.697823461911	199.48772636318
1	8129	858972.551059050999	0
1	8140	859901.237597619026	85.8732379122
1	8149	860805.928975738799	910.42997072168
1	8163	861680.773001248013	1332.9567345779
1	8172	862723.099170743838	1196.8590830042
1	8180	863553.61474647784	2025.1368623112
1	8192	864559.086722463629	2141.9796474289
1	8203	865393.04302001201	1499.4804413809
1	8209	866130.928470494636	1018.4648845693
1	8244	867972.972544330063	257.86262833531
1	8255	868813.12139650719	307.66866060426
1	8270	869679.930036534944	747.62816912856
1	8321	872678.277202478405	47.300083928072
1	8332	873653.904563726794	966.99803301387
1	8354	875777.822622940753	0
1	8363	876611.17763489118	112.36692979664
1	8374	877364.642569249086	590.20066314783
1	8383	878325.669738913876	732.06436006324
1	8416	880505.232785400791	252.31933242574
1	8425	881419.656975329119	556.54600909927
1	8439	882107.214640584275	33.574745247734
1	8464	884650.151324186352	0
1	8478	885479.05091221501	619.36488272815
1	8487	886388.5039090781	531.51866865703
1	8498	887387.288956539629	779.15955800409
1	8556	892969.285423441558	0
1	8576	899150.723234288104	0
1	8586	902596.164918297614	0
1	8595	903560.074669388053	833.2559788324
1	8611	904698.805715222441	135.0999197834
1	8629	907702.021394007595	69.429580643777
1	8641	908612.592951682643	350.5171671855
1	8652	909714.996317341611	317.52780239631
1	8661	910660.383333070063	28.111115536213
1	8688	912952.859909603002	0
1	8722	916514.818383101957	0
1	8731	917271.472911115497	196.13126725992
1	8749	920565.390812642706	0
1	8760	921478.784866825883	743.77727580718
1	8801	927707.267026476943	0
1	8809	928773.003127643019	0
1	8818	930050.47121570415	0
1	8826	930837.273597365806	378.00440521168
1	8861	934511.997859475602	27.288784234971
1	8878	937651.181789159093	0
1	8896	940962.70217167503	0
1	8914	943427.528169191147	0
1	8922	944255.91270757083	392.85735067706
1	8931	945491.78821237918	0
1	8948	947477.432508668745	0
1	8973	949185.568832714079	312.60985313157
1	8990	950441.71875688982	131.54096685049
1	9001	951318.894893349845	508.67369254519
1	9016	951987.733746481732	754.22260868113
1	9024	952920.807751701161	1293.1268655798
1	9036	953799.480711284662	2048.6960894348
1	9053	954710.238871894219	2815.5927896278
1	9065	955576.053858967049	2549.9902980008
1	9070	956379.287637298883	2745.0231064266
1	9079	957328.133933126265	3431.9870002551
1	9087	958140.074351339147	3635.8012821016
1	9096	959008.633685775285	4483.3868094286
1	9156	962072.770735677732	113.57453986861
1	9164	963005.812049764533	706.57190160493
2	845	102494.178613597321	1
2	847	102494.178613597321	0
2	871	105852.942639045378	1
2	873	105852.942639045378	0
2	880	107191.92288354713	1
2	882	107191.92288354713	0
2	888	107750.199592775316	1
2	892	108001.747250167789	2
2	897	108135.806960187884	1
2	900	108201.359321204766	2
2	905	108975.363018438591	1
2	909	109777.877240001478	2
2	914	109787.41834485276	1
2	922	110770.605483653554	0
2	952	112989.049297878664	1
2	961	113260.413494664329	0
2	964	113623.238880081515	1
2	969	114163.644455582168	0
2	976	114995.78237440059	1
2	979	115017.950023376305	2
2	987	115109.808412367296	1
2	990	115626.510187270056	2
2	995	115983.364439552402	1
2	998	116185.266620313642	2
2	1004	116730.648892910299	1
2	1007	116998.198976745304	2
2	1010	117296.434998512227	3
2	1013	117430.902811754406	4
2	1021	117710.73568976399	3
2	1027	118444.062480192503	2
2	1035	119152.883911450083	1
2	1046	119951.056662803262	0
2	1063	121274.410123576725	1
2	1068	121534.961299957471	0
2	1075	122235.46634936547	1
2	1080	122386.832326309914	0
2	1110	124606.353588799457	1
2	1115	124612.349019192214	0
2	1121	125014.931851499354	1
2	1125	125316.13153689809	2
2	1130	125491.602198204938	1
2	1138	126327.911281885995	0
2	1160	128031.875165131502	1
2	1165	128069.576161390936	0
2	1204	130359.342739670566	1
2	1209	130447.481867074135	0
2	1212	130684.305129718788	1
2	1217	131428.569533553009	0
2	1220	131482.985657946191	1
2	1223	131509.885119174819	2
2	1229	132434.43961237543	1
2	1235	132978.231208155971	2
2	1240	133454.102104363152	1
2	1244	134120.985108568491	2
2	1247	134137.708990001896	3
2	1250	134294.112986359081	4
2	1255	134424.728261256288	3
2	1263	135358.935950973266	2
2	1267	135660.920073265948	3
2	1273	136028.918419679913	4
2	1278	136253.001651068231	3
2	1283	137102.715836635561	2
2	1292	137943.651173882088	1
2	1300	138648.860767838101	0
2	1339	140810.982357291207	1
2	1344	140950.818075009382	0
2	1347	141729.462002271523	1
2	1355	141907.281192170225	0
2	1380	143624.362877729929	1
2	1385	143737.595298451185	0
2	1388	143791.494757204605	1
2	1394	144607.061779562718	0
2	1397	144807.979439760807	1
2	1403	145440.474967572742	2
2	1408	145476.719997361234	1
2	1411	145574.437327677139	2
2	1420	146447.554807351065	1
2	1423	146634.486069947434	2
2	1426	146878.95267697466	3
2	1429	146931.272883486018	4
2	1434	147216.883931756882	3
2	1438	147710.543754095932	4
2	1441	147836.919063689139	5
2	1446	147989.391221354872	4
2	1454	149109.567962483984	3
2	1463	149908.319301299245	2
2	1471	150764.631762532034	1
2	1480	151677.693365941993	0
2	1486	152292.273972529675	1
2	1494	152558.930684770846	0
2	1498	152701.291457818462	1
2	1506	153459.438740467559	0
2	1550	156060.71336167727	1
2	1555	156195.170618818474	0
2	1566	157341.023502513104	1
2	1571	157388.290957129768	0
2	1604	159519.547446988271	1
2	1609	159779.218578587871	0
2	1612	160127.97719750321	1
2	1617	160542.164092102326	0
2	1621	161189.563232101012	1
2	1629	161620.102445388229	0
2	1637	162400.853902848985	1
2	1645	162636.670122143331	0
2	1683	165217.636911638517	1
2	1688	165442.923249364849	0
2	1740	168645.131345859846	1
2	1742	168645.131345859846	0
2	1758	172198.676628636004	1
2	1760	172198.676628636004	0
2	1775	174556.94667466593	1
2	1777	174556.94667466593	0
2	1784	175579.160346583387	1
2	1786	175579.160346583387	0
2	1798	176822.593716767543	1
2	1803	176993.560759706918	0
2	1818	179658.31413295733	1
2	1820	179658.31413295733	0
2	1835	181584.362676111563	1
2	1837	181584.362676111563	0
2	1844	181811.826609136971	1
2	1847	182417.975461764076	2
2	1852	182484.864134052412	1
2	1857	183387.529790370844	0
2	1864	183939.182364637994	1
2	1867	183952.139418232087	2
2	1872	184367.325125022009	1
2	1875	184675.172829090031	2
2	1881	185146.043996646508	1
2	1887	185359.766974543912	2
2	1892	186003.867221936449	1
2	1896	186871.650193801296	2
2	1901	186880.947813669232	1
2	1904	186921.672445221125	2
2	1912	187649.930637573713	1
2	1921	188652.676237838059	0
2	1924	188751.728753526133	1
2	1935	189649.812002381106	0
2	1939	190562.644804294168	1
2	1944	190680.01053579386	0
2	2011	194306.485698468979	1
2	2014	194587.483458870665	2
2	2019	194620.404178030403	1
2	2025	195028.659120180945	2
2	2034	195540.097982287551	1
2	2037	195836.534770612112	2
2	2042	196534.03661625493	1
2	2048	197371.957050016017	0
2	2083	200326.113706553097	1
2	2088	200548.654248590604	0
2	2103	201710.02081742659	1
2	2105	201710.02081742659	0
2	2112	202413.664983856542	1
2	2117	202561.132532006795	0
2	2155	208743.183776436146	1
2	2157	208743.183776436146	0
2	2175	215077.200646049026	1
2	2177	215077.200646049026	0
2	2184	216564.489037759871	1
2	2186	216564.489037759871	0
2	2189	217095.373334182555	1
2	2194	217310.46000052684	0
2	2215	220657.941563584421	1
2	2218	220748.504444972946	2
2	2223	220800.134440138701	1
2	2229	221649.331275057152	0
2	2235	222588.059012098386	1
2	2240	222609.922269551309	0
2	2244	222948.015439204935	1
2	2247	223198.218191326208	2
2	2252	223508.839862887254	1
2	2255	223679.254587147401	2
2	2260	224201.006753432215	1
2	2266	225102.115652731291	0
2	2299	227091.147776642821	1
2	2304	227292.445722668766	0
2	2319	228836.186406073895	1
2	2321	228836.186406073895	0
2	2344	230750.010539183372	1
2	2346	230750.010539183372	0
2	2349	230889.534179950609	1
2	2355	231712.018476157528	0
2	2361	232104.39846053047	1
2	2366	232468.320862948799	0
2	2386	234407.780876845408	1
2	2388	234407.780876845408	0
2	2412	236738.390862771134	1
2	2414	236738.390862771134	0
2	2428	238241.633077860052	1
2	2430	238241.633077860052	0
2	2434	238339.092465564207	1
2	2442	239297.992434046224	0
2	2445	239630.173910746165	1
2	2451	240096.509107627744	0
2	2462	241590.547747240131	1
2	2464	241590.547747240131	0
2	2488	243556.402294225285	1
2	2490	243556.402294225285	0
2	2496	243856.828527008056	1
2	2501	244608.084690795614	0
2	2535	248563.680265389536	1
2	2541	248609.176049555221	0
2	2547	249559.360181509639	1
2	2552	249595.106397943601	0
2	2555	249853.578034044913	1
2	2559	250367.88896848671	2
2	2564	250521.40389966878	1
2	2567	251118.48165663771	2
2	2572	251405.695607635398	1
2	2575	251952.35838432547	2
2	2581	252377.172019179298	1
2	2586	253374.378146636564	0
2	2592	253428.830438970275	1
2	2601	254459.182984990516	0
2	2618	255711.376245961003	1
2	2621	255848.827439677875	2
2	2629	255958.44846990401	1
2	2637	256942.581555669313	0
2	2699	263301.586120245393	1
2	2701	263301.586120245393	0
2	2704	263719.509922643686	1
2	2710	264223.843525032696	0
2	2713	264404.469809361363	1
2	2718	265029.447439439106	0
2	2721	265542.123520767265	1
2	2727	265879.266056640549	0
2	2768	270974.109547008967	1
2	2770	270974.109547008967	0
2	2783	275712.494023423149	1
2	2788	275880.264834711045	0
2	2806	282545.759200059463	1
2	2808	282545.759200059463	0
2	2812	283494.196757583382	1
2	2817	283529.767457293336	0
2	2842	289413.392525188002	1
2	2844	289413.392525188002	0
2	2851	291099.396602557401	1
2	2853	291099.396602557401	0
2	2870	295003.294249918802	1
2	2872	295003.294249918802	0
2	2875	295103.434683112331	1
2	2883	295942.684536316473	0
2	2895	298112.131687683237	1
2	2897	298112.131687683237	0
2	2901	298440.928122805789	1
2	2904	299154.162718686604	2
2	2909	299160.677574003013	1
2	2918	300046.768442549298	0
2	2924	300882.343588592754	1
2	2929	301025.993865002262	0
2	2932	301330.866877382685	1
2	2936	301905.941328284719	2
2	2941	301985.151601849686	1
2	2944	302766.366084312847	2
2	2952	302953.166010864304	1
2	2961	303783.184652144481	0
2	2964	304699.619760774334	1
2	2969	304708.831128798223	0
2	2975	304948.808083754579	1
2	2981	305705.445672157206	0
2	2984	305975.439955089764	1
2	2987	305984.963891614532	2
2	2993	306273.162010254287	3
2	3001	306701.002095317025	2
2	3008	307412.042202916642	3
2	3013	307498.890882579206	2
2	3018	308447.2334897709	1
2	3027	309256.751322994791	0
2	3065	311444.695617328021	1
2	3070	311670.207156053645	0
2	3073	311826.561079774274	1
2	3077	312411.868915092555	2
2	3080	312460.150535314678	3
2	3085	312677.602524845044	2
2	3091	313363.727764330718	3
2	3099	313525.264760888514	2
2	3108	314415.293146292886	1
2	3111	315291.655378593029	2
2	3116	315309.001289179016	1
2	3125	316241.322989134695	0
2	3179	319420.083771368247	1
2	3184	319490.450900209098	0
2	3209	321235.781590183712	1
2	3214	321309.100147816401	0
2	3233	322912.706845606296	1
2	3238	323089.264319872672	0
2	3272	326274.191440828396	1
2	3274	326274.191440828396	0
2	3277	326789.742194694645	1
2	3282	327091.432251280924	0
2	3297	328799.715403173243	1
2	3299	328799.715403173243	0
2	3302	328874.140757571287	1
2	3308	329726.77658170017	0
2	3311	329753.817796348765	1
2	3319	330581.755871499577	0
2	3323	331337.600508571936	1
2	3328	331396.286400874238	0
2	3382	336944.93606007776	1
2	3384	336944.93606007776	0
2	3391	338194.661282349192	1
2	3393	338194.661282349192	0
2	3396	338902.966609499145	1
2	3401	339179.742347748946	0
2	3405	339849.544415516641	1
2	3410	339870.989642000627	0
2	3425	342320.73509430546	1
2	3427	342320.73509430546	0
2	3439	343568.6345526912	1
2	3447	343613.368993232222	0
2	3450	343780.959803367034	1
2	3453	343786.943267405049	2
2	3461	344517.273280989862	1
2	3465	344682.676618716881	2
2	3470	345335.134559777706	1
2	3475	346118.434590015805	0
2	3497	347622.358758118465	1
2	3502	347802.841394890189	0
2	3542	351324.514183166655	1
2	3544	351324.514183166655	0
2	3556	352581.712543450476	1
2	3561	352679.69659463835	0
2	3564	352923.237858072908	1
2	3570	353679.591982380347	0
2	3573	354368.929446450386	1
2	3578	354589.395875813594	0
2	3593	356012.186047991865	1
2	3595	356012.186047991865	0
2	3610	357911.843581023053	1
2	3612	357911.843581023053	0
2	3619	358389.024127885668	1
2	3624	358874.108825792077	0
2	3630	359477.084452356979	1
2	3635	359712.172662924684	0
2	3638	359847.70870927414	1
2	3647	360573.33435804815	0
2	3677	363145.108789175997	1
2	3679	363145.108789175997	0
2	3685	363385.396030396174	1
2	3691	364144.634851627572	0
2	3694	364383.952224636368	1
2	3705	365120.504077009871	0
2	3709	365365.091761858012	1
2	3712	365935.811923890414	2
2	3717	365995.86075717965	1
2	3722	366844.208540089764	0
2	3749	368542.971689007044	1
2	3758	368849.271799870474	0
2	3769	369783.119060563503	1
2	3774	370024.254450758898	0
2	3803	372170.220852866182	1
2	3805	372170.220852866182	0
2	3808	372713.99774301934	1
2	3813	373141.844832150698	0
2	3837	375898.816743632598	1
2	3839	375898.816743632598	0
2	3862	378155.04181025009	1
2	3864	378155.04181025009	0
2	3867	378619.11299461939	1
2	3873	378964.578158954175	0
2	3888	381952.738126639285	1
2	3890	381952.738126639285	0
2	3893	382206.062599247159	1
2	3902	382655.30726116034	0
2	3919	384283.299066131209	1
2	3924	384311.190930431882	0
2	3930	385293.812867234138	1
2	3932	385293.812867234138	0
2	3947	386606.798835185011	1
2	3949	386606.798835185011	0
2	3952	386711.221174369088	1
2	3955	386792.742292781261	2
2	3961	387324.974421501786	3
2	3967	387600.996910283117	2
2	3970	388101.921112641746	3
2	3975	388549.026932674017	2
2	3984	389446.544037913067	1
2	3992	390456.033253432552	0
2	4023	392600.358188464693	1
2	4028	392661.433041587591	0
2	4053	394408.215013781643	1
2	4058	394515.62592142563	0
2	4073	396889.639268324125	1
2	4075	396889.639268324125	0
2	4082	397838.225740503974	1
2	4087	398009.072639561355	0
2	4090	398285.602490977373	1
2	4098	398958.972618898248	0
2	4101	399262.378609701329	1
2	4107	399916.893750560176	0
2	4121	401201.707438030943	1
2	4126	401340.218116985061	0
2	4132	401474.409670206664	1
2	4135	401993.499836202283	2
2	4140	402184.339679429678	1
2	4143	402295.121245965789	2
2	4152	403148.873900013184	1
2	4160	404089.283287556404	0
2	4163	404242.929907690846	1
2	4169	404525.771785277777	2
2	4178	405097.103906477472	1
2	4181	405582.864659836609	2
2	4186	405922.292120704562	1
2	4195	406887.593362962274	0
2	4274	412027.975433180561	1
2	4276	412027.975433180561	0
2	4295	420612.163145209341	1
2	4297	420612.163145209341	0
2	4314	426462.608708268603	1
2	4316	426462.608708268603	0
2	4324	428974.372134924841	1
2	4326	428974.372134924841	0
2	4329	428980.5581037742	1
2	4332	429119.911540506445	2
2	4335	429395.110527073344	3
2	4340	429906.52601908584	2
2	4344	430388.981404455139	3
2	4352	430841.33425465785	2
2	4357	431694.177847869724	1
2	4361	432109.175341908753	2
2	4366	432657.451163524009	1
2	4369	432999.923404298564	2
2	4375	433708.938904458492	1
2	4383	434500.277477751283	0
2	4433	437416.688967519903	1
2	4435	437416.688967519903	0
2	4438	437424.328150589999	1
2	4443	438323.485864323168	0
2	4450	438939.432936168857	1
2	4458	439278.738215680784	0
2	4461	439775.627661631723	1
2	4464	440112.887497936156	2
2	4469	440215.919462725831	1
2	4472	440244.338746545441	2
2	4475	440370.898125920035	3
2	4481	441097.011220727032	2
2	4487	441689.854733662515	3
2	4490	441952.872031637474	4
2	4495	441961.700713893142	3
2	4501	442771.237168551555	2
2	4507	443210.427638721745	3
2	4512	443628.04628776287	2
2	4519	444311.354254283058	3
2	4524	444497.419287680301	2
2	4535	445338.525740898132	1
2	4541	446141.243581123833	0
2	4547	446379.192864367967	1
2	4555	447121.994225044395	0
2	4562	447797.685663965477	1
2	4567	447956.3572595705	0
2	4584	449160.411382330147	1
2	4589	449344.431077526681	0
2	4605	450671.941790110327	1
2	4614	450890.021312201151	0
2	4625	451834.496622362631	1
2	4633	452027.233566495516	0
2	4636	452194.494138408789	1
2	4642	452885.775664248712	0
2	4706	456823.921451652865	1
2	4711	456973.405203868064	0
2	4714	457039.081976735491	1
2	4717	457142.255078803239	2
2	4726	457922.071731336601	1
2	4729	457937.557474124373	2
2	4732	458509.52009014737	3
2	4735	458613.817236993736	4
2	4740	458864.162364717887	3
2	4743	459105.753179174276	4
2	4749	459785.544905093718	3
2	4752	460305.241903303004	4
2	4757	460884.162383243651	3
2	4763	461810.309811771067	2
2	4769	462064.058139565404	3
2	4777	462750.023675349816	2
2	4786	463648.149853428354	1
2	4791	464453.644189200493	0
2	4822	466392.65274688243	1
2	4827	466440.123636298073	0
2	4892	471093.080033845054	1
2	4894	471093.080033845054	0
2	4906	472123.397151697504	1
2	4911	472424.164935496207	0
2	4918	473317.694707835661	1
2	4920	473317.694707835661	0
2	4926	474642.291047654509	1
2	4928	474642.291047654509	0
2	4932	475550.831865456453	1
2	4937	475591.642704220812	0
2	4983	480185.067500442387	1
2	4988	480248.090687093287	0
2	4996	484233.098080767229	1
2	4998	484233.098080767229	0
2	5013	486251.739037560214	1
2	5015	486251.739037560214	0
2	5028	489163.572329642565	1
2	5033	489199.61874623607	0
2	5036	489935.57742115291	1
2	5041	490194.352017449094	0
2	5048	490550.927774488539	1
2	5053	491018.42221341798	0
2	5056	491579.309207216193	1
2	5061	491898.070675816707	0
2	5065	492551.015011374578	1
2	5068	492751.195318402434	2
2	5073	492888.12728961603	1
2	5079	493784.279688350787	0
2	5093	494909.741756104924	1
2	5098	495090.949190629306	0
2	5140	498763.915846925776	1
2	5142	498763.915846925776	0
2	5146	498958.318663716504	1
2	5155	499526.343693669398	2
2	5160	499526.560882913765	1
2	5163	499904.563942374368	2
2	5166	500361.914326195584	3
2	5171	500380.101714388737	2
2	5177	501339.304471379829	1
2	5180	501770.998961970815	2
2	5185	502208.584295641443	1
2	5189	502776.305299734932	2
2	5197	503139.96024162327	1
2	5203	504038.728246136642	0
2	5266	508441.96914834585	1
2	5268	508441.96914834585	0
2	5283	510520.955011000436	1
2	5285	510520.955011000436	0
2	5292	511761.548861806398	1
2	5294	511761.548861806398	0
2	5309	513282.056924519454	1
2	5311	513282.056924519454	0
2	5318	514449.738928302679	1
2	5320	514449.738928302679	0
2	5331	515334.255271041385	1
2	5336	515615.664944999029	0
2	5365	519242.40866151311	1
2	5370	519343.827387633196	0
2	5386	522480.68767633633	1
2	5388	522480.68767633633	0
2	5404	525428.012296836412	1
2	5406	525428.012296836412	0
2	5428	530457.62132571888	1
2	5433	530507.202705405372	0
2	5436	530724.729189369403	1
2	5439	531290.606728774628	2
2	5444	531318.569659060585	1
2	5450	532274.19075783817	0
2	5474	535981.777458407354	1
2	5476	535981.777458407354	0
2	5479	536347.940083701786	1
2	5483	536797.309597221156	2
2	5488	536834.945164004529	1
2	5494	537323.183454857105	2
2	5499	537815.069108443976	1
2	5503	538410.455127694476	2
2	5508	538685.126384382658	1
2	5513	539673.673903872485	0
2	5559	544213.030453142462	1
2	5561	544213.030453142462	0
2	5576	545572.58025782771	1
2	5578	545572.58025782771	0
2	5581	545714.099556150592	1
2	5586	546371.517725120792	0
2	5590	547218.998935474042	1
2	5595	547264.656976923976	0
2	5598	547315.499129965742	1
2	5603	548253.387418027126	0
2	5644	552825.151777914566	1
2	5646	552825.151777914566	0
2	5662	555552.469072957073	1
2	5664	555552.469072957073	0
2	5667	555713.992497981471	1
2	5672	556319.708168673618	0
2	5676	557194.869667578834	1
2	5681	557202.899928271765	0
2	5687	557385.236292737684	1
2	5692	558034.694862671061	0
2	5695	558490.942137845656	1
2	5701	558871.700079949583	0
2	5743	562422.863588820975	1
2	5748	562508.618862973566	0
2	5774	569207.490238567795	1
2	5776	569207.490238567795	0
2	5779	570319.645704371089	1
2	5784	570339.711228351287	0
2	5787	570640.943238483904	1
2	5791	571044.461695764257	2
2	5796	571303.738246128864	1
2	5799	571869.401903305854	2
2	5804	572190.072434920192	1
2	5810	573059.783790698829	0
2	5821	574208.664081341007	1
2	5826	574237.463767123421	0
2	5830	574412.040803224163	1
2	5838	575103.455521716479	0
2	5896	586744.589243388703	1
2	5898	586744.589243388703	0
2	5905	589423.341379302311	1
2	5907	589423.341379302311	0
2	5920	591456.053988438162	1
2	5925	591526.413181457297	0
2	5928	591947.78956110084	1
2	5931	592174.626627156586	2
2	5936	592301.530849800645	1
2	5939	592446.429443023448	2
2	5942	592801.660899479902	3
2	5948	593204.766157159119	2
2	5954	593888.525991090817	3
2	5959	594154.215143506375	2
2	5965	595171.903968360149	1
2	5973	596009.102797178545	0
2	6012	599271.701981846519	1
2	6017	599322.820919213934	0
2	6037	600696.958097958688	1
2	6042	600795.939262830511	0
2	6049	603202.966966125081	1
2	6051	603202.966966125081	0
2	6055	603459.110398283362	1
2	6063	604007.730116869389	0
2	6066	604399.370511301437	1
2	6071	604772.005327141612	0
2	6092	607189.637649629395	1
2	6094	607189.637649629395	0
2	6122	609507.6114254541	1
2	6125	609714.057237605396	2
2	6130	609726.090945626058	1
2	6136	610599.940267748862	0
2	6142	611261.396535644071	1
2	6147	611450.847162578721	0
2	6159	612932.540712287842	1
2	6161	612932.540712287842	0
2	6176	614988.979921054172	1
2	6178	614988.979921054172	0
2	6202	617734.75432595156	1
2	6204	617734.75432595156	0
2	6210	618192.018739534615	1
2	6213	618345.042325101421	2
2	6218	618564.74172606971	1
2	6224	619502.369779038117	0
2	6241	620646.174622496689	1
2	6246	620906.494290284837	0
2	6249	620969.246560023563	1
2	6257	621837.387596144598	0
2	6300	626075.646596467895	1
2	6305	626229.927295819836	0
2	6322	631536.109243275011	1
2	6324	631536.109243275011	0
2	6327	631823.205240530242	1
2	6332	632551.054014590712	0
2	6336	633077.294936247544	1
2	6341	633434.123022427142	0
2	6344	633500.512930895416	1
2	6350	634298.369264866623	0
2	6357	636250.385907531481	1
2	6359	636250.385907531481	0
2	6390	638281.546156280275	1
2	6392	638281.546156280275	0
2	6417	643030.347347011257	1
2	6419	643030.347347011257	0
2	6443	647385.666280736968	1
2	6445	647385.666280736968	0
2	6453	649949.784309080355	1
2	6455	649949.784309080355	0
2	6471	653456.406207521412	1
2	6473	653456.406207521412	0
2	6476	653790.163572030885	1
2	6479	653865.302198402801	2
2	6487	654342.326112679488	1
2	6493	655271.578492126147	0
2	6505	657522.520233024942	1
2	6507	657522.520233024942	0
2	6519	658567.118213359927	1
2	6524	658799.792796333308	0
2	6530	659698.299731625222	1
2	6535	659726.681157845153	0
2	6552	660932.045036734448	1
2	6557	661225.453174196065	0
2	6572	663077.943878590079	1
2	6574	663077.943878590079	0
2	6607	666887.949760024082	1
2	6609	666887.949760024082	0
2	6624	669185.698778536082	1
2	6626	669185.698778536082	0
2	6651	675272.31028295221	1
2	6653	675272.31028295221	0
2	6656	675302.811959224068	1
2	6660	675994.293493669135	2
2	6665	676089.90535054125	1
2	6668	676292.822170918445	2
2	6673	676994.790332330494	1
2	6679	677767.081930338354	0
2	6691	679587.430410120323	1
2	6696	679779.822942464511	0
2	6699	680392.99583900367	1
2	6704	680479.126137326305	0
2	6755	687876.89382802019	1
2	6757	687876.89382802019	0
2	6760	688413.291132642509	1
2	6765	688765.877014067774	0
2	6772	690602.943936968814	1
2	6774	690602.943936968814	0
2	6781	691836.374964167615	1
2	6783	691836.374964167615	0
2	6798	692935.292913198759	1
2	6800	692935.292913198759	0
2	6815	694946.243776934431	1
2	6817	694946.243776934431	0
2	6848	697278.407380397853	1
2	6850	697278.407380397853	0
2	6853	697343.781254169884	1
2	6859	698172.818539712634	0
2	6865	699039.874261325603	1
2	6867	699039.874261325603	0
2	6882	700275.110568492966	1
2	6884	700275.110568492966	0
2	6887	700771.673194054276	1
2	6896	701150.132459396149	0
2	6916	703005.410932717233	1
2	6918	703005.410932717233	0
2	6941	704970.320356206449	1
2	6943	704970.320356206449	0
2	6967	709332.362391721452	1
2	6969	709332.362391721452	0
2	6976	709722.043415837753	1
2	6981	710162.306788608552	0
2	6984	710725.674677765121	1
2	6987	710855.053713623531	2
2	6992	711055.746485248247	1
2	6998	711968.854542691869	0
2	7023	714678.110401496649	1
2	7028	714757.79747227574	0
2	7043	716006.679979383475	1
2	7045	716006.679979383475	0
2	7069	719518.633940090593	1
2	7071	719518.633940090593	0
2	7083	721518.34396715568	1
2	7089	721789.828943302765	0
2	7095	722986.445485715611	1
2	7097	722986.445485715611	0
2	7101	723460.82960018127	1
2	7106	724010.043799181764	0
2	7121	725732.178216813805	1
2	7123	725732.178216813805	0
2	7155	729277.395581640117	1
2	7157	729277.395581640117	0
2	7172	730763.047095726411	1
2	7174	730763.047095726411	0
2	7182	734182.595906382508	1
2	7184	734182.595906382508	0
2	7207	736119.852649814221	1
2	7209	736119.852649814221	0
2	7212	736663.99609898245	1
2	7217	736991.679627269679	0
2	7252	744256.69435961084	1
2	7254	744256.69435961084	0
2	7257	745052.733163523666	1
2	7262	745138.061398103231	0
2	7270	747833.531249112005	1
2	7272	747833.531249112005	0
2	7306	754751.651334019721	1
2	7308	754751.651334019721	0
2	7315	756321.287943299393	1
2	7317	756321.287943299393	0
2	7320	756836.420712164542	1
2	7325	757237.723791849711	0
2	7332	758481.47048854798	1
2	7334	758481.47048854798	0
2	7367	762970.281525906292	1
2	7369	762970.281525906292	0
2	7380	763996.42841481965	1
2	7385	764037.206438537919	0
2	7389	764810.703871949755	1
2	7394	764956.003219060804	0
2	7401	767092.903187083418	1
2	7403	767092.903187083418	0
2	7409	767650.176434855522	1
2	7415	767997.802091040322	0
2	7434	769499.791559995501	1
2	7436	769499.791559995501	0
2	7439	769567.675793965374	1
2	7446	770019.453517911919	2
2	7451	770379.189021949505	1
2	7456	771283.827226548989	0
2	7468	772312.173315038569	1
2	7471	772347.40711585401	2
2	7476	772350.931404060154	1
2	7488	773390.575222801103	0
2	7535	778105.986110829334	1
2	7537	778105.986110829334	0
2	7552	779383.403487260822	1
2	7554	779383.403487260822	0
2	7561	780438.944382870474	1
2	7563	780438.944382870474	0
2	7566	781023.650852747935	1
2	7571	781296.48041718049	0
2	7592	783946.606829388795	1
2	7597	784205.327153346556	0
2	7630	789033.814798139851	1
2	7632	789033.814798139851	0
2	7639	790587.93794282883	1
2	7641	790587.93794282883	0
2	7648	793186.763919098742	1
2	7650	793186.763919098742	0
2	7684	799669.719679418274	1
2	7686	799669.719679418274	0
2	7693	801880.817110389411	1
2	7695	801880.817110389411	0
2	7711	805044.074611287793	1
2	7713	805044.074611287793	0
2	7716	805202.329338983145	1
2	7725	806003.484338935938	0
2	7737	807692.920936682608	1
2	7739	807692.920936682608	0
2	7742	808140.543318645598	1
2	7745	808213.795061100639	2
2	7750	808516.428659381225	1
2	7753	809121.434078871821	2
2	7759	809408.283450704299	1
2	7767	810348.540567238699	0
2	7813	814329.699083459759	1
2	7815	814329.699083459759	0
2	7830	817493.488953522108	1
2	7832	817493.488953522108	0
2	7836	817707.845671566593	1
2	7841	818223.635032826221	0
2	7856	820762.662916495711	1
2	7858	820762.662916495711	0
2	7873	822101.420961269346	1
2	7875	822101.420961269346	0
2	7890	823363.968493570274	1
2	7892	823363.968493570274	0
2	7916	827590.342256363967	1
2	7918	827590.342256363967	0
2	7934	831121.017795163305	1
2	7936	831121.017795163305	0
2	7939	831272.387640506446	1
2	7948	832070.523787176731	0
2	7979	838603.410955745744	1
2	7981	838603.410955745744	0
2	7984	838674.996361655032	1
2	7989	839518.870685887201	0
2	7996	840760.676720326178	1
2	7998	840760.676720326178	0
2	8005	842099.125921169853	1
2	8007	842099.125921169853	0
2	8039	846525.052254998962	1
2	8041	846525.052254998962	0
2	8056	848375.960888387527	1
2	8058	848375.960888387527	0
2	8062	848973.421236507259	1
2	8067	849261.93919504884	0
2	8083	852319.925856703225	1
2	8085	852319.925856703225	0
2	8114	856772.210097098728	1
2	8119	856971.697823461911	0
2	8127	858972.551059050999	1
2	8129	858972.551059050999	0
2	8132	859815.364359706826	1
2	8135	859895.499005017123	2
2	8140	859901.237597619026	1
2	8143	860347.81626667014	2
2	8149	860805.928975738799	1
2	8152	861526.240087739647	2
2	8155	861528.477884166663	3
2	8163	861680.773001248013	2
2	8167	862417.107075034756	3
2	8172	862723.099170743838	2
2	8180	863553.61474647784	1
2	8186	863893.562578631122	2
2	8192	864559.086722463629	1
2	8195	865112.463585925317	2
2	8203	865393.04302001201	1
2	8209	866130.928470494636	0
2	8239	867715.109915994749	1
2	8244	867972.972544330063	0
2	8250	868505.452735902931	1
2	8255	868813.12139650719	0
2	8258	868932.30186740638	1
2	8270	869679.930036534944	0
2	8316	872630.977118550333	1
2	8321	872678.277202478405	0
2	8324	872686.906530712919	1
2	8332	873653.904563726794	0
2	8352	875777.822622940753	1
2	8354	875777.822622940753	0
2	8358	876498.810705094541	1
2	8363	876611.17763489118	0
2	8366	876774.441906101258	1
2	8374	877364.642569249086	0
2	8377	877593.605378850638	1
2	8383	878325.669738913876	0
2	8408	880252.913452975055	1
2	8416	880505.232785400791	0
2	8419	880863.110966229846	1
2	8425	881419.656975329119	0
2	8431	882073.639895336541	1
2	8439	882107.214640584275	0
2	8462	884650.151324186352	1
2	8464	884650.151324186352	0
2	8467	884859.686029486861	1
2	8478	885479.05091221501	0
2	8481	885856.98524042107	1
2	8487	886388.5039090781	0
2	8490	886608.129398535538	1
2	8498	887387.288956539629	0
2	8554	892969.285423441558	1
2	8556	892969.285423441558	0
2	8574	899150.723234288104	1
2	8576	899150.723234288104	0
2	8584	902596.164918297614	1
2	8586	902596.164918297614	0
2	8589	902726.818690555651	1
2	8595	903560.074669388053	0
2	8606	904563.70579543904	1
2	8611	904698.805715222441	0
2	8624	907632.591813363818	1
2	8629	907702.021394007595	0
2	8635	908262.075784497142	1
2	8641	908612.592951682643	0
2	8647	909397.468514945303	1
2	8652	909714.996317341611	0
2	8656	910632.27221753385	1
2	8661	910660.383333070063	0
2	8686	912952.859909603002	1
2	8688	912952.859909603002	0
2	8720	916514.818383101957	1
2	8722	916514.818383101957	0
2	8725	917075.341643855581	1
2	8731	917271.472911115497	0
2	8747	920565.390812642706	1
2	8749	920565.390812642706	0
2	8752	920735.007591018699	1
2	8760	921478.784866825883	0
2	8799	927707.267026476943	1
2	8801	927707.267026476943	0
2	8807	928773.003127643019	1
2	8809	928773.003127643019	0
2	8816	930050.47121570415	1
2	8818	930050.47121570415	0
2	8821	930459.26919215413	1
2	8826	930837.273597365806	0
2	8856	934484.709075240631	1
2	8861	934511.997859475602	0
2	8876	937651.181789159093	1
2	8878	937651.181789159093	0
2	8894	940962.70217167503	1
2	8896	940962.70217167503	0
2	8912	943427.528169191147	1
2	8914	943427.528169191147	0
2	8917	943863.055356893769	1
2	8922	944255.91270757083	0
2	8929	945491.78821237918	1
2	8931	945491.78821237918	0
2	8946	947477.432508668745	1
2	8948	947477.432508668745	0
2	8968	948872.958979582509	1
2	8973	949185.568832714079	0
2	8985	950310.177790039332	1
2	8990	950441.71875688982	0
2	8993	950810.221200804651	1
2	8996	951233.511137800606	2
2	9001	951318.894893349845	1
2	9005	951627.680886121379	2
2	9008	951750.784621849831	3
2	9011	951894.64608226643	4
2	9016	951987.733746481732	3
2	9024	952920.807751701161	2
2	9027	953026.063560966205	3
2	9031	953634.264530872328	4
2	9036	953799.480711284662	3
2	9039	953896.146932871156	4
2	9045	954504.273069237523	5
2	9048	954525.246876346658	6
2	9053	954710.238871894219	5
2	9065	955576.053858967049	4
2	9070	956379.287637298883	3
2	9079	957328.133933126265	2
2	9087	958140.074351339147	1
2	9096	959008.633685775285	0
2	9148	961959.196195809126	1
2	9156	962072.770735677732	0
2	9159	962299.240148159604	1
2	9164	963005.812049764533	0
3	838	101111.421322249374	0
3	856	103366.229149986083	823.18772032983
3	865	104730.666060038677	0
3	931	111746.403291345378	4523.8690166713
3	936	112015.418283373363	1556.6410757
3	941	112288.11795332768	864.38994657801
3	949	112942.471468001772	0
3	1052	120853.774772015701	7722.0445850444
3	1057	121181.9409746167	6273.4694577268
3	1088	123346.04994751638	8285.1873056268
3	1094	123661.54851093103	6033.703284892
3	1102	123973.47638555036	5408.8113387387
3	1107	124268.227184617685	4921.965566718
3	1144	127159.466506824152	7447.3388753846
3	1152	127433.030401854336	6189.1426131119
3	1157	127767.910789841032	6032.7709056174
3	1171	128874.407800644628	5871.7888695984
3	1176	129233.735290263022	5342.2783920285
3	1184	129534.998402086792	4735.3568797597
3	1192	129829.469170244162	3794.9662841834
3	1200	130145.300765637478	2822.8334923542
3	1309	139465.218132334306	10099.078126719
3	1314	139756.045934258789	10115.114101503
3	1322	140036.627539767436	10195.597607767
3	1330	140341.471144679027	7626.2150696676
3	1336	140645.964165094249	5454.0354525178
3	1367	142821.447689861797	6987.0666267253
3	1372	143158.720428660721	5998.8311871136
3	1377	143430.548746801358	5461.3062492897
3	1515	154414.678582360479	15112.074808545
3	1520	154710.95410280225	14877.390729975
3	1525	155040.104499307649	14893.414727812
3	1530	155332.198371145227	13556.393767428
3	1538	155628.790809775343	13468.157253417
3	1546	155952.830293070102	13318.332369458
3	1563	157021.750180824612	11663.622902124
3	1577	158393.260891980419	12132.725359194
3	1585	158616.987962638067	9942.6159531438
3	1590	158919.312007383186	9303.3877914562
3	1595	159211.873709302101	8614.3070435146
3	1601	159475.311687889979	8200.5391350579
3	1634	162333.189572641967	10465.854217172
3	1651	163632.031802085856	11166.271113726
3	1656	163911.710076093524	10547.780181181
3	1664	164274.692073175199	10011.176378381
3	1669	164565.895374620441	9142.699275385
3	1675	164867.064310231688	9109.1720387591
3	1680	165176.82002414683	8746.5150113431
3	1699	166279.947298088662	7867.0440156835
3	1705	166560.995525536381	5200.8886031126
3	1710	166837.932769325263	4396.7025504093
3	1715	167143.090423756963	3161.5578564432
3	1723	167455.463341973052	1939.2610605319
3	1728	167802.662125742483	1676.1404874419
3	1734	168115.757827144998	844.16531519496
3	1750	169539.642648603809	0
3	1769	173193.926505032285	575.4592433914
3	1795	176677.214908516896	0
3	1812	179169.787180563537	0
3	1829	180600.862758029563	490.67482613855
3	1955	191556.643164260859	9787.1132444362
3	1960	191893.702484063387	7962.3929109583
3	1969	192182.159688196743	6877.1734699332
3	1974	192533.12863245721	5351.4792809245
3	1979	192832.146807545316	5036.8448940866
3	1984	193170.732998507931	4329.6619453127
3	1992	193488.873763091076	4110.0430570715
3	1998	193751.425203465832	2880.6542934837
3	2003	194024.308348410797	2588.9862557782
3	2008	194297.661031651224	2398.8412049332
3	2053	198315.78819665341	4961.2157826848
3	2058	198612.130678778121	3771.5468391219
3	2064	198954.531382437008	3765.5954504038
3	2072	199438.416836866885	0
3	2080	200253.723831630828	0
3	2097	201381.694236988466	624.34387488123
3	2122	203568.742603913125	1806.6739512744
3	2131	204963.116025334166	0
3	2140	206354.293765427146	0
3	2148	206824.243033128245	0
3	2168	213106.86841394494	0
3	2204	220151.606773772258	0
3	2212	220460.446259465897	41.332334840047
3	2274	226048.853716515122	4031.9170111765
3	2283	226354.363077416203	1155.8794309344
3	2288	226651.670182680798	312.38343673612
3	2296	226992.76972216019	207.87752187882
3	2313	228057.563672543237	100.37918036889
3	2333	229803.62361831723	867.29730116128
3	2338	230092.538001110964	452.47669479217
3	2372	233350.302585976408	1573.274974563
3	2380	233720.288363878048	132.50808356955
3	2397	235111.550353152978	108.22142763954
3	2405	235643.651743128031	0
3	2422	237756.298862708685	482.98353207103
3	2456	240856.268784598414	1753.5449962367
3	2473	242570.957422578578	767.77711907084
3	2481	243206.170678838861	0
3	2510	245559.045020509241	1807.2834457281
3	2515	245864.673055960121	886.93914784405
3	2523	246243.541590653153	0
3	2532	248290.951707296997	0
3	2609	255287.186229637815	6379.3617738986
3	2615	255634.665078652226	2254.4041377843
3	2643	257629.995140615981	3619.8745743557
3	2648	257907.823386424111	3097.6088642149
3	2656	258169.144710861831	2306.2012454449
3	2661	258446.977118795473	2426.7527714722
3	2666	258779.227906802141	808.18032400558
3	2675	259121.979386578788	325.73803105412
3	2684	261027.62525161573	0
3	2692	261658.909355290239	0
3	2736	267994.137245607282	0
3	2744	268579.668119649216	0
3	2753	269534.204735960222	0
3	2761	270465.17052021352	0
3	2780	275531.056217593923	0
3	2799	280279.877724258406	0
3	2827	287766.905900179787	0
3	2836	288101.533356527383	117.62085727631
3	2863	293854.579193301009	0
3	2889	296835.862934527407	899.35019440594
3	3035	310178.880325579036	10475.390971321
3	3041	310466.125842177125	9711.4334762718
3	3046	310800.684162145012	8005.9924490461
3	3057	311094.606235857746	7731.3331634238
3	3062	311379.64265362479	6480.3103519779
3	3134	317185.764089544936	11106.736600927
3	3139	317477.457380972826	11099.848109348
3	3144	317810.512929783179	10667.729560705
3	3149	318089.338202703504	9288.0262916867
3	3157	318409.790045271433	9009.5219982981
3	3165	318703.932771283611	7666.0649588245
3	3171	318912.096675738216	7857.428823938
3	3176	319226.519833883331	6486.3843038272
3	3192	320425.110576659536	6981.2730225371
3	3198	320724.928479474751	6529.1038405619
3	3206	320988.875126676651	4919.7040435304
3	3219	322263.495004082318	5271.3506096016
3	3225	322558.219240615894	4369.2471121478
3	3230	322827.28257129837	4212.6623526624
3	3247	324159.033537870477	4317.9322140083
3	3252	324519.415689869066	3772.4310658105
3	3257	324776.027862475528	873.17991991367
3	3266	325846.943874557689	0
3	3291	328031.961051869443	436.36431300202
3	3336	332403.457668835031	2550.3362012439
3	3342	332680.365367999872	1020.9253009323
3	3350	333880.740193514888	0
3	3359	334467.367128799112	0
3	3367	335107.255050407376	0
3	3375	335426.983028907077	0
3	3419	341297.381543102818	0
3	3436	343272.994371076289	410.99894261192
3	3484	346972.456973400737	3371.3484016743
3	3489	347246.046855792724	2765.2805908677
3	3494	347466.156880089853	662.81632253315
3	3511	348774.048873077507	170.00457812952
3	3519	349060.531469700587	0
3	3528	349969.813562900275	0
3	3536	350811.563929528925	0
3	3553	352384.921423490446	0
3	3587	355479.152391022061	344.36494496105
3	3604	357411.903762311055	0
3	3652	361423.389991288025	3075.2549962596
3	3657	361686.203905414923	2574.9589394535
3	3663	361960.513709275826	1819.2206259234
3	3671	362312.192486156631	0
3	3728	367598.677192003669	4323.3685392198
3	3736	367920.075337664505	3473.2676524561
3	3741	368192.470191504798	3320.203850137
3	3746	368508.096114105088	893.68395832579
3	3766	369737.858021345687	958.1915266157
3	3783	370917.751898716498	1331.4232477985
3	3791	371189.682552373884	692.05024755376
3	3796	371517.409512891093	593.94924986347
3	3822	374110.886713885129	213.3245344583
3	3830	374704.083188540194	0
3	3848	377416.198968627823	0
3	3856	377740.622500402459	20.012361547117
3	3881	380410.013579291867	0
3	3910	383675.697620361989	1173.7876207823
3	3916	384023.626644448315	594.64206414402
3	3941	386142.105038168161	239.83489944209
3	4001	391337.551642431719	4139.0338872461
3	4006	391689.682002833744	2991.8460293906
3	4014	392018.556377844041	2260.4667826977
3	4019	392309.676597915259	1123.9357752393
3	4036	393541.192323997219	1814.3009138797
3	4041	393879.213163162067	452.87518396219
3	4049	394196.106815514563	132.30186534406
3	4066	395490.821300448201	101.53030685605
3	4112	400709.036585376519	3170.7438793346
3	4117	401061.047661061908	2128.1363027731
3	4203	407957.574124995449	6489.488248144
3	4209	408250.262906884794	5840.2296701673
3	4214	408538.736004920993	4831.1695978754
3	4219	408788.968332448544	4444.7715798524
3	4227	409085.436390453717	4027.1778879577
3	4232	409344.268907928635	2884.7310125635
3	4240	409605.897484725483	1880.647114635
3	4246	409930.173253402562	900.98633610039
3	4251	410235.687587251951	752.36901113374
3	4259	410503.189779535343	89.824058551146
3	4268	411673.51124512875	0
3	4287	416841.830686514204	0
3	4307	424923.735397054248	0
3	4391	435366.617912841382	4677.8624759244
3	4397	435616.407824322621	1543.7348562197
3	4405	435926.053382429396	1274.466637401
3	4410	436181.762251929731	408.88720544117
3	4418	436600.758292762328	0
3	4426	436960.550926875342	0
3	4572	448741.592061022118	10349.729758502
3	4580	449033.834684702804	9944.1152555497
3	4594	450329.24688690643	8784.3668407341
3	4602	450587.152123604644	7646.1102860557
3	4622	451758.264038580316	7799.919378263
3	4647	453828.733514155042	8784.2417777905
3	4652	454204.151507636356	9134.1897133085
3	4661	454464.018603308369	8245.175107116
3	4666	454830.943154127101	7710.0222844182
3	4671	455154.096017265116	7474.6339447959
3	4676	455425.523822317873	6654.8045775544
3	4684	455722.527750300202	5346.8669180177
3	4690	456033.008100859995	5162.8668895492
3	4695	456315.822945978526	4961.7041522085
3	4700	456656.596673954822	4652.4978672983
3	4800	465250.14200233284	10994.275263646
3	4805	465523.661027440505	10007.365222362
3	4813	465840.915311810656	9178.4833956817
3	4818	466135.932781008112	8432.9361330077
3	4838	467389.09366812948	5391.9987492854
3	4843	467688.512940053309	5227.2427595249
3	4848	467990.625157432073	4567.4279240406
3	4857	468267.653081422992	3571.1318033877
3	4862	468534.726769167192	2891.6447517759
3	4867	468821.930449175936	2219.2519314758
3	4872	469051.049748509421	2112.5665729558
3	4880	469338.369640525979	1321.842347475
3	4885	469589.969887116452	518.62684151703
3	4903	472057.073549837542	744.00824196956
3	4945	476539.709268274895	615.61672351181
3	4954	476800.197177585608	249.67532801344
3	4962	477533.510831978986	0
3	4971	479353.739747094645	0
3	4979	479921.531403778416	0
3	5006	485101.812250947425	566.068695901
3	5025	488927.575515157612	0
3	5087	494751.987025553048	4250.2682986737
3	5104	495953.90602532799	2166.4872003361
3	5112	496267.245767734141	1423.5215312746
3	5117	496542.16333173674	571.06360322833
3	5125	496820.70978372926	223.39425911147
3	5134	497328.24847439683	0
3	5211	504980.422242722455	5763.048131846
3	5219	505277.057185780423	5765.0556488096
3	5224	505624.131167042182	2524.249803605
3	5230	505876.116601375505	1608.7782737086
3	5235	506153.586264571953	876.8417710974
3	5243	506470.227853316813	196.95935172665
3	5251	507107.598598799456	0
3	5259	507411.572116540497	148.52529654911
[...]
7	3306	329726.77658170017	3
7	3313	329853.121467591169	2
7	3317	330581.755871499577	3
7	3326	331396.286400874238	4
7	3330	331659.440067067617	3
7	3334	332403.457668835031	4
7	3347	333880.740193514888	3
7	3356	334467.367128799112	2
7	3364	335107.255050407376	1
7	3372	335426.983028907077	0
7	3388	337721.82969730822	1
7	3399	339179.742347748946	2
7	3408	339870.989642000627	3
7	3413	341002.786641166214	4
7	3416	341297.381543102818	3
7	3430	342861.995428464369	2
7	3434	343272.994371076289	3
7	3441	343601.108571726434	2
7	3455	344480.766264925056	1
7	3459	344517.273280989862	2
7	3468	345335.134559777706	3
7	3473	346118.434590015805	4
7	3478	346803.340557556702	3
7	3482	346972.456973400737	4
7	3505	348604.044294947985	3
7	3509	348774.048873077507	4
7	3516	349060.531469700587	3
7	3525	349969.813562900275	2
7	3533	350811.563929528925	1
7	3548	352260.972165295151	2
7	3550	352384.921423490446	1
7	3568	353679.591982380347	2
7	3576	354589.395875813594	3
7	3581	355134.787446061007	2
7	3585	355479.152391022061	3
7	3599	356673.464127128923	4
7	3601	357411.903762311055	3
7	3615	358348.134995028399	2
7	3622	358874.108825792077	3
7	3626	359111.24496596141	2
7	3633	359712.172662924684	3
7	3641	360141.29308335243	2
7	3645	360573.33435804815	3
7	3650	361423.389991288025	4
7	3668	362312.192486156631	3
7	3681	363275.308652783897	2
7	3689	364144.634851627572	3
7	3696	364446.807685208435	2
7	3699	364872.266341367748	1
7	3703	365120.504077009871	2
7	3715	365995.86075717965	3
7	3720	366844.208540089764	4
7	3726	367598.677192003669	5
7	3730	367614.412155779299	4
7	3752	368779.666494729984	3
7	3760	369586.328650917963	2
7	3764	369737.858021345687	3
7	3777	370497.632304820122	2
7	3781	370917.751898716498	3
7	3785	370923.46026302762	2
7	3811	373141.844832150698	3
7	3816	373897.562179426826	2
7	3820	374110.886713885129	3
7	3827	374704.083188540194	2
7	3842	376835.644022693986	3
7	3845	377416.198968627823	2
7	3850	377720.610138855342	1
7	3871	378964.578158954175	2
7	3876	379910.518109324595	3
7	3878	380410.013579291867	2
7	3896	382501.909999579694	1
7	3900	382655.30726116034	2
7	3904	383428.984580304298	1
7	3908	383675.697620361989	2
7	3927	385164.966877647616	3
7	3935	385902.27013872607	2
7	3939	386142.105038168161	3
7	3957	387198.517755185628	2
7	3965	387600.996910283117	3
7	3973	388549.026932674017	4
7	3977	388697.835973443106	3
7	3982	389446.544037913067	4
7	3986	389758.089595146348	3
7	3990	390456.033253432552	4
7	3995	391185.740822675931	3
7	3999	391337.551642431719	4
7	4008	391726.891410117527	3
7	4030	393426.337979199881	2
7	4034	393541.192323997219	3
7	4043	394063.804950170501	2
7	4060	395389.290993592153	1
7	4064	395490.821300448201	2
7	4077	397538.292706041896	1
7	4085	398009.072639561355	2
7	4092	398932.911358288854	1
7	4096	398958.972618898248	2
7	4105	399916.893750560176	3
7	4110	400709.036585376519	4
7	4128	401468.085876851493	3
7	4138	402184.339679429678	4
7	4145	402410.033236717494	3
7	4150	403148.873900013184	4
7	4154	403707.56640704559	3
7	4158	404089.283287556404	4
7	4165	404344.196752596131	3
7	4172	405058.258502495995	2
7	4176	405097.103906477472	3
7	4184	405922.292120704562	4
7	4189	406459.537895365106	3
7	4193	406887.593362962274	4
7	4197	407725.250370090461	3
7	4201	407957.574124995449	4
7	4221	409029.186917302172	3
7	4234	409483.318576118212	2
7	4253	410413.365720984197	1
7	4265	411673.51124512875	0
7	4279	412805.668611390952	1
7	4284	416841.830686514204	0
7	4300	421375.295368318733	1
7	4304	424923.735397054248	0
7	4320	427280.919566202473	1
7	4338	429906.52601908584	2
7	4346	430688.755436916988	1
7	4350	430841.33425465785	2
7	4355	431694.177847869724	3
7	4364	432657.451163524009	4
7	4373	433708.938904458492	5
7	4377	434072.672968102917	4
7	4381	434500.277477751283	5
7	4385	434651.586745028363	4
7	4389	435366.617912841382	5
7	4399	435772.875046488564	4
7	4415	436600.758292762328	3
7	4423	436960.550926875342	2
7	4441	438323.485864323168	3
7	4445	438391.862302520137	2
7	4452	439089.719429153101	1
7	4456	439278.738215680784	2
7	4467	440215.919462725831	3
7	4479	441097.011220727032	4
7	4483	441544.880046172316	3
7	4493	441961.700713893142	4
7	4499	442771.237168551555	5
7	4503	442941.041837548961	4
7	4510	443628.04628776287	5
7	4514	443958.344660317332	4
7	4522	444497.419287680301	5
7	4526	445044.491736364576	4
7	4529	445069.961794327826	3
7	4533	445338.525740898132	4
7	4539	446141.243581123833	5
7	4543	446218.843496192364	4
7	4549	447120.920869708915	3
7	4553	447121.994225044395	4
7	4558	447679.462072469241	3
7	4565	447956.3572595705	4
7	4570	448741.592061022118	5
7	4574	448770.719244763521	4
7	4592	450329.24688690643	5
7	4596	450375.660832282459	4
7	4608	450870.141211310775	3
7	4616	451354.118793769984	2
7	4620	451758.264038580316	3
7	4627	452004.098806656558	2
7	4640	452885.775664248712	3
7	4645	453828.733514155042	4
7	4654	454255.86673868642	3
7	4678	455516.295805078453	2
7	4702	456662.431916128907	1
7	4719	457702.996648000376	0
7	4724	457922.071731336601	1
7	4738	458864.162364717887	2
7	4747	459785.544905093718	3
7	4755	460884.162383243651	4
7	4761	461810.309811771067	5
7	4765	461997.094918844096	4
7	4771	462461.270180528437	3
7	4775	462750.023675349816	4
7	4780	463423.197233391497	3
7	4784	463648.149853428354	4
7	4789	464453.644189200493	5
7	4794	464696.521278035324	4
7	4798	465250.14200233284	5
7	4807	465643.082017391322	4
7	4829	466602.678517700181	3
7	4832	466938.48317555358	2
7	4836	467389.09366812948	3
7	4851	468016.527293050957	2
7	4874	469071.34304559942	1
7	4896	471313.065307867987	0
7	4901	472057.073549837542	1
7	4915	473271.127981511916	2
7	4923	474100.065826703612	3
7	4935	475591.642704220812	4
7	4939	475924.092544763086	3
7	4943	476539.709268274895	4
7	4947	476550.521849572172	3
7	4959	477533.510831978986	2
7	4968	479353.739747094645	1
7	4976	479921.531403778416	0
7	4991	481093.120821631766	1
7	5000	484535.743555046426	0
7	5004	485101.812250947425	1
7	5019	487094.045411194011	2
7	5022	488927.575515157612	1
7	5039	490194.352017449094	2
7	5044	490501.718726879341	1
7	5051	491018.42221341798	2
7	5059	491898.070675816707	3
7	5071	492888.12728961603	4
7	5077	493784.279688350787	5
7	5081	493787.418824991919	4
7	5085	494751.987025553048	5
7	5089	494843.724236459544	4
7	5102	495953.90602532799	5
7	5106	495971.099728508407	4
7	5119	496597.315524617795	3
7	5131	497328.24847439683	2
7	5148	499217.374110876462	1
7	5151	499512.001536970816	0
7	5158	499526.560882913765	1
7	5169	500380.101714388737	2
7	5175	501339.304471379829	3
7	5183	502208.584295641443	4
7	5191	503099.881363437212	3
7	5195	503139.96024162327	4
7	5201	504038.728246136642	5
7	5205	504267.338327666929	4
7	5209	504980.422242722455	5
7	5213	505276.744493474552	4
7	5237	506273.268501590159	3
7	5248	507107.598598799456	2
7	5253	507263.046819991385	1
7	5270	508784.841029506308	0
7	5275	509289.674057268945	1
7	5289	511426.593605029155	2
7	5296	512329.665739664759	1
7	5301	512789.796636357983	2
7	5314	514065.769170138473	3
7	5322	515289.143054188295	2
7	5326	515320.963984801822	3
7	5340	516675.529533532623	4
7	5342	517003.813455363442	3
7	5351	518045.496020676503	2
7	5359	519025.331225721075	1
7	5374	520148.701945684207	2
7	5376	520269.182727955762	1
7	5392	523415.631756671906	2
7	5394	523783.896271605677	1
7	5410	526395.994330124181	2
7	5412	527090.560221434772	1
7	5422	530237.45146357595	0
7	5442	531318.569659060585	1
7	5448	532274.19075783817	2
7	5454	533189.21771826882	3
7	5456	534624.600536076455	2
7	5465	535720.150826346038	1
7	5486	536834.945164004529	2
7	5490	536952.422510230755	1
7	5497	537815.069108443976	2
7	5506	538685.126384382658	3
7	5511	539673.673903872485	4
7	5516	540063.822850672492	3
7	5520	540527.633432581658	4
7	5533	541732.137148855927	3
7	5538	541841.40285925973	2
7	5550	543690.932284027419	1
7	5563	544225.383906012817	0
7	5568	545213.480032441147	1
7	5584	546371.517725120792	2
7	5593	547264.656976923976	3
7	5601	548253.387418027126	4
7	5606	549036.413841879998	3
7	5610	549099.937731988409	4
7	5617	550129.358007455962	3
7	5626	550657.141213920971	2
7	5634	551104.836939497953	1
7	5648	552868.130217703761	0
7	5653	553706.953876520393	1
7	5670	556319.708168673618	2
7	5679	557202.899928271765	3
7	5683	557211.422904499478	2
7	5690	558034.694862671061	3
7	5699	558871.700079949583	4
7	5704	559895.181031113942	5
7	5711	560134.608770844717	4
7	5720	561168.445047812265	3
7	5728	561810.611019288876	2
7	5733	561891.871090587172	1
7	5751	563397.806625821969	2
7	5753	563538.657035240325	1
7	5763	567257.656389327046	0
7	5782	570339.711228351287	1
7	5794	571303.738246128864	2
7	5802	572190.072434920192	3
7	5808	573059.783790698829	4
7	5813	573865.885830660107	5
7	5815	573910.312672935669	4
7	5832	574504.842134853938	3
7	5836	575103.455521716479	4
7	5841	575858.242260166445	5
7	5849	576173.872829147958	4
7	5857	577392.275057869977	3
7	5866	578013.851120855133	2
7	5874	578536.180434265677	1
7	5883	579822.206822987466	0
7	5901	587547.439167301622	1
7	5911	590352.399247904256	2
7	5913	591237.805177590374	1
7	5934	592301.530849800645	2
7	5946	593204.766157159119	3
7	5950	593322.139474538791	2
7	5957	594154.215143506375	3
7	5963	595171.903968360149	4
7	5967	595914.237883601495	3
7	5971	596009.102797178545	4
7	5977	596806.77736581336	5
7	5986	597340.211190614573	4
7	5994	597513.065937014344	3
7	6006	598997.502724074593	2
7	6019	599479.894749344046	1
7	6024	600260.230449593448	2
7	6028	600269.118280651851	1
7	6046	601790.80823595173	2
7	6057	603980.118679931892	1
7	6061	604007.730116869389	2
7	6069	604772.005327141612	3
7	6075	605532.344058031455	4
7	6079	605657.596269381898	3
7	6096	608069.63652976604	2
7	6100	608075.50364763842	3
7	6104	608345.660665013193	2
7	6116	609458.285836070648	1
7	6134	610599.940267748862	2
7	6138	611158.209863727336	1
7	6145	611450.847162578721	2
7	6151	612529.243058608774	3
7	6163	613704.115787722244	2
7	6168	613807.062453066395	3
7	6181	615562.761810837261	2
7	6185	615984.487069636326	3
7	6189	616053.898477553495	2
7	6206	617951.962879894304	1
7	6216	618564.74172606971	2
7	6222	619502.369779038117	3
7	6226	619737.589143481848	2
7	6230	620335.355660826701	3
7	6251	621625.567316932403	2
7	6255	621837.387596144598	3
7	6261	622760.944613725565	4
7	6268	623119.077280094382	3
7	6276	623959.990416197074	2
7	6285	625384.78513879783	1
7	6294	625937.692594084662	0
7	6308	627202.405629284282	1
7	6312	630647.40709529134	0
7	6330	632551.054014590712	1
7	6339	633434.123022427142	2
7	6348	634298.369264866623	3
7	6353	635243.249054895193	4
7	6361	636306.730785131528	3
7	6364	636450.80838724838	2
7	6368	637084.386820855998	3
7	6381	637845.726544540825	2
7	6394	639039.417468062667	1
7	6398	639275.359087319478	2
7	6406	640282.703912357212	1
7	6421	643174.800146394208	0
7	6425	643863.299643267311	1
7	6434	647063.704753593066	0
7	6449	648119.200894888067	1
7	6458	650693.382901527122	2
7	6461	651635.943952428227	1
7	6481	654106.862104232633	0
7	6485	654342.326112679488	1
7	6491	655271.578492126147	2
7	6496	656342.348156101519	3
7	6509	657671.487584963683	2
7	6514	658536.581740621795	3
7	6526	658938.756283949654	2
7	6533	659726.681157845153	3
7	6539	660599.269063722718	4
7	6543	660695.847659915743	3
7	6561	661926.954857761214	4
7	6563	662352.923665864161	3
7	6576	663392.463758009486	2
7	6581	663885.426297959283	3
7	6588	664285.692703873467	2
7	6597	665380.661949520046	1
7	6611	667755.99669718342	0
7	6615	667880.797985963079	1
7	6629	670070.422864495615	2
7	6632	671428.073502761969	1
7	6642	673705.118766430135	0
7	6663	676089.90535054125	1
7	6671	676994.790332330494	2
7	6677	677767.081930338354	3
7	6682	678529.164890577288	4
7	6685	679449.373214912051	3
7	6702	680479.126137326305	4
7	6707	680861.462719112478	3
7	6711	681401.523144668425	4
7	6715	681669.942512733743	3
7	6727	682434.627946346974	2
7	6735	683224.110775205421	1
7	6744	684962.259711688584	0
7	6763	688765.877014067774	1
7	6769	689790.566637266646	2
7	6778	691585.475474307141	3
7	6785	692244.188141742842	2
7	6790	692590.474121690841	3
7	6802	693206.024616364054	2
7	6806	693799.195765577356	3
7	6819	694973.354447902167	2
7	6823	695938.453524159881	3
7	6831	696689.481211563892	2
7	6836	696909.727099246205	1
7	6857	698172.818539712634	2
7	6862	698956.179907909417	3
7	6870	699746.433286539279	2
7	6874	699951.948637228213	3
7	6889	701072.475773648412	2
7	6894	701150.132459396149	3
7	6899	701929.520073263477	4
7	6906	702445.640415420652	3
7	6920	703860.019554304216	2
7	6923	703880.057294413585	1
7	6927	703909.24974295994	2
7	6945	705438.040901731361	1
7	6949	705897.932678814744	2
7	6958	708033.61406159305	1
7	6972	709720.795509221321	0
7	6979	710162.306788608552	1
7	6990	711055.746485248247	2
7	6996	711968.854542691869	3
7	7001	712847.793494765589	4
7	7009	714247.859455877156	3
7	7014	714256.123520888511	2
7	7031	715244.739577667376	1
7	7035	715504.826676592701	2
7	7047	716272.299615305765	1
7	7052	717052.06666716647	2
7	7060	719090.859089938067	1
7	7075	720304.824980092446	2
7	7077	721452.806410302077	1
7	7092	722721.013185358687	2
7	7104	724010.043799181764	3
7	7108	724030.742645835729	2
7	7112	724857.808944068823	3
7	7125	726617.419768088776	2
7	7129	726629.274501009625	3
7	7137	727796.914610336595	2
7	7145	728517.297287244444	1
7	7160	730184.751842520635	2
7	7163	730289.310404793616	1
7	7177	731540.629995818905	2
7	7186	734553.199442252612	1
7	7190	734856.213001175915	2
7	7198	735611.1048562671	1
7	7215	736991.679627269679	2
7	7221	737920.319896023318	3
7	7224	738866.430187907113	2
7	7232	740455.252218089367	1
7	7241	741607.586291818861	0
7	7260	745138.061398103231	1
7	7266	746031.513392380857	2
7	7275	748722.400011897157	3
7	7277	748830.851061822165	2
7	7286	749335.759902119791	1
7	7296	752681.657575988995	0
7	7311	755595.244277465711	1
7	7323	757237.723791849711	2
7	7329	758149.166831403382	3
7	7336	758948.325322461634	2
7	7340	759292.189285678076	3
7	7348	760926.569027540056	2
7	7357	761369.634412633382	1
7	7371	763267.566655496216	0
7	7375	763775.356463624857	1
7	7392	764956.003219060804	2
7	7397	765871.656106415448	3
7	7405	767394.500867737773	2
7	7413	767997.802091040322	3
7	7417	768705.326681348012	2
7	7421	768763.515558227997	3
7	7442	769718.095160639523	2
7	7449	770379.189021949505	3
7	7454	771283.827226548989	4
7	7459	771585.160053060921	3
7	7463	772053.204923554663	4
7	7478	772880.146874356846	3
7	7482	773298.676184205842	2
7	7486	773390.575222801103	3
7	7491	774401.339691975973	4
7	7501	774933.48726873056	3
7	7517	775730.091430851	2
7	7525	776557.3199776748	1
7	7539	778128.504862328424	0
7	7544	778966.682556323673	1
7	7558	780230.486732818371	2
7	7569	781296.48041718049	3
7	7574	781750.008913547327	2
7	7578	782389.160406562478	3
7	7586	783904.205337791713	2
7	7599	784821.263220656178	1
7	7603	784932.980724670338	2
7	7611	785414.181010436594	1
7	7620	787738.458786573967	0
7	7635	789847.867026041095	1
7	7644	791476.526299291209	2
7	7653	793879.326682598752	1
7	7657	794160.118967603765	2
7	7664	795053.589593021249	1
7	7674	797900.955135474027	0
7	7689	800476.754168286563	1
7	7699	802778.142937424181	2
7	7702	804147.829524531137	1
7	7719	805900.705786425706	0
7	7723	806003.484338935938	1
7	7728	806956.877594468374	2
7	7748	808516.428659381225	3
7	7757	809408.283450704299	4
7	7761	809560.181128299135	3
7	7765	810348.540567238699	4
7	7770	810954.950040411342	3
7	7774	811187.707772504338	4
7	7786	812294.723274850272	3
7	7795	813243.080920267823	2
7	7800	813311.182003658902	1
7	7817	814428.8057448435	0
7	7821	815266.220840652632	1
7	7839	818223.635032826221	2
7	7843	818902.796799552391	1
7	7847	819127.163651401567	2
7	7861	821507.396469778546	1
7	7865	821633.941618296734	2
7	7877	822727.734397112	1
7	7882	822960.93945537735	2
7	7895	824280.808176879097	3
7	7898	825417.871259557305	2
7	7907	827149.775524575188	1
7	7921	828319.444326860671	0
7	7925	828360.389110936773	1
7	7942	831652.305512893257	0
7	7946	832070.523787176731	1
7	7951	832970.630123894934	2
7	7960	835796.067411963382	1
7	7969	836795.15061711608	0
7	7987	839518.870685887201	1
7	7993	840441.990529608404	2
7	8001	841694.20491052428	3
7	8009	842366.620300217852	2
7	8013	842956.712526806137	3
7	8021	843632.446014162259	2
7	8030	845665.507891844948	1
7	8044	846885.177157390386	0
7	8048	847482.254131543751	1
7	8065	849261.93919504884	2
7	8070	850105.637266648104	3
7	8073	851051.873238077139	2
7	8087	852684.023252569851	1
7	8091	853168.752569711731	2
7	8098	853666.654529517462	1
7	8108	856685.199794696843	0
7	8123	857806.802075295739	1
7	8138	859901.237597619026	2
7	8147	860805.928975738799	3
7	8157	861672.452750148478	2
7	8161	861680.773001248013	3
7	8170	862723.099170743838	4
7	8174	862799.465261762666	3
7	8178	863553.61474647784	4
7	8182	863825.412382536259	3
7	8190	864559.086722463629	4
7	8197	865232.804601264156	3
7	8201	865393.04302001201	4
7	8207	866130.928470494636	5
7	8211	866210.323168175011	4
7	8215	866886.889156461242	5
7	8219	866913.698852839126	4
7	8246	868383.101221909207	3
7	8253	868813.12139650719	4
7	8260	869023.082369456372	3
7	8264	869304.909779812556	2
7	8268	869679.930036534944	3
7	8272	870101.767569538046	2
7	8276	870658.201158630731	3
7	8306	872169.602556863005	2
7	8326	873141.650625279896	1
7	8330	873653.904563726794	2
7	8335	874513.99764218185	1
7	8339	874570.14339946612	2
7	8361	876611.17763489118	3
7	8368	877263.350233380467	2
7	8372	877364.642569249086	3
7	8381	878325.669738913876	4
7	8385	878545.045188304856	3
7	8389	879237.114391863163	4
7	8402	880204.522505562004	3
7	8410	880447.103913430438	2
7	8423	881419.656975329119	3
7	8427	881478.145339362365	2
7	8433	882098.661908625117	1
7	8437	882107.214640584275	2
7	8443	883043.308863125065	3
7	8469	885261.718162617032	2
7	8472	885292.177674379916	1
7	8476	885479.05091221501	2
7	8485	886388.5039090781	3
7	8492	887050.694938840114	2
7	8496	887387.288956539629	3
7	8502	888152.612423382787	4
7	8519	889255.291267739576	3
7	8528	890885.064422605507	2
7	8533	891104.145349310975	1
7	8541	891245.131554080645	0
7	8560	893920.801241921733	1
7	8564	897267.352813058411	0
7	8580	900100.671321571754	1
7	8593	903560.074669388053	2
7	8597	903680.582850509565	1
7	8601	904368.376829100426	2
7	8615	905579.204954670077	3
7	8618	907422.266530114891	2
7	8631	908177.773550105853	1
7	8639	908612.592951682643	2
7	8643	909374.900250282839	1
7	8650	909714.996317341611	2
7	8659	910660.383333070063	3
7	8664	911564.952273872514	4
7	8673	911862.383194015546	3
7	8690	913179.778963674314	2
7	8695	913881.506569176721	3
7	8702	914223.652182695021	2
7	8710	915229.046185321393	1
7	8729	917271.472911115497	2
7	8733	917925.788341276096	1
7	8737	918167.782902895676	2
7	8754	920915.985395882923	1
7	8758	921478.784866825883	2
7	8762	921950.188789760945	1
7	8767	922336.890696199525	2
7	8780	924636.004737379755	1
7	8789	926234.013380727895	0
7	8804	928516.77762039555	1
7	8813	929739.405762115098	2
7	8824	930837.273597365806	3
7	8830	931712.08554846519	4
7	8832	932123.359231055927	3
7	8841	932699.169798145306	2
7	8849	934196.997060256511	1
7	8863	934657.524342179255	0
7	8867	935433.279686079341	1
7	8882	938429.409164508523	2
7	8884	939227.071910063085	1
7	8899	941717.374003712366	0
7	8903	941761.115637381116	1
7	8920	944255.91270757083	2
7	8926	945181.882207911007	3
7	8933	946020.234938993662	2
7	8938	946437.39516780408	3
7	8950	947756.63867163527	2
7	8954	948409.021304333034	1
7	8958	948513.31789932352	2
7	8976	950125.542137819846	1
7	8980	950144.152024084909	2
7	8999	951318.894893349845	3
7	9014	951987.733746481732	4
7	9018	952276.247784628665	3
7	9022	952920.807751701161	4
7	9034	953799.480711284662	5
7	9041	953962.045500793999	4
7	9051	954710.238871894219	5
7	9056	955163.578845852243	4
7	9059	955449.178536684387	3
7	9063	955576.053858967049	4
7	9068	956379.287637298883	5
7	9073	956573.00618783387	4
7	9077	957328.133933126265	5
7	9081	957684.07872617166	4
7	9085	958140.074351339147	5
7	9090	958307.272282871297	4
7	9094	959008.633685775285	5
7	9098	959035.773328868745	4
7	9102	959930.08120802495	5
7	9112	960497.898672820679	4
7	9120	960739.907908782915	3
7	9138	961497.398758937442	2
7	9150	962060.861962178005	1
7	9162	963005.812049764533	2
7	9166	963281.624997507982	1
7	9171	963929.825646546189	2
