version 2
run WarmupMeasurement-9-20170109-15:29:40-1567
attr configname WarmupMeasurement
attr datetime 20170109-15:29:40
attr experiment WarmupMeasurement
attr inifile responseStudy.ini
attr iterationvars ""
attr iterationvars2 $repetition=9
attr measurement ""
attr network controltower.SimNetwork
attr processid 1567
attr repetition 9
attr replication #9
attr resultdir results
attr runnumber 9
attr seedset 9
param SimNetwork.a.parkingLot.parkingDelay "truncnormal(60min, 6min)"
param SimNetwork.a.runway.landingTime "truncnormal(15min, 1.5min)"
param SimNetwork.a.runway.takeoffTime "truncnormal(5min, 0.5min)"
param SimNetwork.a.runway.throughputCheckInterval 28.571min
param SimNetwork.wg.interArrivalTime exponential(28.571min)

vector 2  SimNetwork.a.landingQueue  queueLength:vector  ETV
attr source  queueLengthSignal
vector 1  SimNetwork.a.landingQueue  queueTime:vector  ETV
attr source  queueTimeSignal
vector 7  SimNetwork.a.parkingLot  parkingOccupancy:vector  ETV
attr source  parkingOccupancy
vector 5  SimNetwork.a.runway  landedThroughput:vector  ETV
attr source  landedThroughputSignal
vector 6  SimNetwork.a.runway  tookoffThroughput:vector  ETV
attr source  tookoffThroughputSignal
vector 4  SimNetwork.a.takeoffQueue  queueLength:vector  ETV
attr source  queueLengthSignal
vector 3  SimNetwork.a.takeoffQueue  queueTime:vector  ETV
attr source  queueTimeSignal
vector 0  SimNetwork.wg  responseTime:vector  ETV
attr source  responseTimeSignal
0	33	4731.188931665791	4731.1889316658
0	45	5644.804469970815	5626.9275755791
0	76	8694.842793220228	7899.9229334112
0	96	10373.965178754986	8405.2412573261
0	109	11458.009763204497	5893.8466486502
0	118	12324.660936433325	6447.7256222603
0	221	21741.697014014186	15061.92758532
0	229	22083.437249425536	13344.838370236
0	235	22404.014944127157	12284.886022449
0	240	22697.814627884557	9592.0516090405
0	245	22989.677134244744	9694.7864764927
0	250	23285.796639458084	8325.8808743811
0	255	23586.989753298332	9030.0067932858
0	266	23910.482149232705	8598.7453190258
0	272	24222.850675299627	7012.4956607412
0	280	24537.682861518691	6597.005062735
0	302	26603.272842406822	7684.2109272672
0	314	28876.996823643023	8977.5270832202
0	337	31044.035954999513	6592.3099742175
0	452	41579.516601000376	16381.606447149
0	457	41835.102736676315	13138.153676778
0	462	42185.588287696526	12682.59407614
0	467	42494.395165826552	10195.65502365
0	475	42807.237036300919	10095.147337345
0	484	43143.464053660217	10367.149156106
0	489	43479.410402257705	10249.904251021
0	494	43792.423142631225	9306.4379312429
0	499	44105.728898426678	8655.9849182671
0	507	44399.030559658122	8700.8178901623
0	513	44662.801972292136	8346.7012801572
0	521	45407.908599621653	7696.9521308923
0	556	51042.554376398358	13133.156177888
0	565	52078.152584709143	5909.7710652578
0	574	53468.592634886638	5830.0439369997
0	601	59123.785981282838	10709.454010069
0	627	62640.140735288285	8471.1461153662
0	639	64554.311634333118	7189.9964097202
0	661	66678.786490323901	6518.7814224629
0	679	69638.448883653384	9419.4223540167
0	687	70106.293301294988	5580.3109298785
0	697	72110.005223224473	7266.8010780764
0	732	78559.217327476597	11500.754188974
0	752	79861.272242748113	6198.9515194541
0	757	80200.766944671473	5222.5289921768
0	791	83854.496501462456	7891.2371608381
0	800	84972.826254955651	6219.5331996459
0	808	85677.594530739443	5382.4661290964
0	829	88032.13397067872	6669.1257684641
0	852	91376.317552586845	8768.1970463874
0	861	92706.458778201489	6176.5117135185
0	878	95529.33760656562	7771.5365393663
0	912	98487.413160352214	8769.8506306293
0	921	100560.832909457492	6367.8481964244
0	930	101598.837901576439	5923.8276390936
0	946	102824.277822589425	6421.2899009941
0	973	106367.969081629153	9580.2301141766
0	1002	110328.513567295015	6622.974845384
0	1007	110656.487714095003	9053.1099341252
0	1033	113462.321452336212	9436.2799513205
0	1041	113952.737060150931	5792.0298583246
0	1050	116275.719731825117	8062.7571877019
0	1062	116766.260048255518	5207.6628552694
0	1101	121342.592454667172	9244.2596256739
0	1113	122451.242090584285	5706.6912260081
0	1127	124130.441143411052	6678.0395763722
0	1135	124737.041906265968	5904.5878179854
0	1153	127723.453305568692	8010.5209742495
0	1187	130911.987252566331	8622.620150644
0	1204	132671.680957629016	7331.7978288861
0	1212	133338.258096497141	5425.1172935159
0	1224	135161.703705005444	6549.5488877342
0	1230	135490.009290847046	7258.6494749112
0	1273	140784.595679063535	9608.3219303728
0	1281	141189.885121537989	5655.6178558747
0	1289	141862.109667027899	5993.6005330117
0	1306	143316.887343221576	6955.4867895265
0	1332	147231.124220436047	9540.9804939465
0	1341	148306.104595220459	6328.4007405926
0	1359	151734.565783464502	7690.2262949273
0	1425	158451.423618399709	12438.87749852
0	1433	158714.199750315258	8347.2842530566
0	1453	159824.079145397969	7614.6252460497
0	1469	161073.007012662358	7296.1449722687
0	1495	163173.58893582993	9190.5748011094
0	1500	163472.646941696697	8131.7306759103
0	1508	163774.159615947263	7707.6460060144
0	1522	164883.107649598092	7850.2872675791
0	1527	165151.074375907509	6589.9428431741
0	1535	166073.897861656338	6483.426120269
0	1544	166632.040887618789	5658.4609445743
0	1556	168592.720533871295	6865.2959359572
0	1588	173353.571961199195	9641.2812731111
0	1628	177116.37583330744	8775.5869560921
0	1673	181064.728825004198	10561.382931029
0	1678	181410.418121238579	10598.969593658
0	1686	181683.165012093386	8217.543632822
0	1692	182011.619625027009	7084.216819192
0	1700	182310.138509837175	7213.9562352163
0	1717	183619.423785311189	6599.1523584439
0	1722	183917.838062228059	6686.0621400198
0	1730	184919.017179800333	6821.3325672244
0	1740	186879.734310035059	8556.1453418517
0	1794	192514.435772123214	10233.327342785
0	1799	192796.95519391988	5527.9695165982
0	1839	195839.993919225857	8489.5923959951
0	1844	196123.44899230493	6984.2141062988
0	1849	196501.863038273733	6194.5520273249
0	1858	197934.453126082674	7050.1292037799
0	1866	198426.904468349777	5602.159063768
0	1883	200359.252801192978	7180.1458565073
0	1902	204162.131475047757	9775.4419019
0	1911	207120.485232189321	8044.1056363744
0	1983	215088.595621748351	12609.213778497
0	1991	215393.755780772355	6691.6982392081
0	1999	215644.922596551674	6193.7298185007
0	2028	217902.133496840173	8400.0857097019
0	2033	218178.789235017097	7962.2382826651
0	2044	218498.14658938186	8219.0889955132
0	2066	220702.40083083412	10044.920701894
0	2071	221028.235858497754	9330.9003311374
0	2080	221357.382529584825	5962.1796095563
0	2089	223160.352734404335	7182.3620625548
0	2097	223769.912944910489	5459.3786245195
0	2125	230005.256519371198	11326.67467323
0	2133	230437.472321122101	6394.8502113462
0	2195	236294.223023704051	10288.552833462
0	2201	236591.032819830497	6142.7433934709
0	2217	237981.133951395496	6641.052334268
0	2229	238436.912972921133	6551.4516477928
0	2242	239610.352721051113	7489.8225132275
0	2257	240331.090762937489	6454.9157109028
0	2276	242390.619836375103	8276.0708640094
0	2382	251784.593889728505	14949.387983688
0	2388	252142.944837588696	13870.603487988
0	2393	252481.914913352833	12495.076663197
0	2401	252808.646970316943	12697.834803064
0	2409	253140.060295135709	10290.798265493
0	2417	253438.439299070589	9832.9876879197
0	2431	254652.262698911429	10649.08244117
0	2439	254976.647377234946	9994.4252796117
0	2444	255236.787852247516	9219.0336029646
0	2450	255549.974246487119	8417.3234057193
0	2455	255854.353335039926	8676.2742716589
0	2460	256169.941580321939	8030.2853831697
0	2477	257908.012538309168	7813.3252355958
0	2487	260967.062712884633	7530.6255438749
0	2549	266791.896758450816	10457.643241353
0	2554	267166.033565058703	6097.3711322268
0	2571	268555.297319556413	7253.5670051535
0	2579	268999.541690350212	6849.803027836
0	2588	269433.557398574437	5450.4157285188
0	2596	270348.407168232165	6350.7931763586
0	2696	279056.656444890785	14435.717715876
0	2701	279329.891209964264	12102.612667336
0	2707	279620.151879397456	8490.9023234987
0	2712	279926.963811575501	8319.8566466912
0	2720	280201.279782702805	8517.8420513768
0	2728	280529.397499633578	8483.7055497134
0	2947	298671.324170435928	26307.804613409
0	2952	298908.343671376504	24817.99568496
0	2960	299183.684701417474	24497.446298162
0	2965	299479.899877436651	24669.44508215
0	2973	299843.98999138054	23119.163251408
0	3002	301998.427800919727	21645.516845816
0	3007	302331.543082644892	21104.221154385
0	3012	302641.870693397957	21197.71358327
0	3017	302941.055652962266	20404.105464121
0	3022	303277.426839295581	20714.689182981
0	3028	303583.968582353066	20956.332460273
0	3033	303861.327247168109	20433.629521165
0	3044	304174.037503568652	19764.054851547
0	3055	305144.746534222851	19220.499182702
0	3060	305470.166526348776	19344.386439529
0	3065	305753.216516984783	19611.456667706
0	3073	306046.595815032256	16457.289665553
0	3078	306326.737096414815	16535.557271883
0	3083	306588.616135394964	14515.972379901
0	3089	306902.48556926489	13532.999678689
0	3094	307211.41868026353	13687.304922318
0	3099	307475.521628462304	12225.288137972
0	3104	307718.02337842105	11675.143445862
0	3109	308010.976713979793	11706.43890989
0	3117	308284.595794053657	8503.5663958068
0	3123	308595.208321929587	7940.2308172086
0	3159	315809.135345417138	11725.624924591
0	3176	317332.463796426207	6532.3243409264
0	3185	319324.552228258606	7713.2387348434
0	3194	320754.968276747717	6378.316947573
0	3302	330534.227077429855	14455.841552305
0	3307	330823.813018025698	9875.1610033262
0	3316	331165.415926244455	9856.012217103
0	3321	331410.469970855449	8492.225318482
0	3326	331696.460022502464	8758.3935248416
0	3337	331998.446738444467	7869.7192045995
0	3354	333135.92940549885	8035.662446055
0	3370	334277.359864718623	8848.0383460461
0	3393	336370.011429426681	9003.7424534532
0	3398	336637.198458104343	9126.6449855473
0	3403	336936.794546745118	9269.4587092661
0	3420	338156.386077026932	6189.6080665917
0	3431	338667.206493584341	5748.6804705602
0	3445	339853.39828519654	5603.117553466
0	3465	341670.693869443145	7182.0569575422
0	3533	347035.038867966311	10008.429635785
0	3550	348164.703223278531	9555.1183531423
0	3578	350286.79117251442	10412.147491114
0	3586	350612.230735022269	9130.0919250235
0	3631	354292.836460470243	11725.09291706
0	3636	354629.760124510102	11106.833900918
0	3645	354936.025506227995	10638.624921086
0	3704	359485.87889619606	15126.06153128
0	3712	359747.237695700519	14676.755431599
0	3729	360763.020036128876	13821.452538913
0	3743	361928.546942214097	13891.482031748
0	3748	362214.520670082207	13276.62744059
0	3759	362482.695303554639	11923.083816207
0	3764	362742.928476008875	11557.782795686
0	3769	363032.074059712694	11370.797113307
0	3774	363328.514610540169	11440.444609438
0	3780	363632.036294071891	8933.4368937257
0	3785	363925.859303870579	8738.80196081
0	3793	364213.95264989636	8314.3719719662
0	3798	364474.70333659607	8543.3114631843
0	3803	364773.094780094248	7334.4595641756
0	3820	366340.16695044527	6608.7159575545
0	3866	371696.979709132869	11003.529446763
0	3875	372054.932877230361	6803.5766062661
0	3900	374269.786587944546	7712.3922881767
0	3905	374579.480051224915	5705.6472067289
0	3925	376103.321924028444	6466.3262818837
0	3930	376412.598125706221	5852.1944885758
0	3939	377849.629216596048	5919.525015825
0	3959	380026.801237295761	7669.2159064942
0	3982	383551.738139500859	8665.554798924
0	3991	384882.311977301268	5980.3576077135
0	4033	388982.814332133922	9267.2162231244
0	4042	389932.184995795275	8320.1060780982
0	4050	390396.271001374353	5256.8734182023
0	4059	391404.751854676685	5419.4664452481
0	4085	394346.444655025257	7556.6046419352
0	4118	397412.273042396401	10064.888722987
0	4127	397863.834158592584	5799.2896829546
0	4138	398589.148627220144	5790.3964104781
0	4155	399699.8489956219	5283.6626147404
0	4177	401842.255180180325	6816.3472711448
0	4186	403452.835982941456	7983.8050300873
0	4206	405154.159531986948	6806.8522242834
0	4211	405441.480000870113	5850.7791544173
0	4237	409042.487999658572	9132.4765208674
0	4254	411185.776515051064	7249.5478861635
0	4263	412893.242686135508	6164.4687407831
0	4275	414719.770347684283	7369.9167610211
0	4299	419259.653196919925	9438.0334158092
0	4320	422872.8783172268	8251.8906715757
0	4334	425132.523505824609	7147.3948737436
1	4	17.876894391763	0
1	12	811.624843626201	16.704983817126
1	21	1968.72392142888	0
1	47	5644.804469970815	80.641355416515
1	55	6601.463989382108	724.52867520905
1	67	7526.253574237701	846.48414554374
1	81	8738.598879189893	0
1	98	10373.965178754986	254.83625707687
1	123	13105.763018844106	0
1	135	14053.964924574817	759.07426682281
1	143	14892.243669122853	335.26070911033
1	158	16029.780720852547	1069.8649557756
1	163	16980.075970605144	1668.3391403982
1	172	17747.287115340385	536.93210078201
1	183	18606.442150150412	665.76435136677
1	198	19571.775214928923	652.71329978928
1	206	20567.550981137431	668.08124071461
1	282	24537.682861518691	85.956880736717
1	293	25310.411101349107	112.50094749767
1	316	28876.996823643023	180.0477637443
1	325	29837.534338014495	334.54012645791
1	342	32298.740142176103	0
1	354	33222.368736238271	510.27903728216
1	365	34028.466517078385	1252.1516195239
1	377	35033.431347286378	1803.9251960495
1	388	35823.015651053241	1337.0304396649
1	397	36727.752473685322	1278.0084935257
1	405	37601.798744061545	1903.5860745657
1	420	38515.31136840738	2199.2106762725
1	428	39400.714593002849	1689.7581242735
1	437	40362.561534210682	2453.1633357
1	526	46168.38151945134	0
1	535	47638.548697886955	0
1	544	48631.091353628688	216.75938241451
1	579	54168.994619922064	0
1	589	57364.315224612948	0
1	607	60160.005067860961	0
1	615	61095.268802826774	876.24227319005
1	641	64554.311634333118	28.329262916634
1	650	65443.704111019266	600.49996587115
1	667	67058.463138503071	0
1	702	73662.320723294017	0
1	711	74978.237952494694	0
1	720	75963.259340624325	0
1	737	78753.293055309732	0
1	762	80295.128401642995	0
1	771	81363.008202214577	0
1	780	82608.120506199446	0
1	814	86529.94706468301	0
1	831	88032.13397067872	274.33290347945
1	840	89717.562529722905	0
1	866	94192.984713033082	0
1	883	95675.010262482809	0
1	892	96495.573668749792	92.585747154462
1	900	97368.877641912633	581.13867446004
1	935	101603.377779969762	0
1	952	103705.538721911014	0
1	961	104643.629549082779	617.58804806702
1	979	108160.707201826346	0
1	987	108991.889417550608	778.92687342742
1	1013	111558.597192986163	0
1	1021	112293.933045699083	195.60021670583
1	1064	116766.260048255518	21.709183679307
1	1072	117705.037393937163	252.63582689834
1	1081	118832.45408828061	0
1	1089	119787.089561244625	74.157229925389
1	1115	122451.242090584285	161.87498866194
1	1141	125339.883128742914	0
1	1158	127913.140802981205	0
1	1170	128802.9041629252	571.54434698934
1	1175	129700.20811979404	1088.0533025228
1	1192	131176.273748690714	0
1	1235	135534.267265663335	0
1	1246	136455.707048040444	587.1979140242
1	1252	137307.091628974484	945.69107527938
1	1260	138202.799316333402	512.65558984383
1	1294	141977.703854627868	0
1	1312	144044.339488537189	0
1	1321	146012.546119879902	0
1	1347	150366.91549725866	0
1	1364	152209.453899348227	0
1	1373	153776.862040393697	0
1	1385	154685.899855117223	702.88572039665
1	1393	155481.318005355804	140.40173956944
1	1402	156262.630645350671	196.11703541784
1	1413	157302.118972040769	269.29859002177
1	1435	158714.199750315258	153.06821758186
1	1455	159824.079145397969	233.60740401065
1	1471	161073.007012662358	99.427069617853
1	1483	161979.506714168983	252.08211625491
1	1510	163774.159615947263	61.868927859167
1	1558	168592.720533871295	251.93165665593
1	1567	170503.345893975052	0
1	1576	171604.725799410091	793.27727182977
1	1593	173465.621379271401	0
1	1602	174927.402805835025	0
1	1616	175848.100200302729	751.91792568182
1	1630	177116.37583330744	96.104406440157
1	1641	178054.570578914325	822.79465670603
1	1653	178940.090751162064	842.40613858615
1	1661	179831.067382429051	1507.4784142457
1	1702	182310.138509837175	29.030080498536
1	1745	187268.985677321633	0
1	1753	188257.308305597919	906.9067823672
1	1762	189169.296522426859	30.061636420755
1	1771	190307.311010948874	0
1	1779	191319.886932311994	435.56301000927
1	1804	192824.745404581822	0
1	1815	193667.917800578762	488.81085589308
1	1824	194617.896054231632	231.20648108392
1	1872	199076.379595814897	0
1	1890	202479.38184325164	0
1	1917	208702.057541564242	0
1	1926	209451.19277805096	0
1	1934	210211.793960950694	709.74617381243
1	1949	211083.279679531202	866.72872717917
1	1957	212070.486036810037	1791.4284429413
1	1963	212825.800689637494	2168.3205606977
1	1971	213795.778273898989	2098.4427465386
1	2001	215644.922596551674	249.71967652313
1	2016	216538.160088961503	560.16941711198
1	2046	218498.14658938186	187.61226899088
1	2055	219507.140613168797	828.55876702771
1	2102	224042.62210977593	0
1	2111	226005.670190241888	0
1	2138	230448.289426359639	0
1	2146	231340.081617127545	0
1	2158	232420.057744647865	534.5964195195
1	2164	233387.018176817906	1266.4879689943
1	2175	234290.282057956872	414.10700592221
1	2184	235238.978038106963	1124.4290657412
1	2206	236835.205906040825	0
1	2231	238436.912972921133	164.57162332007
1	2259	240331.090762937489	344.25251278186
1	2264	241160.798492470952	1049.9863252183
1	2281	242849.262029642297	0
1	2293	243633.493970375772	28.04235922485
1	2301	244662.998433023977	659.81817528242
1	2313	245740.256760186772	758.03466256354
1	2324	246691.945895775716	674.19164649282
1	2339	247661.781606551786	529.13076578396
1	2351	248648.200992368564	1470.1219289876
1	2356	249546.99513099254	1407.3389338403
1	2371	250504.656780167456	409.96947745405
1	2419	253438.439299070589	2.002130060905
1	2465	256334.253517097428	0
1	2492	261068.662432831876	0
1	2500	261968.385162672461	666.6548482696
1	2509	262907.170540640835	757.43187812663
1	2521	264014.34608264213	31.204412586445
1	2529	264849.705869724851	852.09187785126
1	2534	265643.340801125983	1022.402072111
1	2559	267227.278542628578	0
1	2602	271129.249555898782	0
1	2616	272031.72555666026	424.61839177594
1	2628	272812.400530472507	1128.9627991465
1	2633	273520.454302025766	1474.7623521056
1	2641	274225.478758006824	1861.9592009795
1	2653	275164.063975757083	1073.7159893404
1	2661	275989.345583614116	1303.1071803585
1	2673	276926.547080141964	2116.0922848558
1	2685	277888.496793364227	1163.6700533913
1	2730	280529.397499633578	176.48654453023
1	2748	281690.870311275863	463.54838301624
1	2762	282582.323958835444	1138.1668487075
1	2774	283441.137741405866	904.18755256498
1	2782	284488.46066168207	1925.7230053676
1	2791	285549.578098958373	2921.9419768782
1	2809	286458.265641223721	3030.5679152205
1	2817	287379.349770567381	2969.3671185458
1	2823	288247.637471222788	2323.3901197017
1	2834	289331.240124929534	3205.4600381102
1	2849	290230.919591340988	4089.1597420619
1	2857	291081.568429781398	1492.2622803024
1	2863	291926.388201638903	2135.2083771075
1	2877	292767.883639015727	695.23988352203
1	2892	293747.784002652375	378.29811207666
1	2897	294757.045898750632	1232.932140805
1	2912	295584.512593982613	334.27910349246
1	2926	296483.194938470454	440.31500591098
1	2935	297417.788595695124	1113.2507916049
1	2975	299843.98999138054	62.96059313365
1	2987	300669.302310475467	14.324805754461
1	3046	304174.037503568652	90.527082742287
1	3129	310800.139455499771	0
1	3137	311768.553432291911	157.23993887672
1	3147	314376.651329174741	0
1	3164	316078.385525124709	0
1	3199	320948.652014699471	0
1	3207	321804.420342559736	495.01663341826
1	3216	322918.24465237341	0
1	3224	323878.359528540035	940.29303087916
1	3233	324713.154303957658	584.42677011266
1	3247	325503.112273277159	402.84531383329
1	3256	326676.266122104731	1246.9446034322
1	3271	327513.47319402483	147.20421805136
1	3282	328430.647410108081	920.09393755105
1	3291	329279.922934770367	1612.5870972914
1	3339	331998.446738444467	31.668728009254
1	3356	333135.92940549885	217.40338247474
1	3372	334277.359864718623	27.07913298813
1	3381	335154.348496804675	665.71158490377
1	3408	337026.609232181291	0
1	3433	338667.206493584341	57.621623448102
1	3450	339874.64368140053	0
1	3467	341670.693869443145	188.55505944435
1	3475	342567.743543410222	0
1	3487	343543.200420711258	20.274197119176
1	3498	344443.48405677787	146.08347163595
1	3510	345228.115581415588	868.29821649987
1	3518	345942.300447443236	871.81818334124
1	3535	347035.038867966311	93.471370750533
1	3552	348164.703223278531	127.6383128126
1	3563	349106.851968607085	168.95873911466
1	3588	350612.230735022269	52.619247674755
1	3600	351491.996960731461	306.85128040865
1	3614	352447.640743800521	786.3637973944
1	3620	353160.322865910812	1272.2528648086
1	3647	354936.025506227995	237.42610588184
1	3658	355593.084554515256	406.02721145466
1	3675	356432.734379957505	533.15370202734
1	3684	357225.125383884424	1293.7335104727
1	3692	358080.058761595487	641.42354567682
1	3714	359747.237695700519	15.786702809734
1	3731	360763.020036128876	69.569773758562
1	3809	365251.356270964298	0
1	3825	366557.394299767818	0
1	3835	368873.832844495969	0
1	3843	369742.019069801681	105.0234276569
1	3855	370587.270298010886	26.866660880495
1	3877	372054.932877230361	124.82867645931
1	3885	372887.00794132025	529.42261051869
1	3910	374886.183340576864	0
1	3945	378901.954369587815	0
1	3961	380026.801237295761	311.20312828625
1	3970	381612.078917697057	0
1	3996	385139.397583172027	0
1	4008	385989.261765909296	3.976356480727
1	4016	386813.930364107249	24.090351017241
1	4025	387766.601804027394	419.2174846175
1	4064	392064.544475637976	0
1	4076	393015.317880075864	216.56566333384
1	4090	394416.186380881475	0
1	4098	395170.38612164468	144.47821260915
1	4107	396199.205828548887	730.17487569476
1	4140	398589.148627220144	241.84131951664
1	4157	399699.8489956219	109.14814916907
1	4165	400729.329126759796	819.31764796858
1	4191	403936.228628887585	0
1	4217	406728.773945352445	0
1	4225	407651.675031313268	301.82144465009
1	4243	409821.619781110677	0
1	4277	414719.770347684283	98.782702033224
1	4287	417985.12863208102	0
1	4305	420686.06475775173	0
1	4322	422872.8783172268	114.63964383952
1	4340	426152.924458482725	0
1	4349	427132.831689939638	862.86091489438
1	4360	428040.991495397957	111.71582486217
1	4369	429107.650834119289	453.63575505622
1	4377	429962.934055271801	696.8247622453
1	4389	430906.139745498521	26.104651610867
1	4400	431670.473283461025	584.20387906321
2	2	17.876894391763	1
2	4	17.876894391763	0
2	7	794.919859809075	1
2	12	811.624843626201	0
2	19	1968.72392142888	1
2	21	1968.72392142888	0
2	42	5564.1631145543	1
2	47	5644.804469970815	0
2	50	5876.935314173061	1
2	55	6601.463989382108	0
2	58	6679.769428693962	1
2	67	7526.253574237701	0
2	79	8738.598879189893	1
2	81	8738.598879189893	0
2	92	10119.128921678114	1
2	98	10373.965178754986	0
2	121	13105.763018844106	1
2	123	13105.763018844106	0
2	129	13294.890657752006	1
2	135	14053.964924574817	0
2	138	14556.98296001252	1
2	143	14892.243669122853	0
2	146	14959.915765076945	1
2	149	15311.73683020693	2
2	158	16029.780720852547	1
2	163	16980.075970605144	0
2	167	17210.355014558379	1
2	172	17747.287115340385	0
2	178	17940.677798783643	1
2	183	18606.442150150412	0
2	187	18919.061915139646	1
2	198	19571.775214928923	0
2	201	19899.469740422816	1
2	206	20567.550981137431	0
2	277	24451.725980781974	1
2	282	24537.682861518691	0
2	288	25197.910153851432	1
2	293	25310.411101349107	0
2	311	28696.949059898727	1
2	316	28876.996823643023	0
2	320	29502.99421155658	1
2	325	29837.534338014495	0
2	340	32298.740142176103	1
2	342	32298.740142176103	0
2	346	32712.08969895611	1
2	349	32776.314897554497	2
2	354	33222.368736238271	1
2	357	33229.50615123686	2
2	365	34028.466517078385	1
2	372	34485.985211388338	2
2	377	35033.431347286378	1
2	380	35449.743980159625	2
2	383	35698.212669495861	3
2	388	35823.015651053241	2
2	392	36316.100692134886	3
2	397	36727.752473685322	2
2	405	37601.798744061545	1
2	408	37710.95646872934	2
2	415	37909.398198510662	3
2	420	38515.31136840738	2
2	428	39400.714593002849	1
2	437	40362.561534210682	0
2	524	46168.38151945134	1
2	526	46168.38151945134	0
2	533	47638.548697886955	1
2	535	47638.548697886955	0
2	539	48414.331971214176	1
2	544	48631.091353628688	0
2	577	54168.994619922064	1
2	579	54168.994619922064	0
2	587	57364.315224612948	1
2	589	57364.315224612948	0
2	605	60160.005067860961	1
2	607	60160.005067860961	0
2	610	60219.026529636725	1
2	615	61095.268802826774	0
2	636	64525.982371416484	1
2	641	64554.311634333118	0
2	644	64843.204145148118	1
2	650	65443.704111019266	0
2	665	67058.463138503071	1
2	667	67058.463138503071	0
2	700	73662.320723294017	1
2	702	73662.320723294017	0
2	709	74978.237952494694	1
2	711	74978.237952494694	0
2	718	75963.259340624325	1
2	720	75963.259340624325	0
2	735	78753.293055309732	1
2	737	78753.293055309732	0
2	760	80295.128401642995	1
2	762	80295.128401642995	0
2	769	81363.008202214577	1
2	771	81363.008202214577	0
2	778	82608.120506199446	1
2	780	82608.120506199446	0
2	812	86529.94706468301	1
2	814	86529.94706468301	0
2	826	87757.80106719927	1
2	831	88032.13397067872	0
2	838	89717.562529722905	1
2	840	89717.562529722905	0
2	864	94192.984713033082	1
2	866	94192.984713033082	0
2	881	95675.010262482809	1
2	883	95675.010262482809	0
2	887	96402.98792159533	1
2	892	96495.573668749792	0
2	895	96787.738967452592	1
2	900	97368.877641912633	0
2	933	101603.377779969762	1
2	935	101603.377779969762	0
2	950	103705.538721911014	1
2	952	103705.538721911014	0
2	955	104026.041501015757	1
2	961	104643.629549082779	0
2	977	108160.707201826346	1
2	979	108160.707201826346	0
2	982	108212.962544123187	1
2	987	108991.889417550608	0
2	1011	111558.597192986163	1
2	1013	111558.597192986163	0
2	1016	112098.332828993253	1
2	1021	112293.933045699083	0
2	1059	116744.550864576211	1
2	1064	116766.260048255518	0
2	1067	117452.401567038818	1
2	1072	117705.037393937163	0
2	1079	118832.45408828061	1
2	1081	118832.45408828061	0
2	1084	119712.932331319236	1
2	1089	119787.089561244625	0
2	1110	122289.367101922346	1
2	1115	122451.242090584285	0
2	1139	125339.883128742914	1
2	1141	125339.883128742914	0
2	1156	127913.140802981205	1
2	1158	127913.140802981205	0
2	1161	128231.359815935862	1
2	1165	128612.154817271268	2
2	1170	128802.9041629252	1
2	1175	129700.20811979404	0
2	1190	131176.273748690714	1
2	1192	131176.273748690714	0
2	1233	135534.267265663335	1
2	1235	135534.267265663335	0
2	1238	135868.509134016243	1
2	1241	136361.400553695109	2
2	1246	136455.707048040444	1
2	1252	137307.091628974484	0
2	1255	137690.143726489569	1
2	1260	138202.799316333402	0
2	1292	141977.703854627868	1
2	1294	141977.703854627868	0
2	1310	144044.339488537189	1
2	1312	144044.339488537189	0
2	1319	146012.546119879902	1
2	1321	146012.546119879902	0
2	1345	150366.91549725866	1
2	1347	150366.91549725866	0
2	1362	152209.453899348227	1
2	1364	152209.453899348227	0
2	1371	153776.862040393697	1
2	1373	153776.862040393697	0
2	1376	153983.014134720572	1
2	1385	154685.899855117223	0
2	1388	155340.916265786363	1
2	1393	155481.318005355804	0
2	1397	156066.513609932829	1
2	1402	156262.630645350671	0
2	1405	157032.820382018997	1
2	1413	157302.118972040769	0
2	1430	158561.1315327334	1
2	1435	158714.199750315258	0
2	1447	159590.47174138732	1
2	1455	159824.079145397969	0
2	1466	160973.579943044505	1
2	1471	161073.007012662358	0
2	1478	161727.42459791407	1
2	1483	161979.506714168983	0
2	1505	163712.290688088096	1
2	1510	163774.159615947263	0
2	1553	168340.788877215366	1
2	1558	168592.720533871295	0
2	1565	170503.345893975052	1
2	1567	170503.345893975052	0
2	1570	170811.448527580317	1
2	1576	171604.725799410091	0
2	1591	173465.621379271401	1
2	1593	173465.621379271401	0
2	1600	174927.402805835025	1
2	1602	174927.402805835025	0
2	1605	175096.182274620906	1
2	1616	175848.100200302729	0
2	1625	177020.271426867283	1
2	1630	177116.37583330744	0
2	1633	177231.775922208293	1
2	1641	178054.570578914325	0
2	1644	178097.684612575918	1
2	1648	178323.588968183346	2
2	1653	178940.090751162064	1
2	1661	179831.067382429051	0
2	1697	182281.108429338639	1
2	1702	182310.138509837175	0
2	1743	187268.985677321633	1
2	1745	187268.985677321633	0
2	1748	187350.401523230722	1
2	1753	188257.308305597919	0
2	1757	189139.234886006104	1
2	1762	189169.296522426859	0
2	1769	190307.311010948874	1
2	1771	190307.311010948874	0
2	1774	190884.323922302728	1
2	1779	191319.886932311994	0
2	1802	192824.745404581822	1
2	1804	192824.745404581822	0
2	1807	193179.106944685681	1
2	1815	193667.917800578762	0
2	1819	194386.689573147711	1
2	1824	194617.896054231632	0
2	1870	199076.379595814897	1
2	1872	199076.379595814897	0
2	1888	202479.38184325164	1
2	1890	202479.38184325164	0
2	1915	208702.057541564242	1
2	1917	208702.057541564242	0
2	1924	209451.19277805096	1
2	1926	209451.19277805096	0
2	1929	209502.047787138261	1
2	1934	210211.793960950694	0
2	1937	210216.55095235203	1
2	1940	210279.05759386869	2
2	1943	210657.480128939784	3
2	1949	211083.279679531202	2
2	1952	211697.335527360385	3
2	1957	212070.486036810037	2
2	1963	212825.800689637494	1
2	1971	213795.778273898989	0
2	1996	215395.202920028549	1
2	2001	215644.922596551674	0
2	2004	215977.990671849523	1
2	2016	216538.160088961503	0
2	2041	218310.53432039098	1
2	2046	218498.14658938186	0
2	2049	218678.581846141086	1
2	2055	219507.140613168797	0
2	2100	224042.62210977593	1
2	2102	224042.62210977593	0
2	2109	226005.670190241888	1
2	2111	226005.670190241888	0
2	2136	230448.289426359639	1
2	2138	230448.289426359639	0
2	2144	231340.081617127545	1
2	2146	231340.081617127545	0
2	2150	231885.461325128367	1
2	2153	232120.530207823608	2
2	2158	232420.057744647865	1
2	2164	233387.018176817906	0
2	2167	233876.175052034667	1
2	2170	234114.548972365736	2
2	2175	234290.282057956872	1
2	2184	235238.978038106963	0
2	2204	236835.205906040825	1
2	2206	236835.205906040825	0
2	2225	238272.341349601061	1
2	2231	238436.912972921133	0
2	2250	239986.838250155631	1
2	2254	240110.812167252603	2
2	2259	240331.090762937489	1
2	2264	241160.798492470952	0
2	2279	242849.262029642297	1
2	2281	242849.262029642297	0
2	2288	243605.451611150922	1
2	2293	243633.493970375772	0
2	2296	244003.180257741557	1
2	2301	244662.998433023977	0
2	2307	244982.222097623228	1
2	2313	245740.256760186772	0
2	2319	246017.754249282899	1
2	2324	246691.945895775716	0
2	2328	247132.650840767821	1
2	2331	247178.079063381004	2
2	2339	247661.781606551786	1
2	2342	248139.656197152225	2
2	2351	248648.200992368564	1
2	2356	249546.99513099254	0
2	2362	250094.687302713402	1
2	2371	250504.656780167456	0
2	2414	253436.437169009684	1
2	2419	253438.439299070589	0
2	2463	256334.253517097428	1
2	2465	256334.253517097428	0
2	2490	261068.662432831876	1
2	2492	261068.662432831876	0
2	2495	261301.730314402863	1
2	2500	261968.385162672461	0
2	2503	262149.738662514209	1
2	2509	262907.170540640835	0
2	2512	263983.141670055685	1
2	2516	263997.613991873587	2
2	2521	264014.34608264213	1
2	2524	264620.938729014959	2
2	2529	264849.705869724851	1
2	2534	265643.340801125983	0
2	2557	267227.278542628578	1
2	2559	267227.278542628578	0
2	2600	271129.249555898782	1
2	2602	271129.249555898782	0
2	2605	271607.107164884319	1
2	2608	271683.437731325977	2
2	2616	272031.72555666026	1
2	2619	272045.691949920211	2
2	2622	272363.519557027312	3
2	2628	272812.400530472507	2
2	2633	273520.454302025766	1
2	2636	274090.347986416679	2
2	2641	274225.478758006824	1
2	2645	274686.238403255648	2
2	2648	274810.454795286159	3
2	2653	275164.063975757083	2
2	2661	275989.345583614116	1
2	2668	276724.826739972947	2
2	2673	276926.547080141964	1
2	2685	277888.496793364227	0
2	2725	280352.910955103345	1
2	2730	280529.397499633578	0
2	2740	281227.321928259621	1
2	2743	281444.157110127894	2
2	2748	281690.870311275863	1
2	2754	282536.950188840888	2
2	2757	282562.737656314513	3
2	2762	282582.323958835444	2
2	2765	282627.636122080173	3
2	2769	283427.697726003243	4
2	2774	283441.137741405866	3
2	2777	284409.982652021605	4
2	2782	284488.46066168207	3
2	2791	285549.578098958373	2
2	2794	285924.247351521051	3
2	2797	286125.780086819315	4
2	2800	286141.759849279131	5
2	2809	286458.265641223721	4
2	2817	287379.349770567381	3
2	2823	288247.637471222788	2
2	2834	289331.240124929534	1
2	2837	289589.306149479028	2
2	2841	289791.179824531365	3
2	2849	290230.919591340988	2
2	2857	291081.568429781398	1
2	2863	291926.388201638903	0
2	2866	292072.643755493698	1
2	2877	292767.883639015727	0
2	2881	293369.485890575712	1
2	2884	293524.1137579456	2
2	2892	293747.784002652375	1
2	2897	294757.045898750632	0
2	2907	295250.233490490154	1
2	2912	295584.512593982613	0
2	2918	296042.879932559477	1
2	2921	296304.537804090217	2
2	2926	296483.194938470454	1
2	2935	297417.788595695124	0
2	2970	299781.02939824689	1
2	2975	299843.98999138054	0
2	2982	300654.977504721006	1
2	2987	300669.302310475467	0
2	3038	304083.510420826365	1
2	3046	304174.037503568652	0
2	3127	310800.139455499771	1
2	3129	310800.139455499771	0
2	3132	311611.313493415193	1
2	3137	311768.553432291911	0
2	3145	314376.651329174741	1
2	3147	314376.651329174741	0
2	3162	316078.385525124709	1
2	3164	316078.385525124709	0
2	3197	320948.652014699471	1
2	3199	320948.652014699471	0
2	3202	321309.403709141479	1
2	3207	321804.420342559736	0
2	3214	322918.24465237341	1
2	3216	322918.24465237341	0
2	3219	322938.066497660875	1
2	3224	323878.359528540035	0
2	3228	324128.727533844994	1
2	3233	324713.154303957658	0
2	3236	325100.266959443867	1
2	3242	325429.321518672495	2
2	3247	325503.112273277159	1
2	3256	326676.266122104731	0
2	3262	327366.268975973473	1
2	3266	327510.553472557033	2
2	3271	327513.47319402483	1
2	3274	327667.335837479015	2
2	3282	328430.647410108081	1
2	3291	329279.922934770367	0
2	3334	331966.778010435213	1
2	3339	331998.446738444467	0
2	3348	332918.526023024106	1
2	3356	333135.92940549885	0
2	3367	334250.280731730493	1
2	3372	334277.359864718623	0
2	3376	334488.63691190091	1
2	3381	335154.348496804675	0
2	3406	337026.609232181291	1
2	3408	337026.609232181291	0
2	3428	338609.584870136239	1
2	3433	338667.206493584341	0
2	3448	339874.64368140053	1
2	3450	339874.64368140053	0
2	3462	341482.138809998791	1
2	3467	341670.693869443145	0
2	3473	342567.743543410222	1
2	3475	342567.743543410222	0
2	3482	343522.926223592082	1
2	3487	343543.200420711258	0
2	3490	344297.400585141923	1
2	3493	344359.817364915716	2
2	3498	344443.48405677787	1
2	3505	345070.482264101994	2
2	3510	345228.115581415588	1
2	3518	345942.300447443236	0
2	3530	346941.567497215778	1
2	3535	347035.038867966311	0
2	3544	348037.064910465931	1
2	3552	348164.703223278531	0
2	3555	348937.893229492427	1
2	3563	349106.851968607085	0
2	3583	350559.611487347514	1
2	3588	350612.230735022269	0
2	3591	351185.145680322815	1
2	3600	351491.996960731461	0
2	3603	351661.276946406119	1
2	3606	351888.070001102216	2
2	3614	352447.640743800521	1
2	3620	353160.322865910812	0
2	3641	354698.599400346154	1
2	3647	354936.025506227995	0
2	3650	355187.057343060594	1
2	3658	355593.084554515256	0
2	3661	355899.580677930167	1
2	3664	355931.391873411735	2
2	3675	356432.734379957505	1
2	3684	357225.125383884424	0
2	3687	357438.635215918669	1
2	3692	358080.058761595487	0
2	3709	359731.450992890785	1
2	3714	359747.237695700519	0
2	3726	360693.450262370314	1
2	3731	360763.020036128876	0
2	3807	365251.356270964298	1
2	3809	365251.356270964298	0
2	3823	366557.394299767818	1
2	3825	366557.394299767818	0
2	3833	368873.832844495969	1
2	3835	368873.832844495969	0
2	3838	369636.995642144777	1
2	3843	369742.019069801681	0
2	3850	370560.403637130391	1
2	3855	370587.270298010886	0
2	3871	371930.104200771049	1
2	3877	372054.932877230361	0
2	3880	372357.585330801557	1
2	3885	372887.00794132025	0
2	3908	374886.183340576864	1
2	3910	374886.183340576864	0
2	3943	378901.954369587815	1
2	3945	378901.954369587815	0
2	3956	379715.598109009508	1
2	3961	380026.801237295761	0
2	3968	381612.078917697057	1
2	3970	381612.078917697057	0
2	3994	385139.397583172027	1
2	3996	385139.397583172027	0
2	4003	385985.285409428569	1
2	4008	385989.261765909296	0
2	4011	386789.840013090008	1
2	4016	386813.930364107249	0
2	4019	387347.384319409894	1
2	4025	387766.601804027394	0
2	4062	392064.544475637976	1
2	4064	392064.544475637976	0
2	4071	392798.752216742028	1
2	4076	393015.317880075864	0
2	4088	394416.186380881475	1
2	4090	394416.186380881475	0
2	4093	395025.907909035531	1
2	4098	395170.38612164468	0
2	4101	395469.030952854128	1
2	4107	396199.205828548887	0
2	4135	398347.307307703503	1
2	4140	398589.148627220144	0
2	4152	399590.70084645283	1
2	4157	399699.8489956219	0
2	4160	399910.011478791214	1
2	4165	400729.329126759796	0
2	4189	403936.228628887585	1
2	4191	403936.228628887585	0
2	4215	406728.773945352445	1
2	4217	406728.773945352445	0
2	4220	407349.853586663175	1
2	4225	407651.675031313268	0
2	4241	409821.619781110677	1
2	4243	409821.619781110677	0
2	4272	414620.987645651059	1
2	4277	414719.770347684283	0
2	4285	417985.12863208102	1
2	4287	417985.12863208102	0
2	4303	420686.06475775173	1
2	4305	420686.06475775173	0
2	4317	422758.238673387283	1
2	4322	422872.8783172268	0
2	4338	426152.924458482725	1
2	4340	426152.924458482725	0
2	4343	426269.970775045261	1
2	4349	427132.831689939638	0
2	4355	427929.275670535788	1
2	4360	428040.991495397957	0
2	4364	428654.015079063065	1
2	4369	429107.650834119289	0
2	4372	429266.109293026499	1
2	4377	429962.934055271801	0
2	4384	430880.035093887654	1
2	4389	430906.139745498521	0
2	4392	431086.269404397818	1
2	4400	431670.473283461025	0
2	4403	431763.353658305109	1
3	30	4441.165245151683	0
3	39	5372.411109396202	0
3	72	8465.173255624206	1760.4834404578
3	89	10116.376957674831	0
3	106	11148.370736385789	524.45835739891
3	114	11968.089310023499	0
3	218	21433.213650659888	8307.6097163242
3	223	21741.697014014186	6422.9238360476
3	231	22083.437249425536	4302.526735871
3	237	22404.014944127157	3274.2862254607
3	242	22697.814627884557	3302.0574035349
3	247	22989.677134244744	1780.3589120691
3	252	23285.796639458084	1955.8539669371
3	257	23586.989753298332	1731.0711215494
3	268	23910.482149232705	209.65360538553
3	274	24222.850675299627	484.52683071434
3	299	26368.325176694565	1668.962401269
3	308	28571.179396323176	0
3	333	30757.205978488339	737.12026834011
3	449	41287.163309023121	7519.9075758426
3	454	41579.516601000376	7276.4387065388
3	459	41835.102736676315	5099.7015185552
3	464	42185.588287696526	4310.9692862874
3	469	42494.395165826552	3892.160927645
3	477	42807.237036300919	3184.7781621254
3	486	43143.464053660217	2624.2442213358
3	491	43479.410402257705	2658.6224436639
3	496	43792.423142631225	1242.5679678341
3	501	44105.728898426678	1156.9175155868
3	509	44399.030559658122	241.69801570258
3	518	45106.387234469972	0
3	553	50781.073920059214	0
3	562	51783.222273984132	0
3	571	53153.539300251327	0
3	598	58818.51416653508	0
3	624	62379.336474119479	0
3	633	64257.311449514326	0
3	658	66336.532434665269	704.29399637133
3	676	69282.778328587932	0
3	684	69815.05011512458	0
3	693	71843.361669574438	0
3	729	78284.655650371762	0
3	746	79580.014946849297	158.79411964459
3	754	79861.272242748113	53.109016261699
3	788	83591.363404646247	215.55215046444
3	797	84674.767075371187	0
3	805	85390.448283565874	0
3	823	87690.933537173819	0
3	849	91094.217264893007	0
3	857	92464.958795386637	0
3	875	95179.820376723347	765.66795343148
3	909	98223.229231081397	13.002749612093
3	918	100274.79097896032	0
3	927	101332.051688480701	0
3	943	102495.819495235062	23.469797176483
3	969	106022.851089297202	0
3	999	110037.486677161016	830.58034350887
3	1004	110328.513567295015	1071.0842850593
3	1029	113117.732147760805	794.38162103453
3	1038	113635.198071004873	0
3	1047	115984.090155780284	0
3	1055	116495.999437871738	0
3	1098	121033.382603985932	0
3	1107	122143.638308565704	0
3	1124	123817.376415580753	0
3	1132	124454.269403737437	0
3	1150	127434.833886084508	0
3	1184	130634.708444497282	499.50677074271
3	1201	132376.982914796	0
3	1209	133019.089198576492	0
3	1218	134871.313922919501	0
3	1226	135161.703705005444	273.14907180126
3	1269	140482.268314382087	0
3	1278	140884.050001323862	0
3	1286	141564.08554761407	0
3	1303	142990.94745027092	324.05807869577
3	1329	146912.601058095706	145.16923145796
3	1338	147946.301551122956	0
3	1356	151431.332780393811	866.1688450647
3	1419	158177.958807047668	3697.1737990334
3	1427	158451.423618399709	1304.4118027986
3	1444	159471.39201706649	1192.6503101748
3	1460	160769.64465051844	1658.3494532232
3	1491	162849.918160666267	3214.3312148165
3	1497	163173.58893582993	2329.7531891545
3	1502	163472.646941696697	2342.3749762998
3	1519	164632.357527548638	2367.8498784529
3	1524	164883.107649598092	310.15912319832
3	1532	165729.521112979084	0
3	1541	166318.181486861365	0
3	1550	168334.108428736693	0
3	1584	173004.865492127378	0
3	1622	176811.047902505223	1645.3421571673
3	1667	180742.710476576133	5042.7815180881
3	1675	181064.728825004198	3249.2525888685
3	1680	181410.418121238579	2403.0767176176
3	1688	181683.165012093386	711.8684398056
3	1694	182011.619625027009	551.80427618187
3	1710	183302.090137552442	235.01179839399
3	1719	183619.423785311189	86.76123431736
3	1727	184590.278638786725	0
3	1736	186599.60798026089	0
3	1791	192222.433317096206	518.31406670194
3	1796	192514.435772123214	746.14200832109
3	1833	195552.898836247315	2122.8363606671
3	1841	195839.993919225857	468.00369313467
3	1846	196123.44899230493	363.89454973875
3	1855	197642.482108467706	0
3	1863	198150.417953500164	0
3	1880	200042.948341955417	855.81581600829
3	1898	203869.101245211652	0
3	1908	206868.341316611296	0
3	1980	214743.426255097565	1612.9513974051
3	1985	215088.595621748351	1215.1610435597
3	1993	215393.755780772355	189.62630956034
3	2024	217542.695206517682	1400.2199904343
3	2030	217902.133496840173	1613.3017019284
3	2035	218178.789235017097	1187.2622521948
3	2063	220380.840201946436	2158.2275894459
3	2068	220702.40083083412	465.01367998576
3	2076	221112.223705086666	0
3	2086	222903.470353983202	0
3	2094	223467.225034199708	0
3	2121	229672.753641538016	0
3	2130	230128.679226627406	0
3	2192	235993.361403893562	1407.1279117433
3	2197	236294.223023704051	520.83680629386
3	2214	237646.480798136618	733.38513666914
3	2222	238144.559650255315	0
3	2239	239310.052131506746	540.41280361153
3	2247	239953.422607389715	0
3	2273	242140.214373133828	429.69740450241
3	2379	251495.391155183242	7917.8842087409
3	2384	251784.593889728505	6835.4594214413
3	2390	252142.944837588696	6313.0855451855
3	2395	252481.914913352833	5000.3069802066
3	2403	252808.646970316943	4276.2778202973
3	2411	253140.060295135709	3532.6784376441
3	2428	254371.999959916993	4082.1456460315
3	2433	254652.262698911429	3311.6365493574
3	2441	254976.647377234946	2272.5573223379
3	2446	255236.787852247516	2188.1767592241
3	2452	255549.974246487119	1332.2346752306
3	2457	255854.353335039926	1058.2137107568
3	2474	257627.671564857358	0
3	2484	260677.595928060159	0
3	2546	266490.504498385262	362.25491595312
3	2551	266791.896758450816	457.59651712235
3	2568	268298.248264930898	0
3	2576	268687.076275623411	0
3	2585	269175.704078675267	0
3	2593	270018.023685179147	0
3	2693	278777.479998451244	6902.1711189256
3	2698	279056.656444890785	3887.9000168009
3	2703	279329.891209964264	2962.57488334
3	2709	279620.151879397456	2388.0425329989
3	2714	279926.963811575501	2280.8708378638
3	2722	280201.279782702805	1522.0662613533
3	2944	298321.74256568752	18200.990719382
3	2949	298671.324170435928	17744.864366905
3	2954	298908.343671376504	17762.749564335
3	2962	299183.684701417474	16752.487625298
3	2967	299479.899877436651	14500.447994944
3	2995	301674.099458775484	15393.752163724
3	3004	301998.427800919727	14680.733879626
3	3009	302331.543082644892	13850.174369658
3	3014	302641.870693397957	13536.63922309
3	3019	302941.055652962266	12985.901006142
3	3024	303277.426839295581	12219.199223964
3	3030	303583.968582353066	10998.518960259
3	3035	303861.327247168109	11163.817960885
3	3051	304899.059410865617	11185.05521225
3	3057	305144.746534222851	10138.577282918
3	3062	305470.166526348776	10431.780206074
3	3067	305753.216516984783	9824.749421603
3	3075	306046.595815032256	8867.9677906145
3	3080	306326.737096414815	8608.041313944
3	3085	306588.616135394964	7574.6366220484
3	3091	306902.48556926489	6976.0491743371
3	3096	307211.41868026353	6221.5899399515
3	3101	307475.521628462304	5549.1800219557
3	3106	307718.02337842105	3568.5767961622
3	3111	308010.976713979793	2214.3522975758
3	3119	308284.595794053657	255.02371723032
3	3156	315482.741491158442	0
3	3172	316978.122932144062	29.848647366032
3	3182	319056.627741689822	0
3	3190	320386.679850383541	0
3	3299	330265.884716655142	5031.4420553159
3	3304	330534.227077429855	4073.1936230128
3	3309	330823.813018025698	3488.0105497471
3	3318	331165.415926244455	3389.6096670195
3	3323	331410.469970855449	2659.1550962434
3	3328	331696.460022502464	1759.6579631587
3	3345	332840.904245111123	1808.5862766952
3	3364	333987.26867564957	2135.7395438822
3	3387	336076.867141903456	3098.9033993187
3	3395	336370.011429426681	2639.8667600039
3	3400	336637.198458104343	309.63671545209
3	3417	337866.681374528317	363.9724718469
3	3425	338413.114942273931	0
3	3442	339570.679738196649	618.51687434862
3	3459	341359.991471336001	0
3	3524	346744.67018096282	3314.7881329486
3	3540	347848.135756727263	3341.9522069945
3	3572	350002.770607543143	4195.3235636079
3	3580	350286.79117251442	3421.1410463619
3	3628	354017.725984369685	5893.3367304085
3	3633	354292.836460470243	5206.762524918
3	3638	354629.760124510102	5443.761383298
3	3701	359171.353361585142	9049.0484383163
3	3706	359485.87889619606	8092.2223393333
3	3723	360472.989135628504	8432.3179808593
3	3739	361697.217444664708	7930.4297070048
3	3745	361928.546942214097	6468.9684242779
3	3750	362214.520670082207	6192.2003329643
3	3761	362482.695303554639	6175.544258346
3	3766	362742.928476008875	5589.694267812
3	3771	363032.074059712694	3956.6310428814
3	3776	363328.514610540169	3535.4205375163
3	3782	363632.036294071891	2367.6599898223
3	3787	363925.859303870579	1567.1247678403
3	3795	364213.95264989636	1802.198347438
3	3800	364474.70333659607	496.75920535015
3	3817	366024.0520980063	322.42433336778
3	3863	371407.970710831481	1111.2943947959
3	3868	371696.979709132869	407.92723438087
3	3894	373915.741248245515	254.40200590113
3	3902	374269.786587944546	179.17215309418
3	3919	375811.706917866414	584.32203384187
3	3927	376103.321924028444	15.550531217921
3	3936	377548.357608959758	0
3	3953	379702.767328361502	639.48770319001
3	3979	383224.428066061119	0
3	3988	384568.692086236492	0
3	4030	388669.9752968309	3279.6275777998
3	4039	389581.980437882228	0
3	4047	390095.611382293967	0
3	4056	391073.72909575783	0
3	4081	394031.75064034206	1370.779646698
3	4115	397105.373597042421	688.85624452236
3	4123	397583.765718583169	0
3	4132	398318.372811185048	0
3	4148	399398.758301165043	62.363263063463
3	4174	401497.212421707126	436.84415318025
3	4183	403137.559044153462	0
3	4203	404865.460192276516	373.76989019514
3	4208	405154.159531986948	505.20098588096
3	4234	408740.654190336001	0
3	4251	410862.084118522663	0
3	4260	412557.000272199502	0
3	4269	414388.869544191723	0
3	4296	418966.51564361828	0
3	4314	422528.690206145669	0
3	4331	424887.567073093457	0
4	28	4441.165245151683	1
4	30	4441.165245151683	0
4	37	5372.411109396202	1
4	39	5372.411109396202	0
4	61	6704.689815166447	1
4	72	8465.173255624206	0
4	87	10116.376957674831	1
4	89	10116.376957674831	0
4	101	10623.912378986876	1
4	106	11148.370736385789	0
4	112	11968.089310023499	1
4	114	11968.089310023499	0
4	126	13125.603934335702	1
4	152	15318.773177966595	2
4	175	17780.910513554505	3
4	190	19129.728718666407	4
4	193	19395.757224349627	5
4	210	21209.31822217567	6
4	213	21329.942672520967	7
4	218	21433.213650659888	6
4	223	21741.697014014186	5
4	226	21855.918631748946	6
4	231	22083.437249425536	5
4	237	22404.014944127157	4
4	242	22697.814627884557	3
4	247	22989.677134244744	2
4	252	23285.796639458084	1
4	257	23586.989753298332	0
4	260	23700.828543847174	1
4	263	23738.323844585292	2
4	268	23910.482149232705	1
4	274	24222.850675299627	0
4	285	24699.362775425563	1
4	299	26368.325176694565	0
4	306	28571.179396323176	1
4	308	28571.179396323176	0
4	328	30020.085710148232	1
4	333	30757.205978488339	0
4	360	33767.255733180563	1
4	369	34303.077894461586	2
4	400	36735.401218121091	3
4	412	37874.619001409084	4
4	423	38602.234238181582	5
4	432	39622.458874175561	6
4	440	40519.21983232438	7
4	443	40820.78795859384	8
4	449	41287.163309023121	7
4	454	41579.516601000376	6
4	459	41835.102736676315	5
4	464	42185.588287696526	4
4	469	42494.395165826552	3
4	472	42549.855174797128	4
4	477	42807.237036300919	3
4	481	42948.811382839861	4
4	486	43143.464053660217	3
4	491	43479.410402257705	2
4	496	43792.423142631225	1
4	501	44105.728898426678	0
4	504	44157.33254395554	1
4	509	44399.030559658122	0
4	516	45106.387234469972	1
4	518	45106.387234469972	0
4	551	50781.073920059214	1
4	553	50781.073920059214	0
4	560	51783.222273984132	1
4	562	51783.222273984132	0
4	569	53153.539300251327	1
4	571	53153.539300251327	0
4	596	58818.51416653508	1
4	598	58818.51416653508	0
4	622	62379.336474119479	1
4	624	62379.336474119479	0
4	631	64257.311449514326	1
4	633	64257.311449514326	0
4	653	65632.238438293934	1
4	658	66336.532434665269	0
4	674	69282.778328587932	1
4	676	69282.778328587932	0
4	682	69815.05011512458	1
4	684	69815.05011512458	0
4	691	71843.361669574438	1
4	693	71843.361669574438	0
4	727	78284.655650371762	1
4	729	78284.655650371762	0
4	741	79421.220827204712	1
4	746	79580.014946849297	0
4	749	79808.163226486414	1
4	754	79861.272242748113	0
4	783	83375.811254181807	1
4	788	83591.363404646247	0
4	795	84674.767075371187	1
4	797	84674.767075371187	0
4	803	85390.448283565874	1
4	805	85390.448283565874	0
4	821	87690.933537173819	1
4	823	87690.933537173819	0
4	847	91094.217264893007	1
4	849	91094.217264893007	0
4	855	92464.958795386637	1
4	857	92464.958795386637	0
4	870	94414.15242329187	1
4	875	95179.820376723347	0
4	904	98210.226481469304	1
4	909	98223.229231081397	0
4	916	100274.79097896032	1
4	918	100274.79097896032	0
4	925	101332.051688480701	1
4	927	101332.051688480701	0
4	938	102472.349698058579	1
4	943	102495.819495235062	0
4	967	106022.851089297202	1
4	969	106022.851089297202	0
4	990	109206.906333652145	1
4	993	109257.429282235765	2
4	999	110037.486677161016	1
4	1004	110328.513567295015	0
4	1024	112323.350526726275	1
4	1029	113117.732147760805	0
4	1036	113635.198071004873	1
4	1038	113635.198071004873	0
4	1045	115984.090155780284	1
4	1047	115984.090155780284	0
4	1053	116495.999437871738	1
4	1055	116495.999437871738	0
4	1096	121033.382603985932	1
4	1098	121033.382603985932	0
4	1105	122143.638308565704	1
4	1107	122143.638308565704	0
4	1122	123817.376415580753	1
4	1124	123817.376415580753	0
4	1130	124454.269403737437	1
4	1132	124454.269403737437	0
4	1148	127434.833886084508	1
4	1150	127434.833886084508	0
4	1178	130135.201673754574	1
4	1184	130634.708444497282	0
4	1199	132376.982914796	1
4	1201	132376.982914796	0
4	1207	133019.089198576492	1
4	1209	133019.089198576492	0
4	1216	134871.313922919501	1
4	1218	134871.313922919501	0
4	1221	134888.554633204187	1
4	1226	135161.703705005444	0
4	1267	140482.268314382087	1
4	1269	140482.268314382087	0
4	1276	140884.050001323862	1
4	1278	140884.050001323862	0
4	1284	141564.08554761407	1
4	1286	141564.08554761407	0
4	1298	142666.889371575148	1
4	1303	142990.94745027092	0
4	1324	146767.431826637744	1
4	1329	146912.601058095706	0
4	1336	147946.301551122956	1
4	1338	147946.301551122956	0
4	1350	150565.163935329112	1
4	1356	151431.332780393811	0
4	1380	154480.785008014261	1
4	1408	157147.011815601085	2
4	1419	158177.958807047668	1
4	1422	158278.741706891729	2
4	1427	158451.423618399709	1
4	1438	159111.295197295276	2
4	1444	159471.39201706649	1
4	1450	159635.586945849782	2
4	1460	160769.64465051844	1
4	1463	160843.835746675437	2
4	1474	161130.271965396941	3
4	1486	162264.507649095761	4
4	1491	162849.918160666267	3
4	1497	163173.58893582993	2
4	1502	163472.646941696697	1
4	1514	164572.948526399777	2
4	1519	164632.357527548638	1
4	1524	164883.107649598092	0
4	1530	165729.521112979084	1
4	1532	165729.521112979084	0
4	1539	166318.181486861365	1
4	1541	166318.181486861365	0
4	1548	168334.108428736693	1
4	1550	168334.108428736693	0
4	1582	173004.865492127378	1
4	1584	173004.865492127378	0
4	1608	175165.705745337924	1
4	1611	175699.928958488071	2
4	1622	176811.047902505223	1
4	1636	177815.476236135727	2
4	1656	179007.341403620992	3
4	1667	180742.710476576133	2
4	1670	180971.296572287788	3
4	1675	181064.728825004198	2
4	1680	181410.418121238579	1
4	1683	181459.815348845142	2
4	1688	181683.165012093386	1
4	1694	182011.619625027009	0
4	1705	183067.078339158453	1
4	1710	183302.090137552442	0
4	1714	183532.662550993829	1
4	1719	183619.423785311189	0
4	1725	184590.278638786725	1
4	1727	184590.278638786725	0
4	1734	186599.60798026089	1
4	1736	186599.60798026089	0
4	1782	191704.119250394263	1
4	1785	191768.29376380212	2
4	1791	192222.433317096206	1
4	1796	192514.435772123214	0
4	1810	193430.062475580222	1
4	1827	195371.990226091188	2
4	1833	195552.898836247315	1
4	1836	195759.554442566182	2
4	1841	195839.993919225857	1
4	1846	196123.44899230493	0
4	1853	197642.482108467706	1
4	1855	197642.482108467706	0
4	1861	198150.417953500164	1
4	1863	198150.417953500164	0
4	1875	199187.132525947125	1
4	1880	200042.948341955417	0
4	1896	203869.101245211652	1
4	1898	203869.101245211652	0
4	1906	206868.341316611296	1
4	1908	206868.341316611296	0
4	1966	213130.474857692433	1
4	1974	213873.434578188641	2
4	1980	214743.426255097565	1
4	1985	215088.595621748351	0
4	1988	215204.129471212011	1
4	1993	215393.755780772355	0
4	2008	216142.475216083416	1
4	2011	216288.831794911751	2
4	2019	216991.526982822286	3
4	2024	217542.695206517682	2
4	2030	217902.133496840173	1
4	2035	218178.789235017097	0
4	2038	218222.612612500518	1
4	2058	220237.387150848361	2
4	2063	220380.840201946436	1
4	2068	220702.40083083412	0
4	2074	221112.223705086666	1
4	2076	221112.223705086666	0
4	2084	222903.470353983202	1
4	2086	222903.470353983202	0
4	2092	223467.225034199708	1
4	2094	223467.225034199708	0
4	2119	229672.753641538016	1
4	2121	229672.753641538016	0
4	2128	230128.679226627406	1
4	2130	230128.679226627406	0
4	2178	234586.233492150302	1
4	2187	235773.386217410187	2
4	2192	235993.361403893562	1
4	2197	236294.223023704051	0
4	2209	236913.095661467478	1
4	2214	237646.480798136618	0
4	2220	238144.559650255315	1
4	2222	238144.559650255315	0
4	2234	238769.639327895213	1
4	2239	239310.052131506746	0
4	2245	239953.422607389715	1
4	2247	239953.422607389715	0
4	2267	241710.51696863142	1
4	2273	242140.214373133828	0
4	2285	243577.506946442316	1
4	2304	244949.134468287232	2
4	2316	245829.859292403179	3
4	2334	247481.607933146262	4
4	2345	248532.369150019655	5
4	2359	249607.381857491616	6
4	2366	250289.854313885533	7
4	2374	251340.626149554011	8
4	2379	251495.391155183242	7
4	2384	251784.593889728505	6
4	2390	252142.944837588696	5
4	2395	252481.914913352833	4
4	2398	252704.090054897054	5
4	2403	252808.646970316943	4
4	2406	253048.611093023455	5
4	2411	253140.060295135709	4
4	2423	254217.739571256527	5
4	2428	254371.999959916993	4
4	2433	254652.262698911429	3
4	2436	254796.139624283109	4
4	2441	254976.647377234946	3
4	2446	255236.787852247516	2
4	2452	255549.974246487119	1
4	2457	255854.353335039926	0
4	2472	257627.671564857358	1
4	2474	257627.671564857358	0
4	2482	260677.595928060159	1
4	2484	260677.595928060159	0
4	2538	266128.249582432145	1
4	2541	266334.30024132847	2
4	2546	266490.504498385262	1
4	2551	266791.896758450816	0
4	2566	268298.248264930898	1
4	2568	268298.248264930898	0
4	2574	268687.076275623411	1
4	2576	268687.076275623411	0
4	2583	269175.704078675267	1
4	2585	269175.704078675267	0
4	2591	270018.023685179147	1
4	2593	270018.023685179147	0
4	2611	271875.308879525619	1
4	2656	275168.75642808993	2
4	2665	276367.316326624218	3
4	2676	277232.109346398565	4
4	2679	277646.09297371172	5
4	2688	278679.213521349493	6
4	2693	278777.479998451244	5
4	2698	279056.656444890785	4
4	2703	279329.891209964264	3
4	2709	279620.151879397456	2
4	2714	279926.963811575501	1
4	2717	280120.751846305218	2
4	2722	280201.279782702805	1
4	2733	280926.459803531324	2
4	2737	281145.594107041595	3
4	2751	282431.197076119056	4
4	2786	284979.451882492562	5
4	2803	286280.347295051496	6
4	2812	287317.693921294077	7
4	2826	288481.368712986825	8
4	2829	289105.231470307524	9
4	2844	289955.15464682038	10
4	2852	291058.227615331807	11
4	2869	292585.449622094409	12
4	2872	292697.509286282728	13
4	2887	293714.004198615236	14
4	2901	295006.169251305262	15
4	2904	295038.386320274895	16
4	2915	295928.467095381823	17
4	2930	297178.628024417779	18
4	2938	297718.695782470782	19
4	2944	298321.74256568752	18
4	2949	298671.324170435928	17
4	2954	298908.343671376504	16
4	2957	299013.97951334654	17
4	2962	299183.684701417474	16
4	2967	299479.899877436651	15
4	2978	299926.436394927754	16
4	2990	300989.828740312009	17
4	2995	301674.099458775484	16
4	2999	301926.341606506599	17
4	3004	301998.427800919727	16
4	3009	302331.543082644892	15
4	3014	302641.870693397957	14
4	3019	302941.055652962266	13
4	3024	303277.426839295581	12
4	3030	303583.968582353066	11
4	3035	303861.327247168109	10
4	3041	304149.446582258863	11
4	3051	304899.059410865617	10
4	3057	305144.746534222851	9
4	3062	305470.166526348776	8
4	3067	305753.216516984783	7
4	3070	305796.624416403988	8
4	3075	306046.595815032256	7
4	3080	306326.737096414815	6
4	3085	306588.616135394964	5
4	3091	306902.48556926489	4
4	3096	307211.41868026353	3
4	3101	307475.521628462304	2
4	3106	307718.02337842105	1
4	3111	308010.976713979793	0
4	3114	308029.572076823341	1
4	3119	308284.595794053657	0
4	3154	315482.741491158442	1
4	3156	315482.741491158442	0
4	3167	316948.27428477803	1
4	3172	316978.122932144062	0
4	3180	319056.627741689822	1
4	3182	319056.627741689822	0
4	3188	320386.679850383541	1
4	3190	320386.679850383541	0
4	3239	325234.442661339245	1
4	3251	326461.033454417037	2
4	3259	327335.802468278571	3
4	3277	327775.806259224969	4
4	3285	328751.314874612047	5
4	3294	329936.802059343759	6
4	3299	330265.884716655142	5
4	3304	330534.227077429855	4
4	3309	330823.813018025698	3
4	3313	331032.317968415894	4
4	3318	331165.415926244455	3
4	3323	331410.469970855449	2
4	3328	331696.460022502464	1
4	3331	331851.529131767339	2
4	3345	332840.904245111123	1
4	3351	332977.963742584725	2
4	3359	333730.14466942274	3
4	3364	333987.26867564957	2
4	3387	336076.867141903456	1
4	3390	336327.561742652249	2
4	3395	336370.011429426681	1
4	3400	336637.198458104343	0
4	3411	337502.708902681415	1
4	3417	337866.681374528317	0
4	3423	338413.114942273931	1
4	3425	338413.114942273931	0
4	3436	338952.162863848027	1
4	3442	339570.679738196649	0
4	3457	341359.991471336001	1
4	3459	341359.991471336001	0
4	3479	343429.882048014262	1
4	3501	344506.18354973274	2
4	3513	345807.4470439352	3
4	3524	346744.67018096282	2
4	3527	346865.650126152495	3
4	3540	347848.135756727263	2
4	3547	348124.389253961234	3
4	3558	349086.073935552278	4
4	3566	349185.998741212135	5
4	3572	350002.770607543143	4
4	3575	350122.304923268863	5
4	3580	350286.79117251442	4
4	3594	351393.656556862784	5
4	3609	352040.671154769246	6
4	3623	353766.787737659884	7
4	3628	354017.725984369685	6
4	3633	354292.836460470243	5
4	3638	354629.760124510102	4
4	3653	355459.578517936218	5
4	3667	356022.320337117932	6
4	3670	356307.151045208612	7
4	3679	357153.2342081969	8
4	3696	359075.443016831254	9
4	3701	359171.353361585142	8
4	3706	359485.87889619606	7
4	3717	359793.094073023896	8
4	3723	360472.989135628504	7
4	3734	361264.376304249551	8
4	3739	361697.217444664708	7
4	3745	361928.546942214097	6
4	3750	362214.520670082207	5
4	3753	362358.734536030271	6
4	3756	362411.75430245833	7
4	3761	362482.695303554639	6
4	3766	362742.928476008875	5
4	3771	363032.074059712694	4
4	3776	363328.514610540169	3
4	3782	363632.036294071891	2
4	3787	363925.859303870579	1
4	3790	363977.944131245921	2
4	3795	364213.95264989636	1
4	3800	364474.70333659607	0
4	3812	365701.627764638523	1
4	3817	366024.0520980063	0
4	3847	370296.67631603562	1
4	3858	371289.052474751996	2
4	3863	371407.970710831481	1
4	3868	371696.979709132869	0
4	3888	373661.339242344383	1
4	3894	373915.741248245515	0
4	3897	374090.614434850371	1
4	3902	374269.786587944546	0
4	3913	375227.384884024544	1
4	3919	375811.706917866414	0
4	3922	376087.771392810523	1
4	3927	376103.321924028444	0
4	3934	377548.357608959758	1
4	3936	377548.357608959758	0
4	3948	379063.279625171494	1
4	3953	379702.767328361502	0
4	3977	383224.428066061119	1
4	3979	383224.428066061119	0
4	3986	384568.692086236492	1
4	3988	384568.692086236492	0
4	3999	385390.347719031064	1
4	4030	388669.9752968309	0
4	4037	389581.980437882228	1
4	4039	389581.980437882228	0
4	4045	390095.611382293967	1
4	4047	390095.611382293967	0
4	4054	391073.72909575783	1
4	4056	391073.72909575783	0
4	4068	392660.97099364401	1
4	4081	394031.75064034206	0
4	4110	396416.517352520065	1
4	4115	397105.373597042421	0
4	4121	397583.765718583169	1
4	4123	397583.765718583169	0
4	4130	398318.372811185048	1
4	4132	398318.372811185048	0
4	4143	399336.39503810158	1
4	4148	399398.758301165043	0
4	4168	401060.368268526874	1
4	4174	401497.212421707126	0
4	4181	403137.559044153462	1
4	4183	403137.559044153462	0
4	4194	404491.690302081376	1
4	4198	404648.958546105988	2
4	4203	404865.460192276516	1
4	4208	405154.159531986948	0
4	4232	408740.654190336001	1
4	4234	408740.654190336001	0
4	4249	410862.084118522663	1
4	4251	410862.084118522663	0
4	4258	412557.000272199502	1
4	4260	412557.000272199502	0
4	4267	414388.869544191723	1
4	4269	414388.869544191723	0
4	4294	418966.51564361828	1
4	4296	418966.51564361828	0
4	4312	422528.690206145669	1
4	4314	422528.690206145669	0
4	4329	424887.567073093457	1
4	4331	424887.567073093457	0
4	4352	427186.762645530678	1
4	4381	430282.67796996895	2
4	4395	431391.661161942123	3
5	14	1714.26	1
5	26	3428.52	2
5	35	5142.78	0
5	63	6857.04	1
5	74	8571.3	2
5	94	10285.56	1
5	116	11999.82	1
5	131	13714.08	0
5	154	15428.34	2
5	165	17142.6	2
5	185	18856.86	2
5	208	20571.12	2
5	233	22285.38	1
5	270	23999.64	0
5	295	25713.9	1
5	304	27428.16	1
5	318	29142.42	0
5	335	30856.68	2
5	344	32570.94	0
5	367	34285.2	2
5	390	35999.46	2
5	410	37713.72	2
5	430	39427.98	2
5	445	41142.24	1
5	479	42856.5	1
5	511	44570.76	0
5	528	46285.02	0
5	537	47999.28	1
5	549	49713.54	2
5	558	51427.8	0
5	567	53142.06	0
5	581	54856.32	0
5	585	56570.58	1
5	594	58284.84	1
5	603	59999.1	0
5	617	61713.36	1
5	629	63427.62	1
5	646	65141.88	0
5	663	66856.14	2
5	672	68570.4	1
5	689	70284.66	0
5	695	71998.92	0
5	704	73713.18	0
5	713	75427.44	1
5	725	77141.7	2
5	739	78855.96	0
5	764	80570.22	1
5	773	82284.48	1
5	793	83998.74	2
5	810	85713	0
5	816	87427.26	0
5	836	89141.52	2
5	845	90855.78	1
5	859	92570.04	0
5	868	94284.3	0
5	885	95998.56	1
5	902	97712.82	2
5	914	99427.08	1
5	923	101141.34	0
5	948	102855.6	1
5	957	104569.86	0
5	971	106284.12	2
5	975	107998.38	0
5	995	109712.64	1
5	1009	111426.9	1
5	1031	113141.16	2
5	1043	114855.42	0
5	1057	116569.68	0
5	1074	118283.94	1
5	1091	119998.2	2
5	1103	121712.46	1
5	1120	123426.72	1
5	1137	125140.98	0
5	1146	126855.24	1
5	1163	128569.5	0
5	1180	130283.76	2
5	1194	131998.02	1
5	1214	133712.28	1
5	1228	135426.54	0
5	1248	137140.8	1
5	1262	138855.06	2
5	1271	140569.32	1
5	1296	142283.58	0
5	1308	143997.84	1
5	1317	145712.1	1
5	1334	147426.36	1
5	1343	149140.62	0
5	1352	150854.88	0
5	1366	152569.14	1
5	1378	154283.4	1
5	1395	155997.66	2
5	1415	157711.92	2
5	1440	159426.18	1
5	1476	161140.44	2
5	1493	162854.7	2
5	1512	164568.96	0
5	1537	166283.22	1
5	1546	167997.48	0
5	1563	169711.74	1
5	1572	171426	0
5	1586	173140.26	2
5	1598	174854.52	1
5	1618	176568.78	1
5	1646	178283.04	2
5	1663	179997.3	2
5	1690	181711.56	1
5	1712	183425.82	1
5	1732	185140.08	0
5	1738	186854.34	0
5	1755	188568.6	1
5	1767	190282.86	2
5	1787	191997.12	1
5	1817	193711.38	2
5	1829	195425.64	1
5	1851	197139.9	1
5	1868	198854.16	0
5	1885	200568.42	1
5	1886	202282.68	0
5	1900	203996.94	1
5	1904	205711.2	0
5	1913	207425.46	0
5	1919	209139.72	0
5	1945	210853.98	2
5	1959	212568.24	2
5	1976	214282.5	2
5	2006	215996.76	1
5	2026	217711.02	2
5	2051	219425.28	0
5	2078	221139.54	2
5	2082	222853.8	0
5	2104	224568.06	0
5	2113	226282.32	1
5	2117	227996.58	1
5	2123	229710.84	0
5	2148	231425.1	1
5	2160	233139.36	1
5	2180	234853.62	2
5	2199	236567.88	2
5	2227	238282.14	1
5	2252	239996.4	1
5	2269	241710.66	1
5	2283	243424.92	1
5	2309	245139.18	2
5	2326	246853.44	2
5	2347	248567.7	1
5	2364	250281.96	2
5	2386	251996.22	2
5	2421	253710.48	0
5	2448	255424.74	1
5	2467	257139	0
5	2479	258853.26	1
5	2480	260567.52	0
5	2505	262281.78	1
5	2514	263996.04	1
5	2536	265710.3	3
5	2561	267424.56	1
5	2581	269138.82	1
5	2598	270853.08	0
5	2624	272567.34	1
5	2643	274281.6	3
5	2663	275995.86	2
5	2681	277710.12	1
5	2705	279424.38	2
5	2735	281138.64	0
5	2767	282852.9	2
5	2784	284567.16	2
5	2805	286281.42	1
5	2819	287995.68	2
5	2839	289709.94	2
5	2859	291424.2	2
5	2879	293138.46	2
5	2899	294852.72	2
5	2928	296566.98	2
5	2940	298281.24	1
5	2980	299995.5	1
5	2997	301709.76	2
5	3026	303424.02	0
5	3053	305138.28	1
5	3087	306852.54	0
5	3121	308566.8	0
5	3125	310281.06	0
5	3139	311995.32	1
5	3143	313709.58	1
5	3152	315423.84	1
5	3174	317138.1	1
5	3178	318852.36	0
5	3192	320566.62	0
5	3209	322280.88	1
5	3226	323995.14	2
5	3249	325709.4	2
5	3264	327423.66	1
5	3287	329137.92	2
5	3311	330852.18	2
5	3341	332566.44	0
5	3374	334280.7	2
5	3383	335994.96	1
5	3413	337709.22	1
5	3438	339423.48	1
5	3455	341137.74	2
5	3477	342852	1
5	3503	344566.26	2
5	3520	346280.52	2
5	3542	347994.78	2
5	3568	349709.04	1
5	3596	351423.3	1
5	3616	353137.56	2
5	3643	354851.82	2
5	3677	356566.08	2
5	3694	358280.34	2
5	3719	359994.6	1
5	3741	361708.86	2
5	3778	363423.12	0
5	3805	365137.38	0
5	3827	366851.64	1
5	3831	368565.9	1
5	3845	370280.16	1
5	3873	371994.42	2
5	3890	373708.68	1
5	3915	375422.94	1
5	3932	377137.2	1
5	3941	378851.46	0
5	3963	380565.72	1
5	3972	382279.98	1
5	3984	383994.24	1
5	4001	385708.5	0
5	4021	387422.76	2
5	4035	389137.02	2
5	4052	390851.28	0
5	4066	392565.54	0
5	4083	394279.8	2
5	4103	395994.06	1
5	4125	397708.32	2
5	4150	399422.58	1
5	4170	401136.84	1
5	4179	402851.1	1
5	4196	404565.36	0
5	4213	406279.62	1
5	4227	407993.88	1
5	4239	409708.14	1
5	4256	411422.4	1
5	4265	413136.66	0
5	4279	414850.92	0
5	4283	416565.18	1
5	4289	418279.44	0
5	4301	419993.7	1
5	4310	421707.96	1
5	4324	423422.22	0
5	4336	425136.48	1
5	4345	426850.74	0
5	4362	428565	2
5	4379	430279.26	2
5	4405	431993.52	2
6	14	1714.26	0
6	26	3428.52	0
6	35	5142.78	1
6	63	6857.04	1
6	74	8571.3	0
6	94	10285.56	1
6	116	11999.82	2
6	131	13714.08	1
6	154	15428.34	0
6	165	17142.6	0
6	185	18856.86	0
6	208	20571.12	0
6	233	22285.38	2
6	270	23999.64	6
6	295	25713.9	2
6	304	27428.16	1
6	318	29142.42	1
6	335	30856.68	0
6	344	32570.94	1
6	367	34285.2	0
6	390	35999.46	0
6	410	37713.72	0
6	430	39427.98	0
6	445	41142.24	0
6	479	42856.5	5
6	511	44570.76	5
6	528	46285.02	2
6	537	47999.28	0
6	549	49713.54	0
6	558	51427.8	1
6	567	53142.06	1
6	581	54856.32	1
6	585	56570.58	0
6	594	58284.84	0
6	603	59999.1	1
6	617	61713.36	0
6	629	63427.62	1
6	646	65141.88	1
6	663	66856.14	1
6	672	68570.4	0
6	689	70284.66	2
6	695	71998.92	0
6	704	73713.18	1
6	713	75427.44	0
6	725	77141.7	0
6	739	78855.96	1
6	764	80570.22	2
6	773	82284.48	0
6	793	83998.74	1
6	810	85713	2
6	816	87427.26	0
6	836	89141.52	1
6	845	90855.78	0
6	859	92570.04	1
6	868	94284.3	1
6	885	95998.56	1
6	902	97712.82	0
6	914	99427.08	1
6	923	101141.34	1
6	948	102855.6	2
6	957	104569.86	0
6	971	106284.12	0
6	975	107998.38	1
6	995	109712.64	0
6	1009	111426.9	2
6	1031	113141.16	0
6	1043	114855.42	2
6	1057	116569.68	1
6	1074	118283.94	1
6	1091	119998.2	0
6	1103	121712.46	1
6	1120	123426.72	1
6	1137	125140.98	2
6	1146	126855.24	0
6	1163	128569.5	1
6	1180	130283.76	0
6	1194	131998.02	1
6	1214	133712.28	2
6	1228	135426.54	1
6	1248	137140.8	1
6	1262	138855.06	0
6	1271	140569.32	0
6	1296	142283.58	3
6	1308	143997.84	1
6	1317	145712.1	0
6	1334	147426.36	1
6	1343	149140.62	1
6	1352	150854.88	0
6	1366	152569.14	1
6	1378	154283.4	0
6	1395	155997.66	0
6	1415	157711.92	0
6	1440	159426.18	2
6	1476	161140.44	2
6	1493	162854.7	0
6	1512	164568.96	3
6	1537	166283.22	3
6	1546	167997.48	1
6	1563	169711.74	1
6	1572	171426	0
6	1586	173140.26	0
6	1598	174854.52	1
6	1618	176568.78	0
6	1646	178283.04	1
6	1663	179997.3	0
6	1690	181711.56	3
6	1712	183425.82	2
6	1732	185140.08	3
6	1738	186854.34	0
6	1755	188568.6	1
6	1767	190282.86	0
6	1787	191997.12	0
6	1817	193711.38	2
6	1829	195425.64	0
6	1851	197139.9	3
6	1868	198854.16	2
6	1885	200568.42	1
6	1886	202282.68	0
6	1900	203996.94	0
6	1904	205711.2	1
6	1913	207425.46	1
6	1919	209139.72	0
6	1945	210853.98	0
6	1959	212568.24	0
6	1976	214282.5	0
6	2006	215996.76	3
6	2026	217711.02	0
6	2051	219425.28	3
6	2078	221139.54	2
6	2082	222853.8	1
6	2104	224568.06	2
6	2113	226282.32	0
6	2117	227996.58	0
6	2123	229710.84	0
6	2148	231425.1	2
6	2160	233139.36	0
6	2180	234853.62	0
6	2199	236567.88	1
6	2227	238282.14	2
6	2252	239996.4	2
6	2269	241710.66	1
6	2283	243424.92	1
6	2309	245139.18	0
6	2326	246853.44	0
6	2347	248567.7	0
6	2364	250281.96	0
6	2386	251996.22	1
6	2421	253710.48	5
6	2448	255424.74	3
6	2467	257139	3
6	2479	258853.26	1
6	2480	260567.52	0
6	2505	262281.78	1
6	2514	263996.04	0
6	2536	265710.3	0
6	2561	267424.56	2
6	2581	269138.82	2
6	2598	270853.08	2
6	2624	272567.34	0
6	2643	274281.6	0
6	2663	275995.86	0
6	2681	277710.12	0
6	2705	279424.38	2
6	2735	281138.64	4
6	2767	282852.9	0
6	2784	284567.16	0
6	2805	286281.42	0
6	2819	287995.68	0
6	2839	289709.94	0
6	2859	291424.2	0
6	2879	293138.46	0
6	2899	294852.72	0
6	2928	296566.98	0
6	2940	298281.24	0
6	2980	299995.5	5
6	2997	301709.76	0
6	3026	303424.02	5
6	3053	305138.28	3
6	3087	306852.54	6
6	3121	308566.8	6
6	3125	310281.06	1
6	3139	311995.32	0
6	3143	313709.58	0
6	3152	315423.84	0
6	3174	317138.1	1
6	3178	318852.36	1
6	3192	320566.62	1
6	3209	322280.88	1
6	3226	323995.14	0
6	3249	325709.4	0
6	3264	327423.66	0
6	3287	329137.92	0
6	3311	330852.18	2
6	3341	332566.44	4
6	3374	334280.7	2
6	3383	335994.96	0
6	3413	337709.22	3
6	3438	339423.48	2
6	3455	341137.74	1
6	3477	342852	1
6	3503	344566.26	0
6	3520	346280.52	0
6	3542	347994.78	1
6	3568	349709.04	1
6	3596	351423.3	2
6	3616	353137.56	0
6	3643	354851.82	2
6	3677	356566.08	1
6	3694	358280.34	0
6	3719	359994.6	2
6	3741	361708.86	1
6	3778	363423.12	6
6	3805	365137.38	5
6	3827	366851.64	1
6	3831	368565.9	0
6	3845	370280.16	0
6	3873	371994.42	1
6	3890	373708.68	1
6	3915	375422.94	2
6	3932	377137.2	2
6	3941	378851.46	1
6	3963	380565.72	1
6	3972	382279.98	0
6	3984	383994.24	1
6	4001	385708.5	1
6	4021	387422.76	0
6	4035	389137.02	1
6	4052	390851.28	2
6	4066	392565.54	1
6	4083	394279.8	0
6	4103	395994.06	1
6	4125	397708.32	1
6	4150	399422.58	2
6	4170	401136.84	1
6	4179	402851.1	1
6	4196	404565.36	1
6	4213	406279.62	2
6	4227	407993.88	0
6	4239	409708.14	1
6	4256	411422.4	1
6	4265	413136.66	1
6	4279	414850.92	1
6	4283	416565.18	0
6	4289	418279.44	0
6	4301	419993.7	1
6	4310	421707.96	0
6	4324	423422.22	1
6	4336	425136.48	1
6	4345	426850.74	0
6	4362	428565	0
6	4379	430279.26	0
6	4405	431993.52	0
7	10	811.624843626201	1
7	16	1760.839091572871	2
7	24	2929.576545521	3
7	27	4441.165245151683	2
7	36	5372.411109396202	1
7	53	6601.463989382108	2
7	60	6704.689815166447	1
7	65	7526.253574237701	2
7	70	8465.173255624206	3
7	84	9769.930607985711	4
7	86	10116.376957674831	3
7	100	10623.912378986876	2
7	104	11148.370736385789	3
7	111	11968.089310023499	2
7	125	13125.603934335702	1
7	133	14053.964924574817	2
7	141	14892.243669122853	3
7	151	15318.773177966595	2
7	156	16029.780720852547	3
7	161	16980.075970605144	4
7	170	17747.287115340385	5
7	174	17780.910513554505	4
7	181	18606.442150150412	5
7	189	19129.728718666407	4
7	192	19395.757224349627	3
7	196	19571.775214928923	4
7	204	20567.550981137431	5
7	209	21209.31822217567	4
7	212	21329.942672520967	3
7	216	21433.213650659888	4
7	225	21855.918631748946	3
7	259	23700.828543847174	2
7	262	23738.323844585292	1
7	284	24699.362775425563	0
7	291	25310.411101349107	1
7	297	26368.325176694565	2
7	305	28571.179396323176	1
7	323	29837.534338014495	2
7	327	30020.085710148232	1
7	331	30757.205978488339	2
7	352	33222.368736238271	3
7	359	33767.255733180563	2
7	363	34028.466517078385	3
7	368	34303.077894461586	2
7	375	35033.431347286378	3
7	386	35823.015651053241	4
7	395	36727.752473685322	5
7	399	36735.401218121091	4
7	403	37601.798744061545	5
7	411	37874.619001409084	4
7	418	38515.31136840738	5
7	422	38602.234238181582	4
7	426	39400.714593002849	5
7	431	39622.458874175561	4
7	435	40362.561534210682	5
7	439	40519.21983232438	4
7	442	40820.78795859384	3
7	447	41287.163309023121	4
7	471	42549.855174797128	3
7	480	42948.811382839861	2
7	503	44157.33254395554	1
7	515	45106.387234469972	0
7	530	47011.809658510086	1
7	542	48631.091353628688	2
7	547	49552.624319303036	3
7	550	50781.073920059214	2
7	559	51783.222273984132	1
7	568	53153.539300251327	0
7	583	55100.126620584151	1
7	592	58138.370326225364	2
7	595	58818.51416653508	1
7	613	61095.268802826774	2
7	619	62096.625450035653	3
7	621	62379.336474119479	2
7	630	64257.311449514326	1
7	648	65443.704111019266	2
7	652	65632.238438293934	1
7	656	66336.532434665269	2
7	670	67944.119813881274	3
7	673	69282.778328587932	2
7	681	69815.05011512458	1
7	690	71843.361669574438	0
7	706	74525.018117741024	1
7	715	75780.17086481075	2
7	723	76822.87896786608	3
7	726	78284.655650371762	2
7	740	79421.220827204712	1
7	744	79580.014946849297	2
7	748	79808.163226486414	1
7	766	81150.331112277452	2
7	775	82456.80130165272	3
7	782	83375.811254181807	2
7	786	83591.363404646247	3
7	794	84674.767075371187	2
7	802	85390.448283565874	1
7	818	87504.294533646617	2
7	820	87690.933537173819	1
7	834	88816.513961528867	2
7	843	90587.112344429963	3
7	846	91094.217264893007	2
7	854	92464.958795386637	1
7	869	94414.15242329187	0
7	873	95179.820376723347	1
7	890	96495.573668749792	2
7	898	97368.877641912633	3
7	903	98210.226481469304	2
7	907	98223.229231081397	3
7	915	100274.79097896032	2
7	924	101332.051688480701	1
7	937	102472.349698058579	0
7	941	102495.819495235062	1
7	959	104643.629549082779	2
7	964	105574.445248390975	3
7	966	106022.851089297202	2
7	985	108991.889417550608	3
7	989	109206.906333652145	2
7	992	109257.429282235765	1
7	997	110037.486677161016	2
7	1019	112293.933045699083	3
7	1023	112323.350526726275	2
7	1027	113117.732147760805	3
7	1035	113635.198071004873	2
7	1044	115984.090155780284	1
7	1052	116495.999437871738	0
7	1070	117705.037393937163	1
7	1076	118550.40057395024	2
7	1087	119787.089561244625	3
7	1093	120644.842864233932	4
7	1095	121033.382603985932	3
7	1104	122143.638308565704	2
7	1118	123311.172329935826	3
7	1121	123817.376415580753	2
7	1129	124454.269403737437	1
7	1144	126291.801047041416	2
7	1147	127434.833886084508	1
7	1168	128802.9041629252	2
7	1173	129700.20811979404	3
7	1177	130135.201673754574	2
7	1182	130634.708444497282	3
7	1196	132164.242101112489	4
7	1198	132376.982914796	3
7	1206	133019.089198576492	2
7	1215	134871.313922919501	1
7	1220	134888.554633204187	0
7	1244	136455.707048040444	1
7	1250	137307.091628974484	2
7	1258	138202.799316333402	3
7	1264	139091.449117472184	4
7	1266	140482.268314382087	3
7	1275	140884.050001323862	2
7	1283	141564.08554761407	1
7	1297	142666.889371575148	0
7	1301	142990.94745027092	1
7	1315	144980.261161831372	2
7	1323	146767.431826637744	1
7	1327	146912.601058095706	2
7	1335	147946.301551122956	1
7	1349	150565.163935329112	0
7	1354	151431.332780393811	1
7	1368	153064.304714967558	2
7	1379	154480.785008014261	1
7	1383	154685.899855117223	2
7	1391	155481.318005355804	3
7	1400	156262.630645350671	4
7	1407	157147.011815601085	3
7	1411	157302.118972040769	4
7	1417	158177.958807047668	5
7	1421	158278.741706891729	4
7	1437	159111.295197295276	3
7	1442	159471.39201706649	4
7	1449	159635.586945849782	3
7	1458	160769.64465051844	4
7	1462	160843.835746675437	3
7	1473	161130.271965396941	2
7	1481	161979.506714168983	3
7	1485	162264.507649095761	2
7	1489	162849.918160666267	3
7	1513	164572.948526399777	2
7	1517	164632.357527548638	3
7	1529	165729.521112979084	2
7	1538	166318.181486861365	1
7	1547	168334.108428736693	0
7	1561	169373.660626258772	1
7	1574	171604.725799410091	2
7	1579	172493.830105512677	3
7	1581	173004.865492127378	2
7	1596	174441.200901552451	3
7	1607	175165.705745337924	2
7	1610	175699.928958488071	1
7	1614	175848.100200302729	2
7	1620	176811.047902505223	3
7	1635	177815.476236135727	2
7	1639	178054.570578914325	3
7	1651	178940.090751162064	4
7	1655	179007.341403620992	3
7	1659	179831.067382429051	4
7	1665	180742.710476576133	5
7	1669	180971.296572287788	4
7	1682	181459.815348845142	3
7	1704	183067.078339158453	2
7	1708	183302.090137552442	3
7	1713	183532.662550993829	2
7	1724	184590.278638786725	1
7	1733	186599.60798026089	0
7	1751	188257.308305597919	1
7	1760	189169.296522426859	2
7	1765	190082.933639590084	3
7	1777	191319.886932311994	4
7	1781	191704.119250394263	3
7	1784	191768.29376380212	2
7	1789	192222.433317096206	3
7	1809	193430.062475580222	2
7	1813	193667.917800578762	3
7	1822	194617.896054231632	4
7	1826	195371.990226091188	3
7	1831	195552.898836247315	4
7	1835	195759.554442566182	3
7	1852	197642.482108467706	2
7	1860	198150.417953500164	1
7	1874	199187.132525947125	0
7	1878	200042.948341955417	1
7	1893	203340.728952177195	2
7	1895	203869.101245211652	1
7	1905	206868.341316611296	0
7	1921	209419.675623552848	1
7	1932	210211.793960950694	2
7	1947	211083.279679531202	3
7	1955	212070.486036810037	4
7	1961	212825.800689637494	5
7	1965	213130.474857692433	4
7	1969	213795.778273898989	5
7	1973	213873.434578188641	4
7	1978	214743.426255097565	5
7	1987	215204.129471212011	4
7	2007	216142.475216083416	3
7	2010	216288.831794911751	2
7	2014	216538.160088961503	3
7	2018	216991.526982822286	2
7	2022	217542.695206517682	3
7	2037	218222.612612500518	2
7	2053	219507.140613168797	3
7	2057	220237.387150848361	2
7	2061	220380.840201946436	3
7	2073	221112.223705086666	2
7	2083	222903.470353983202	1
7	2091	223467.225034199708	0
7	2106	224881.474570601242	1
7	2115	226983.145999562642	2
7	2118	229672.753641538016	1
7	2127	230128.679226627406	0
7	2141	231223.981827347247	1
7	2156	232420.057744647865	2
7	2162	233387.018176817906	3
7	2173	234290.282057956872	4
7	2177	234586.233492150302	3
7	2182	235238.978038106963	4
7	2186	235773.386217410187	3
7	2190	235993.361403893562	4
7	2208	236913.095661467478	3
7	2212	237646.480798136618	4
7	2219	238144.559650255315	3
7	2233	238769.639327895213	2
7	2237	239310.052131506746	3
7	2244	239953.422607389715	2
7	2262	241160.798492470952	3
7	2266	241710.51696863142	2
7	2271	242140.214373133828	3
7	2284	243577.506946442316	2
7	2291	243633.493970375772	3
7	2299	244662.998433023977	4
7	2303	244949.134468287232	3
7	2311	245740.256760186772	4
7	2315	245829.859292403179	3
7	2322	246691.945895775716	4
7	2333	247481.607933146262	3
7	2337	247661.781606551786	4
7	2344	248532.369150019655	3
7	2349	248648.200992368564	4
7	2354	249546.99513099254	5
7	2358	249607.381857491616	4
7	2365	250289.854313885533	3
7	2369	250504.656780167456	4
7	2373	251340.626149554011	3
7	2377	251495.391155183242	4
7	2397	252704.090054897054	3
7	2405	253048.611093023455	2
7	2422	254217.739571256527	1
7	2426	254371.999959916993	2
7	2435	254796.139624283109	1
7	2469	257221.479468417897	2
7	2471	257627.671564857358	1
7	2481	260677.595928060159	0
7	2498	261968.385162672461	1
7	2507	262907.170540640835	2
7	2519	264014.34608264213	3
7	2527	264849.705869724851	4
7	2532	265643.340801125983	5
7	2537	266128.249582432145	4
7	2540	266334.30024132847	3
7	2544	266490.504498385262	4
7	2563	268065.17987389914	5
7	2565	268298.248264930898	4
7	2573	268687.076275623411	3
7	2582	269175.704078675267	2
7	2590	270018.023685179147	1
7	2610	271875.308879525619	0
7	2614	272031.72555666026	1
7	2626	272812.400530472507	2
7	2631	273520.454302025766	3
7	2639	274225.478758006824	4
7	2651	275164.063975757083	5
7	2655	275168.75642808993	4
7	2659	275989.345583614116	5
7	2664	276367.316326624218	4
7	2671	276926.547080141964	5
7	2675	277232.109346398565	4
7	2678	277646.09297371172	3
7	2683	277888.496793364227	4
7	2687	278679.213521349493	3
7	2691	278777.479998451244	4
7	2716	280120.751846305218	3
7	2732	280926.459803531324	2
7	2736	281145.594107041595	1
7	2746	281690.870311275863	2
7	2750	282431.197076119056	1
7	2760	282582.323958835444	2
7	2772	283441.137741405866	3
7	2780	284488.46066168207	4
7	2785	284979.451882492562	3
7	2789	285549.578098958373	4
7	2802	286280.347295051496	3
7	2807	286458.265641223721	4
7	2811	287317.693921294077	3
7	2815	287379.349770567381	4
7	2821	288247.637471222788	5
7	2825	288481.368712986825	4
7	2828	289105.231470307524	3
7	2832	289331.240124929534	4
7	2843	289955.15464682038	3
7	2847	290230.919591340988	4
7	2851	291058.227615331807	3
7	2855	291081.568429781398	4
7	2861	291926.388201638903	5
7	2868	292585.449622094409	4
7	2871	292697.509286282728	3
7	2875	292767.883639015727	4
7	2886	293714.004198615236	3
7	2890	293747.784002652375	4
7	2895	294757.045898750632	5
7	2900	295006.169251305262	4
7	2903	295038.386320274895	3
7	2910	295584.512593982613	4
7	2914	295928.467095381823	3
7	2924	296483.194938470454	4
7	2929	297178.628024417779	3
7	2933	297417.788595695124	4
7	2937	297718.695782470782	3
7	2942	298321.74256568752	4
7	2956	299013.97951334654	3
7	2977	299926.436394927754	2
7	2985	300669.302310475467	3
7	2989	300989.828740312009	2
7	2993	301674.099458775484	3
7	2998	301926.341606506599	2
7	3040	304149.446582258863	1
7	3049	304899.059410865617	2
7	3069	305796.624416403988	1
7	3113	308029.572076823341	0
7	3135	311768.553432291911	1
7	3141	312818.006254653678	2
7	3150	315211.44504283545	3
7	3153	315482.741491158442	2
7	3166	316948.27428477803	1
7	3170	316978.122932144062	2
7	3179	319056.627741689822	1
7	3187	320386.679850383541	0
7	3205	321804.420342559736	1
7	3211	322763.538182541127	2
7	3222	323878.359528540035	3
7	3231	324713.154303957658	4
7	3238	325234.442661339245	3
7	3245	325503.112273277159	4
7	3250	326461.033454417037	3
7	3254	326676.266122104731	4
7	3258	327335.802468278571	3
7	3269	327513.47319402483	4
7	3276	327775.806259224969	3
7	3280	328430.647410108081	4
7	3284	328751.314874612047	3
7	3289	329279.922934770367	4
7	3293	329936.802059343759	3
7	3297	330265.884716655142	4
7	3312	331032.317968415894	3
7	3330	331851.529131767339	2
7	3343	332840.904245111123	3
7	3350	332977.963742584725	2
7	3358	333730.14466942274	1
7	3362	333987.26867564957	2
7	3379	335154.348496804675	3
7	3385	336076.867141903456	4
7	3389	336327.561742652249	3
7	3410	337502.708902681415	2
7	3415	337866.681374528317	3
7	3422	338413.114942273931	2
7	3435	338952.162863848027	1
7	3440	339570.679738196649	2
7	3453	340703.94797422369	3
7	3456	341359.991471336001	2
7	3470	342499.390425141008	3
7	3478	343429.882048014262	2
7	3485	343543.200420711258	3
7	3496	344443.48405677787	4
7	3500	344506.18354973274	3
7	3508	345228.115581415588	4
7	3512	345807.4470439352	3
7	3516	345942.300447443236	4
7	3522	346744.67018096282	5
7	3526	346865.650126152495	4
7	3538	347848.135756727263	5
7	3546	348124.389253961234	4
7	3557	349086.073935552278	3
7	3561	349106.851968607085	4
7	3565	349185.998741212135	3
7	3570	350002.770607543143	4
7	3574	350122.304923268863	3
7	3593	351393.656556862784	2
7	3598	351491.996960731461	3
7	3608	352040.671154769246	2
7	3612	352447.640743800521	3
7	3618	353160.322865910812	4
7	3622	353766.787737659884	3
7	3626	354017.725984369685	4
7	3652	355459.578517936218	3
7	3656	355593.084554515256	4
7	3666	356022.320337117932	3
7	3669	356307.151045208612	2
7	3673	356432.734379957505	3
7	3678	357153.2342081969	2
7	3682	357225.125383884424	3
7	3690	358080.058761595487	4
7	3695	359075.443016831254	3
7	3699	359171.353361585142	4
7	3716	359793.094073023896	3
7	3721	360472.989135628504	4
7	3733	361264.376304249551	3
7	3737	361697.217444664708	4
7	3752	362358.734536030271	3
7	3755	362411.75430245833	2
7	3789	363977.944131245921	1
7	3811	365701.627764638523	0
7	3815	366024.0520980063	1
7	3829	367466.486396173242	2
7	3841	369742.019069801681	3
7	3846	370296.67631603562	2
7	3853	370587.270298010886	3
7	3857	371289.052474751996	2
7	3861	371407.970710831481	3
7	3883	372887.00794132025	4
7	3887	373661.339242344383	3
7	3892	373915.741248245515	4
7	3896	374090.614434850371	3
7	3912	375227.384884024544	2
7	3917	375811.706917866414	3
7	3921	376087.771392810523	2
7	3933	377548.357608959758	1
7	3947	379063.279625171494	0
7	3951	379702.767328361502	1
7	3965	380851.055239140517	2
7	3974	382507.599384816588	3
7	3976	383224.428066061119	2
7	3985	384568.692086236492	1
7	3998	385390.347719031064	0
7	4006	385989.261765909296	1
7	4014	386813.930364107249	2
7	4023	387766.601804027394	3
7	4028	388669.9752968309	4
7	4036	389581.980437882228	3
7	4044	390095.611382293967	2
7	4053	391073.72909575783	1
7	4067	392660.97099364401	0
7	4074	393015.317880075864	1
7	4079	394031.75064034206	2
7	4096	395170.38612164468	3
7	4105	396199.205828548887	4
7	4109	396416.517352520065	3
7	4113	397105.373597042421	4
7	4120	397583.765718583169	3
7	4129	398318.372811185048	2
7	4142	399336.39503810158	1
7	4146	399398.758301165043	2
7	4163	400729.329126759796	3
7	4167	401060.368268526874	2
7	4172	401497.212421707126	3
7	4180	403137.559044153462	2
7	4193	404491.690302081376	1
7	4197	404648.958546105988	0
7	4201	404865.460192276516	1
7	4223	407651.675031313268	2
7	4229	408568.070254027498	3
7	4231	408740.654190336001	2
7	4246	410838.13750492116	3
7	4248	410862.084118522663	2
7	4257	412557.000272199502	1
7	4266	414388.869544191723	0
7	4281	415748.755654106852	1
7	4291	418760.749354143749	2
7	4293	418966.51564361828	1
7	4308	421581.603799654155	2
7	4311	422528.690206145669	1
7	4326	423618.823775231551	2
7	4328	424887.567073093457	1
7	4347	427132.831689939638	2
7	4351	427186.762645530678	1
7	4358	428040.991495397957	2
7	4367	429107.650834119289	3
7	4375	429962.934055271801	4
7	4380	430282.67796996895	3
7	4387	430906.139745498521	4
7	4394	431391.661161942123	3
7	4398	431670.473283461025	4
