file 76040 1483972183                                           
version 2
run WarmupMeasurement-18-20170109-15:29:43-1576
attr configname WarmupMeasurement
attr datetime 20170109-15:29:43
attr experiment WarmupMeasurement
attr inifile responseStudy.ini
attr iterationvars ""
attr iterationvars2 $repetition=18
attr measurement ""
attr network controltower.SimNetwork
attr processid 1576
attr repetition 18
attr replication #18
attr resultdir results
attr runnumber 18
attr seedset 18
param SimNetwork.a.parkingLot.parkingDelay "truncnormal(60min, 6min)"
param SimNetwork.a.runway.landingTime "truncnormal(15min, 1.5min)"
param SimNetwork.a.runway.takeoffTime "truncnormal(5min, 0.5min)"
param SimNetwork.a.runway.throughputCheckInterval 28.571min
param SimNetwork.wg.interArrivalTime exponential(28.571min)

vector 5  SimNetwork.a.runway  landedThroughput:vector  ETV
attr source  landedThroughputSignal
vector 6  SimNetwork.a.runway  tookoffThroughput:vector  ETV
attr source  tookoffThroughputSignal
vector 2  SimNetwork.a.landingQueue  queueLength:vector  ETV
attr source  queueLengthSignal
vector 1  SimNetwork.a.landingQueue  queueTime:vector  ETV
attr source  queueTimeSignal
vector 7  SimNetwork.a.parkingLot  parkingOccupancy:vector  ETV
attr source  parkingOccupancy
vector 4  SimNetwork.a.takeoffQueue  queueLength:vector  ETV
attr source  queueLengthSignal
vector 3  SimNetwork.a.takeoffQueue  queueTime:vector  ETV
attr source  queueTimeSignal
vector 0  SimNetwork.wg  responseTime:vector  ETV
attr source  responseTimeSignal
0	1474 9386 46 3880 7720.009354847906 430039.286566846938 222 4909.9051929979 17478.088887127 1919512.7063485 18030602466.296
1	10860 8662 5 3894 1801.50205772662 431006.646504031587 232 0 2648.3558479025 99337.092591526 110053378.32311
2	19522 13155 3 3894 1801.50205772662 431006.646504031587 464 0 4 328 464
3	32677 8283 43 3902 7404.788409193544 431794.680864703674 223 0 11264.334243758 345167.69497258 1665189115.9268
4	40960 12838 29 3905 6316.094312644201 431956.029933784152 452 0 11 780 3582
5	53798 4584 1 3907 1714.26 431993.52 252 0 3 232 364
6	58382 4584 1 3907 1714.26 431993.52 252 0 5 222 508
7	62966 13074 11 3904 2604.127839260502 431956.029933784152 461 0 5 1101 3435
