file 81643 1483972185                                           
version 2
run WarmupMeasurement-23-20170109-15:29:45-1581
attr configname WarmupMeasurement
attr datetime 20170109-15:29:45
attr experiment WarmupMeasurement
attr inifile responseStudy.ini
attr iterationvars ""
attr iterationvars2 $repetition=23
attr measurement ""
attr network controltower.SimNetwork
attr processid 1581
attr repetition 23
attr replication #23
attr resultdir results
attr runnumber 23
attr seedset 23
param SimNetwork.a.parkingLot.parkingDelay "truncnormal(60min, 6min)"
param SimNetwork.a.runway.landingTime "truncnormal(15min, 1.5min)"
param SimNetwork.a.runway.takeoffTime "truncnormal(5min, 0.5min)"
param SimNetwork.a.runway.throughputCheckInterval 28.571min
param SimNetwork.wg.interArrivalTime exponential(28.571min)

vector 2  SimNetwork.a.landingQueue  queueLength:vector  ETV
attr source  queueLengthSignal
vector 1  SimNetwork.a.landingQueue  queueTime:vector  ETV
attr source  queueTimeSignal
vector 5  SimNetwork.a.runway  landedThroughput:vector  ETV
attr source  landedThroughputSignal
vector 6  SimNetwork.a.runway  tookoffThroughput:vector  ETV
attr source  tookoffThroughputSignal
vector 7  SimNetwork.a.parkingLot  parkingOccupancy:vector  ETV
attr source  parkingOccupancy
vector 4  SimNetwork.a.takeoffQueue  queueLength:vector  ETV
attr source  queueLengthSignal
vector 3  SimNetwork.a.takeoffQueue  queueTime:vector  ETV
attr source  queueTimeSignal
vector 0  SimNetwork.wg  responseTime:vector  ETV
attr source  responseTimeSignal
0	1474 10318 59 4169 7869.318999768935 429426.553487118918 244 5118.2348417087 18875.861326663 2212270.46859 22134505233.01
1	11792 9500 4 4175 1248.59078714753 430765.2299632922 247 0 3176.1277961111 130834.87421106 176541022.63852
2	21292 14024 2 4186 1248.59078714753 431842.053757141022 495 0 4 394 628
3	35316 9238 56 4183 7543.786936552436 431689.289644729166 245 0 10185.814076592 487074.5312092 2584125252.4999
4	44554 13932 42 4183 5956.459618132768 431689.289644729166 490 0 11 991 5081
5	58486 4594 6 4188 1714.26 431993.52 252 0 2 247 391
6	63080 4594 6 4188 1714.26 431993.52 252 0 6 244 644
7	67674 13969 8 4181 2235.230389143987 431689.289644729166 492 0 5 1230 3830
