file 338785 1483966354                                          
version 2
run QueueMeasurement-5-20170109-13:52:33-3328
attr configname QueueMeasurement
attr datetime 20170109-13:52:33
attr experiment QueueMeasurement
attr inifile queueStudy.ini
attr iterationvars ""
attr iterationvars2 $repetition=5
attr measurement ""
attr network controltower.SimNetwork
attr processid 3328
attr repetition 5
attr replication #5
attr resultdir results
attr runnumber 5
attr seedset 5
param SimNetwork.a.parkingLot.parkingDelay "truncnormal(45min, 5 min)"
param SimNetwork.a.runway.landingTime "truncnormal(5min, 0.5min)"
param SimNetwork.a.runway.takeoffTime "truncnormal(5min, 0.5min)"
param SimNetwork.a.runway.throughputCheckInterval 14.256min
param SimNetwork.wg.interArrivalTime exponential(14.256min)

vector 5  SimNetwork.a.runway  landedThroughput:vector  ETV
attr source  landedThroughputSignal
vector 6  SimNetwork.a.runway  tookoffThroughput:vector  ETV
attr source  tookoffThroughputSignal
vector 0  SimNetwork.wg  responseTime:vector  ETV
attr source  responseTimeSignal
vector 7  SimNetwork.a.parkingLot  parkingOccupancy:vector  ETV
attr source  parkingOccupancy
vector 4  SimNetwork.a.takeoffQueue  queueLength:vector  ETV
attr source  queueLengthSignal
vector 3  SimNetwork.a.takeoffQueue  queueTime:vector  ETV
attr source  queueTimeSignal
vector 2  SimNetwork.a.landingQueue  queueLength:vector  ETV
attr source  queueLengthSignal
vector 1  SimNetwork.a.landingQueue  queueTime:vector  ETV
attr source  queueTimeSignal
0	1462 43257 1034 18123 50511.933607933429 950077.480162175803 1002 2367.4447293718 10237.627108117 4837336.6510869 24483358385.728
1	44719 38806 1067 18125 51912.880069076453 950077.480162175803 1004 0 982.56147563451 149708.61833762 49044116.684041
2	83525 58815 1059 18125 51777.855544856051 950077.480162175803 2008 0 4 1320 1728
3	142340 38578 1039 18134 50630.78175500307 950378.045821169254 1002 0 4748.1344980235 480098.41595323 763380322.50177
4	180918 58748 1037 18134 50630.78175500307 950378.045821169254 2005 0 9 2169 6279
5	239666 20157 1032 18130 50466.24 950304.96 1053 0 4 1004 1824
6	259823 20157 1032 18130 50466.24 950304.96 1053 0 4 1004 1772
7	279980 58805 1036 18132 50630.78175500307 950378.045821169254 2007 0 9 6966 29892
