version 2
run QueueMeasurement-87-20170109-13:53:19-3485
attr configname QueueMeasurement
attr datetime 20170109-13:53:19
attr experiment QueueMeasurement
attr inifile queueStudy.ini
attr iterationvars ""
attr iterationvars2 $repetition=87
attr measurement ""
attr network controltower.SimNetwork
attr processid 3485
attr repetition 87
attr replication #87
attr resultdir results
attr runnumber 87
attr seedset 87
param SimNetwork.a.parkingLot.parkingDelay "truncnormal(45min, 5 min)"
param SimNetwork.a.runway.landingTime "truncnormal(5min, 0.5min)"
param SimNetwork.a.runway.takeoffTime "truncnormal(5min, 0.5min)"
param SimNetwork.a.runway.throughputCheckInterval 14.256min
param SimNetwork.wg.interArrivalTime exponential(14.256min)

vector 5  SimNetwork.a.runway  landedThroughput:vector  ETV
attr source  landedThroughputSignal
vector 6  SimNetwork.a.runway  tookoffThroughput:vector  ETV
attr source  tookoffThroughputSignal
vector 7  SimNetwork.a.parkingLot  parkingOccupancy:vector  ETV
attr source  parkingOccupancy
vector 4  SimNetwork.a.takeoffQueue  queueLength:vector  ETV
attr source  queueLengthSignal
vector 3  SimNetwork.a.takeoffQueue  queueTime:vector  ETV
attr source  queueTimeSignal
vector 0  SimNetwork.wg  responseTime:vector  ETV
attr source  responseTimeSignal
vector 2  SimNetwork.a.landingQueue  queueLength:vector  ETV
attr source  queueLengthSignal
vector 1  SimNetwork.a.landingQueue  queueTime:vector  ETV
attr source  queueTimeSignal
0	884	50793.246753281353	7374.8853171121
0	892	51120.811974347123	6930.2220510018
0	904	51408.795822461191	6222.9071895114
0	912	51696.541743857024	5908.5202556043
0	937	52636.545212703305	5910.832170563
0	945	52956.297696207148	5891.3491048206
0	954	53253.474366344978	5951.4039462456
0	970	53849.914384639944	6508.4155942716
0	981	54380.721694055485	5947.12766679
0	986	54706.719034365693	7264.3805321504
0	995	54979.46446627441	7306.6997424568
0	1003	55323.103784259175	6544.8155981163
0	1009	55622.753056445759	6431.0553289095
0	1017	55907.347471489055	6412.0282248669
0	1027	56438.027508274932	6344.6321090128
0	1036	56718.86345667278	5151.6314643088
0	1044	57017.501569428585	5236.7351858849
0	1075	58164.717179046191	5165.757658897
0	1088	59894.710955000083	6230.2554632584
0	1093	60169.305693003499	4452.5339805745
0	1107	60657.233502263398	3683.9464602449
0	1121	61229.785544401749	3983.3584523674
0	1178	64473.231771433668	7013.733534331
0	1192	64852.298002381213	4502.3745790942
0	1229	66012.549930377091	5033.9580951824
0	1234	66322.242855225648	4500.1047531717
0	1242	66587.696023628675	4555.094350653
0	1253	67182.008878520566	4645.5775973418
0	1268	67594.837852205788	4548.9894661481
0	1293	68467.653269426136	4528.0929418029
0	1306	69001.334024225318	4207.1542266174
0	1321	69292.762757129942	4313.120482744
0	1382	71481.341592663242	6276.9888822044
0	1404	72340.091179706026	6008.759943603
0	1409	72663.709185785703	4861.6793722026
0	1421	73027.4649719523	5594.4936397565
0	1429	73308.012667852387	4946.6727385435
0	1438	73597.090841484601	4549.580289164
0	1443	73891.571677171581	4714.3139688085
0	1448	74201.926769223998	4537.967008069
0	1460	74502.274114083655	5247.7904345092
0	1479	75124.79494202816	5174.7446353203
0	1490	75650.028575753993	4371.2891789461
0	1495	75949.49926446846	5916.3260723447
0	1533	78263.951667202992	6621.4719727789
0	1541	78594.560899300194	4306.9115234709
0	1561	79544.070318804336	3239.0354345131
0	1567	79871.36838583784	3566.3925925852
0	1572	80194.576839730322	5201.0954142298
0	1609	81905.838366452356	5305.6626350527
0	1671	84107.781370215596	5624.7344037901
0	1679	84432.563518076924	4226.5779944006
0	1716	85620.466614676404	5081.0935709224
0	1721	85892.637411483501	4816.4818952803
0	1732	86171.118489668931	4036.3562884977
0	1749	86785.616259487643	4971.9011336297
0	1754	87013.780387122263	4754.7967100123
0	1760	87288.448723823522	5072.141616986
0	1771	87602.672023770646	4642.8126696812
0	1776	87918.607124085517	4464.8665005424
0	1785	88257.288758840814	3830.3897309649
0	1790	88529.382607976826	4087.1890473314
0	1810	89313.560248443077	4503.8213899152
0	1865	92595.133205009497	3986.0532806235
0	1870	92915.375861937991	6814.5441541446
0	1878	93207.663329130659	4143.5215268944
0	1895	93894.965823299693	4439.1023613877
0	1912	94709.847593076944	3336.8834229325
0	1918	95025.289523265307	5145.1193857644
0	1963	96921.290771989471	4997.3432855933
0	1971	97256.126578488931	4207.4675604243
0	1996	98333.75515740919	3033.4908752751
0	2005	98667.246130756731	4775.7163667158
0	2022	99489.856867992117	3697.1294471093
0	2027	99789.31462886876	4058.8590406827
0	2036	100615.465733215328	4741.0053097474
0	2045	101079.34149284427	3950.6373320127
0	2062	102500.868545717298	4769.0273007035
0	2082	105727.1738623549	7082.5261211122
0	2093	108300.168902250982	6411.767732477
0	2165	112194.122116243109	3810.4179251761
0	2173	112447.24557674734	7581.5934857395
0	2178	112704.572407571615	4218.1204680368
0	2191	113781.941272352064	3241.4234364458
0	2196	114100.074999386737	5581.4071702719
0	2216	114792.868092477791	4157.1620915236
0	2221	115106.13326825524	3769.6511951437
0	2250	117046.64046155453	5586.7687856716
0	2273	118586.36856276577	4353.5895082517
0	2282	119131.581478505006	3321.5884570053
0	2302	120257.128433752105	4367.2713155798
0	2332	121406.848734050856	4546.8905754102
0	2376	123977.050253274289	6285.6667192577
0	2382	124311.035388133425	4269.2713822883
0	2387	124566.861170503599	4847.6301734876
0	2395	124836.567232804986	4536.8001573358
0	2410	126035.679773972946	5376.5002555052
0	2418	126397.205220812451	3635.6451333514
0	2427	127181.064202562239	4287.2499427634
0	2452	128261.292439158641	5361.2282461607
0	2487	130670.972374710942	3468.4761176985
0	2496	131288.913908599385	6652.2420840106
0	2505	132215.737977809882	4971.8178070425
0	2525	132881.850956227575	3760.9263214815
0	2530	133199.013454798261	4088.6086835232
0	2590	136061.021370313795	6569.0329285361
0	2598	136639.089535715707	4379.5911708983
0	2607	137271.0585557078	3752.3213882746
0	2616	137794.879524564513	3765.9138716457
0	2630	138220.000907491592	3365.8658860737
0	2635	138478.492697779983	4449.251059304
0	2644	138810.918882728646	3904.7932741999
0	2696	142353.205350363284	7252.4098146554
0	2701	142679.667610017286	4150.0941604224
0	2732	143625.63214369445	4549.1032257169
0	2738	143934.749966852505	3710.0295060073
0	2746	144239.24470405202	5021.94352284
0	2761	145736.255704287854	4975.3228106773
0	2789	146839.669399977952	4099.6359142724
0	2795	147156.576504181599	4338.9284489818
0	2812	148695.981247650117	4468.1849507744
0	2824	149028.29808770464	3188.7168084564
0	2867	151488.114155719516	5263.6480016998
0	2931	153818.868433218758	5979.7295344085
0	2937	154114.526957677097	5258.7027786643
0	2942	154393.645815255069	4844.1516795722
0	2950	154690.096140984308	5076.6330923717
0	2962	154993.189330008561	3630.0284259737
0	2967	155286.658618879058	5033.6093517424
0	2972	155645.690212300995	3641.7325018423
0	2984	155952.863366739785	3820.9203701453
0	2992	156256.19969800582	3927.7725823609
0	2998	156536.780588080551	4162.3557855988
0	3066	160337.699188213219	7477.0129549182
0	3086	161195.199710371252	4479.1625178384
0	3112	161787.351681354275	4180.5102517633
0	3134	162629.35802474938	5031.4975304016
0	3150	163176.884126026646	5263.286273077
0	3156	163479.897677201385	5620.7669936726
0	3167	163806.550041145886	4029.70778004
0	3181	164398.240685344685	5651.8162989273
0	3194	165001.010498727933	4576.726615555
0	3206	165341.08309032712	4223.6586525652
0	3219	165900.06282945099	4296.062457622
0	3225	166244.821234975584	4569.9184704187
0	3270	167894.011141708668	5285.4513232733
0	3275	168232.122361064404	4656.9158430838
0	3284	168610.444237366584	4401.4400473653
0	3312	169971.962045042719	3527.173950035
0	3321	170295.358424766411	5109.7305112368
0	3329	170604.502301432694	3877.1088515668
0	3334	170897.740195491147	3997.3160263356
0	3346	171595.882299823339	4643.3418484176
0	3377	172854.284041267989	4185.7764921068
0	3395	174640.067317834218	5295.458658089
0	3403	174947.88767041386	3464.0828233706
0	3411	175264.934179504306	3306.274138374
0	3429	176834.747592361831	4655.3476092759
0	3466	178489.311478375367	4799.787351755
0	3492	179652.1438112433	4076.9677697154
0	3509	180992.92480119637	4153.2594438448
0	3514	181256.066556384897	3705.2470396391
0	3526	182042.744285771498	4267.9385449589
0	3532	182361.106579361912	3906.508703802
0	3557	183381.597230622113	4287.1580756441
0	3574	185745.051697991565	6148.90109386
0	3587	186278.607077962097	3750.6367121355
0	3631	189286.592270625327	3792.6268380288
0	3636	189649.359168308715	6896.9269883187
0	3645	190096.873174178255	3920.2709463453
0	3653	190484.238363516123	3889.6997725884
0	3665	190964.553956942101	4332.966683683
0	3725	194398.164052186089	7750.7022090969
0	3733	194722.813852320015	3981.2983594409
0	3750	195332.364674144496	4187.1141278955
0	3769	195866.515291508236	3595.0668610736
0	3775	196179.664573223869	4473.546546519
0	3783	196538.456752940105	4457.4862553648
0	3806	198324.766784002666	5930.946420801
0	3818	198843.394751314837	4265.4820989423
0	3848	200019.767099008061	4975.6317853437
0	3866	201053.407834052765	4815.9269502299
0	3914	202735.539091897608	5040.2014733033
0	3922	203027.479198236919	4384.6992088907
0	3930	203341.636595493057	4223.8296535679
0	3944	203921.43573598383	4541.6838453182
0	3961	204839.086765927835	3526.6716238302
0	3972	205110.916094062057	4776.0159582635
0	3989	205736.493402037623	4297.8008153493
0	4000	206337.806029895622	4785.8749521792
0	4011	206674.162071740556	4823.9424023856
0	4016	206993.091426331652	3852.2112992597
0	4058	209601.152727761111	5948.8647209028
0	4080	210523.951803477495	5512.9385167152
0	4094	211445.09760448145	5939.6665451641
0	4119	212098.321177808154	3662.7474459757
0	4150	213328.789512738155	4820.106629258
0	4161	213676.488843796757	4674.1948812837
0	4172	214350.009662597316	4768.7475262987
0	4180	214648.420014716201	5043.6442009948
0	4189	214931.384316676003	4470.3198603688
0	4217	215774.060285201826	4228.7226360511
0	4222	216073.219279152816	4144.8687002851
0	4227	216360.486274310943	4361.4185999273
0	4239	216733.445232468326	4426.529691547
0	4270	218156.946162399134	4746.5912465056
0	4278	218745.762498434891	3979.5408712547
0	4287	219801.403975901846	4847.5834857799
0	4305	220354.783530752291	3879.2539611971
0	4332	221500.809750603454	4447.2509384594
0	4359	223551.269364208211	3413.3804760186
0	4387	224416.915790800472	4364.0218861982
0	4401	225071.53996998798	7819.6643786097
0	4406	225365.305170813002	4988.9044969849
0	4423	226024.616381541225	4776.4956935928
0	4438	226831.121440223317	4557.9074480411
0	4463	227703.171656762031	4289.3938104843
0	4476	228336.632607250719	4658.2429865749
0	4493	228957.469442216873	4690.6091406249
0	4516	230309.706748738287	4853.5327360332
0	4524	230728.745841333064	3806.789121178
0	4533	231118.760849859075	4356.8904853409
0	4541	231774.091647714935	4375.2997361251
0	4553	232400.441089382235	4384.3279413039
0	4559	232763.866913719787	3845.7289373696
0	4607	237014.406655292156	7518.1562070306
0	4618	237343.698889248449	3716.1138595362
0	4657	239194.674106912722	5553.0743566601
0	4671	239873.414358561884	4142.1924809829
0	4714	241251.215615513278	5209.9121707771
0	4719	241559.422433512166	3987.740360932
0	4724	241845.810596792223	4627.6108296873
0	4733	242124.189133601274	5007.4497604705
0	4738	242453.452996256719	4754.175620732
0	4750	243141.388059802653	4128.8567813568
0	4775	243950.9074239692	3749.4991565548
0	4783	244242.440664662088	4318.8357700626
0	4814	246335.131172002906	5927.8497116417
0	4823	246674.851392982047	3743.5557221711
0	4851	247912.745180687426	4680.7087981251
0	4885	249142.145309946575	5014.0962471468
0	4893	249442.107539199365	4960.9958287441
0	4921	250307.402572138868	3377.0065692695
0	4932	250930.609136794562	5361.1742816762
0	4940	251298.852050702452	3619.1198057648
0	4952	251739.255837822239	4583.3788861251
0	4957	252097.138860264958	3942.631739737
0	4977	252813.308075652632	4263.5547820145
0	4997	253451.088413658376	3916.0852641149
0	5016	254427.216373100591	5257.4522212135
0	5034	255985.382045096233	5865.4475579421
0	5042	256330.948773130225	4055.4487195467
0	5057	256790.592540372478	3508.783804518
0	5067	257311.061579421426	4662.8971046476
0	5084	258100.009420792679	4584.3343362586
0	5111	260073.803639923853	5085.0205503607
0	5136	261139.75488330854	4451.6656545427
0	5148	261836.71504626207	4507.9798669133
0	5153	262103.551332930733	3515.8035772753
0	5185	263621.126969491241	4936.6024282477
0	5195	264203.345686295134	4025.3516685458
0	5213	265752.950339446785	5381.545189873
0	5222	266067.089600110662	3583.5813563133
0	5231	267131.555286650465	4249.1241705821
0	5254	268113.875334847963	4660.3303862445
0	5294	270952.955660211259	5884.0560035576
0	5303	271266.428691895825	3842.8001704042
0	5320	272250.195854611023	4344.3759685115
0	5339	272836.700105562497	4888.9510878189
0	5350	273405.546352711152	4327.3650361833
0	5366	275186.023507279338	5065.5459254421
0	5405	276660.95336654164	5513.2804779824
0	5410	276946.126073820483	4840.634623455
0	5431	278355.439041460743	5664.4324336821
0	5436	278682.286550192865	3508.5932308929
0	5451	279240.799966334286	3812.6932813717
0	5462	279840.546942802632	4349.7613846275
0	5470	280408.450177807082	4475.0131356718
0	5507	282168.152900996891	4900.576074312
0	5557	284914.498503061831	4068.9882562727
0	5562	285241.079974016255	6158.0548041869
0	5573	285565.636202431031	4217.2568250147
0	5584	286117.916316621862	4545.7060180211
0	5592	286395.520587846979	4310.3723034486
0	5614	287226.030811126943	4871.2727851153
0	5634	287995.881715099892	3992.2981834704
0	5649	289323.675226782638	5273.3612906934
0	5657	289682.138742278934	4190.5748516114
0	5666	290049.734858166878	3869.9573104014
0	5683	291028.95233746481	4445.0646703409
0	5691	291307.639246282856	3897.677625212
0	5726	293816.145784500738	6025.2322308095
0	5771	295950.436351488759	3875.910345433
0	5780	296277.538786014416	6074.8612362782
0	5785	296555.967154696913	4433.5661897967
0	5797	297094.849251292941	3897.5410844529
0	5814	297957.168546663325	3638.4617798012
0	5819	298216.453202397602	3813.9156127233
0	5828	298532.823982214126	3494.4805280816
0	5845	300177.602060355389	5071.5293164949
0	5872	302274.10740945367	5198.1896195965
0	5882	304136.027841237662	5361.1880626928
0	5891	304821.398342984607	3466.8950179243
0	5936	308840.912216217851	7472.6203542158
0	5944	309538.138867904732	3870.9243865476
0	5953	310240.065504450418	4533.8325046452
0	5962	310644.839874701901	4696.0010501633
0	6039	314071.740389043546	6716.5990132782
0	6083	315479.203208690095	4765.7253521728
0	6089	315756.89471966343	4747.8318906342
0	6103	316071.008389342974	5126.2608478907
0	6142	317460.823776417202	5800.0061574369
0	6147	317699.853738980836	5700.3502123518
0	6155	317958.478354083543	4440.3064388065
0	6172	318593.212492394179	6299.7274779642
0	6180	318823.781596803806	4866.2719342402
0	6192	319125.172839696795	5125.3185324189
0	6202	319698.670885921733	5443.2091288368
0	6214	319971.747286876124	5353.3407675797
0	6219	320225.301716603774	4175.6136504318
0	6224	320477.323807232586	4362.3547093309
0	6230	320802.543406054607	4749.3890842575
0	6247	321753.213244739706	5588.5555905774
0	6272	322856.132185033761	4938.4488489525
0	6296	324525.615530324575	5475.5307891638
0	6321	325454.328004664903	4305.7234546406
0	6338	326031.817858119802	4017.3072181886
0	6360	327253.028131868244	5038.9590307206
0	6377	327956.075281702437	4191.8548309394
0	6394	328476.06212034712	4080.6109906551
0	6407	329061.292264293006	4536.0465846547
0	6419	329504.703798046064	3678.853438576
0	6427	329807.830197579614	4394.8448976695
0	6497	332163.757276840282	4960.3028994263
0	6502	332442.481194184912	6456.8800944439
0	6507	332696.126028366158	4801.7567397267
0	6530	333409.713247702389	3553.2833623623
0	6539	333698.806529607171	5363.2335360257
0	6544	334020.490272525574	4228.3918961651
0	6555	334304.442499274641	4262.3033222349
0	6572	334964.022501416117	4541.2064809765
0	6589	335583.907040177556	5112.7633404298
0	6605	336131.071839101244	5466.2789216608
0	6616	336756.886401799488	5309.9819680568
0	6625	337608.054464311614	4758.5896259611
0	6634	337963.803686073916	3902.4633791079
0	6662	339252.27170147831	4407.5239261908
0	6670	339544.595244264762	4253.9973743379
0	6705	341485.561030438311	5411.5512230047
0	6718	342042.101771046844	3745.1239879827
0	6738	342870.884655152215	4524.8892416609
0	6744	343206.722360002686	3686.3707231553
0	6753	343903.821468891639	4139.384688407
0	6769	344702.138237582909	4712.8170702072
0	6778	345387.213563092092	4035.0049972946
0	6796	346893.563731883083	4819.3062496373
0	6839	349347.335291050555	5402.557256394
0	6857	350562.545004722266	4488.2409006389
0	6882	351492.042540693016	3917.6307285085
0	6901	352323.637169828861	5023.6340105557
0	6907	352659.263831735245	4651.5635772228
0	6967	355114.660056449264	4723.5731371865
0	6975	355385.316839979446	6651.580061429
0	6986	355979.815487349921	5510.7224291487
0	6991	356291.98192847214	4945.3960120054
0	7017	357167.550913787432	5540.1892496437
0	7028	357461.438531891641	4173.0526044161
0	7048	358454.656549539493	5198.2615713609
0	7056	358751.671535708301	5361.844689316
0	7095	360014.983728065169	6327.801926297
0	7121	360979.967626290827	6854.0749928928
0	7155	361902.106819065521	6533.1208410185
0	7190	363475.013177873406	6963.2825242097
0	7205	363773.1620932822	6314.6240819654
0	7227	364656.812559126478	7182.722916623
0	7235	364988.269966979604	6371.8247111798
0	7244	365292.242678069607	6252.6746161164
0	7280	366467.131597035222	7295.4519434026
0	7285	366798.492449347608	7070.066569195
0	7297	367106.589951832619	7227.0019557281
0	7313	367700.055469051852	6995.0893642454
0	7341	368624.570181239701	7590.4401733263
0	7350	368938.915932271652	7297.0136278018
0	7380	370123.023646036299	8421.6456006886
0	7400	370768.717527025271	8884.6631834292
0	7420	371351.428207030378	8948.6761341029
0	7442	372194.579819838396	8464.9502420633
0	7453	372455.961849788274	8717.1420610062
0	7486	373652.563319666063	8155.8551100743
0	7503	374262.209100532545	9125.2215189675
0	7508	374537.652174421848	9022.8838875974
0	7520	374855.600462879584	7301.0248618916
0	7545	375806.536968123751	8746.5384251639
0	7553	376091.153957670982	8188.3591413877
0	7558	376280.352129519203	7415.8773428782
0	7564	376572.119020360138	7483.656083106
0	7569	376806.158889836326	7630.1063042446
0	7580	377116.22349303939	7219.6694908024
0	7591	377685.068030349967	6947.4523872541
0	7599	378000.393861653181	6929.312225164
0	7608	378286.349369730284	7023.4347821169
0	7613	378583.851319646615	6327.9100744621
0	7618	378857.72172889086	6463.7542047013
0	7624	379105.462712275942	6590.0855024012
0	7629	379369.165013799999	5993.4229319009
0	7640	379651.642037534576	4949.3084527436
0	7693	381728.952648411415	6612.5988266999
0	7724	382903.2568142109	5842.4536509587
0	7741	383487.541244544512	4041.7973084155
0	7746	383770.035477918079	3839.6282606039
0	7757	384038.000961334273	4437.808014748
0	7774	384707.136399357131	4160.4074888159
0	7780	384986.855044670564	4911.1682890687
0	7788	385347.815904957931	4219.5395337139
0	7796	385612.344003635043	3800.586149668
0	7810	386446.146381394036	4613.2800006242
0	7822	387351.198488262739	4573.6522825112
0	7846	389218.807789502635	5415.2798701288
0	7880	391442.253346879392	5880.2328463917
0	7908	392419.733500511065	5125.6841540666
0	7914	392715.828119736007	4985.0178323048
0	7942	393997.102555651629	4730.977015949
0	7950	394313.748381805667	3607.4867608591
0	7956	394705.587976200658	4264.6257839372
0	7971	395218.540255773064	3741.075329959
0	7999	396304.37612834259	3571.667588136
0	8037	397649.131325426005	5862.5913158701
0	8060	398698.756784283139	5636.5561248322
0	8065	398934.68495184696	4034.6910072264
0	8080	399928.510668918826	3789.2658802857
0	8085	400232.368565290557	5145.7359412666
0	8094	400604.288980469301	4374.2541626348
0	8105	400891.226960516909	4306.1749133326
0	8111	401179.54060363583	3778.94268586
0	8122	401435.159997361095	4697.507890735
0	8170	404463.939135345089	7054.631025292
0	8182	404809.924281276223	3626.0407975473
0	8273	407940.22144447323	6728.2621479468
0	8285	408213.324987555819	6683.6697426177
0	8296	408517.208008066624	6715.1350375583
0	8336	409747.843081479838	5230.8259704014
0	8344	409992.0022006047	5263.31214739
0	8352	410252.363450150058	6504.9627491388
0	8369	410873.386199326699	6027.0018783171
0	8377	411216.479333312088	6073.1110311841
0	8394	411833.665356226306	6216.2912762154
0	8402	412097.63863230401	7071.1584507351
0	8411	412410.627005378543	6137.5627129569
0	8421	412944.782721717096	6347.5737918607
0	8427	413246.904172561149	6233.7818103507
0	8435	413567.775667619176	6340.9279353528
0	8443	413863.261077318246	5586.0876380762
0	8477	415007.372986855147	6550.0018370525
0	8490	415651.80907603074	6884.341933572
0	8496	415897.051516191241	5757.1144968144
0	8501	416153.155998705338	5047.991038567
0	8519	417272.499206701928	5069.9578155187
0	8530	417854.787416247917	4244.3055473607
0	8538	418145.129780178253	4219.2408667836
0	8552	418764.391750627197	4589.6684164068
0	8569	419957.018257661687	5009.1858758448
0	8579	421244.214000471959	4194.2687611603
0	8588	422459.843668383238	4435.0669138263
0	8617	426523.656618337165	7717.1084663626
0	8634	427583.704921665748	4384.3031857604
0	8672	430031.01434455121	5821.0500542413
0	8690	431462.593969911044	4594.8918034514
0	8695	431721.968719854674	3518.3361539309
0	8704	432646.916242806479	4217.8810333441
0	8725	433852.717292640152	4926.7497948892
0	8781	436673.906531499583	6901.4925285049
0	8790	437096.764978660191	3851.7931582846
0	8798	437495.074137534172	3649.7702583101
0	8816	438250.738262504175	3455.5186984639
0	8832	439157.565385969667	4795.1993605874
0	8843	439564.347264635239	4128.1874518179
0	8849	439807.979358325043	4752.7335652567
0	8861	441104.390452376441	5638.7824504628
0	8884	442396.808766715153	4425.6766275685
0	8894	444086.8383870287	5883.7383365231
0	8903	445041.319353896777	3990.416791021
0	8958	450794.760777257572	9153.1909007281
0	8974	452598.739985483889	5271.7345704093
0	8987	453136.162348809353	4140.7121260771
0	8999	453414.580863287736	3851.7417603489
0	9018	454398.03801399824	4985.5403792872
0	9031	456200.530392028038	6106.9798643194
0	9056	457154.207731786084	3901.1451765026
0	9064	457499.209830543563	5198.5450043604
0	9088	459468.984739559028	5927.9392920816
0	9096	460003.865022811984	3828.5548326878
0	9109	461061.20064302013	4659.5059899616
0	9114	461372.086887240604	4162.5651252718
0	9186	465704.185731063722	8108.286311048
0	9203	466256.627733535849	4777.0230232404
0	9211	466579.857317220689	4864.9459354559
0	9219	466936.211373387997	3527.4577122295
0	9233	467546.649961007088	3774.5709887648
0	9248	468059.781313578994	3515.2442498022
0	9270	468941.261736399203	4187.5404545971
0	9287	469671.424781583999	4738.9650206358
0	9295	469975.791479294451	4453.2918157096
0	9320	471247.976716457761	4635.0182709038
0	9326	471557.515048744948	3741.9598314241
0	9351	472604.358940484781	4604.107057389
0	9374	473654.65486542516	3811.1410058898
0	9396	474525.406020399713	5651.3478075726
0	9405	474809.29064992581	4304.4174978655
0	9410	475109.544412372927	3393.8449471288
0	9431	476508.513059011682	4689.5915010091
0	9436	476790.999915809738	3705.9765997339
0	9447	477120.55016801869	3676.726980099
0	9471	479267.319171414034	5425.9283613945
0	9491	480566.304720875104	5033.0954822176
0	9525	482230.342001467761	5226.8171896262
0	9542	483051.276331229228	4342.1322122123
0	9559	483761.455028474646	4352.7655301432
0	9567	484066.591869987477	3669.6549239627
0	9581	484783.709672760268	4196.5348028052
0	9590	485434.603341298601	3914.9139708634
0	9599	486257.961346779489	4269.8740153478
0	9624	487447.486880476041	4498.9103047024
0	9651	489849.637518829477	6007.8103075252
0	9660	490143.761943467431	3806.093615626
0	9697	492308.113767865581	5780.5193254239
0	9705	492598.020410863169	4205.5765053261
0	9732	494452.832418584079	5821.9917800544
0	9737	494814.346551885463	3423.2999988864
0	9748	495128.832781476261	4022.4951294411
0	9765	496016.673083442425	4568.6599313043
0	9771	496321.356080923222	3860.5445011453
0	9797	498575.807580653679	5745.8516165687
0	9824	500494.891386731039	5370.1873944318
0	9843	501197.59014659043	4301.1031303205
0	9857	502081.110001107582	4507.0249252392
0	9866	502450.893523466431	3760.9479060675
0	9895	503813.640646586268	4544.8796097124
0	9900	504158.740044467192	3505.9577553745
0	9924	506190.618808616749	5280.8475662817
0	9941	506752.44420251088	3764.6885890033
0	9960	507745.323704534308	4446.5266463874
0	10005	509620.118179635203	5411.1768033266
0	10014	509857.457251505901	3954.6261679335
0	10027	510454.514742510047	3969.9581069698
0	10052	511485.767105995529	4810.9337421954
0	10064	511872.12845920387	3466.2769377472
0	10072	512149.50800332012	4289.0048506389
0	10078	512506.281689375565	3924.5536202295
0	10098	513571.394521937933	3797.7679616284
0	10106	513848.921065731985	5210.1789924965
0	10120	514481.595047627127	3871.1307017454
0	10149	516569.734392800429	5682.2206786137
0	10163	517448.429726403878	4438.0245407861
0	10181	518902.47048241154	5202.1404367246
0	10190	519453.881752899697	3738.0794583445
0	10199	520569.048293756144	4753.392735649
0	10219	521351.915773452222	4838.6637739802
0	10267	524121.712618734788	6148.4353903253
0	10276	524441.212943391179	3670.4317177537
0	10288	525335.242413109112	3342.8690001893
0	10293	525633.334530356209	4479.3707284032
0	10305	526485.853295647876	4121.7245810769
0	10313	526839.888479013038	4414.0406787427
0	10366	530478.701473159512	3660.9142196723
0	10374	530782.520328987586	8258.4835250319
0	10389	532042.864490410119	4672.9989930755
0	10400	532563.295986568029	3427.0939714318
0	10405	532849.295629575903	4372.9212734942
0	10424	534655.157698418198	4834.6728348626
0	10459	537271.434363571853	6771.8436169201
0	10468	538255.773142473625	4165.079037063
0	10479	538869.680487153497	3766.4069429426
0	10510	540228.854469010264	4474.6939693258
0	10539	542101.175175110892	5447.8014798517
0	10548	542425.474158186039	3537.1923417637
0	10553	542712.815995629714	4201.9678625084
0	10573	543656.889328058972	4240.528039138
0	10578	543963.786421247449	3546.4683368977
0	10605	546024.294214748513	5580.6264918932
0	10637	547801.0906774815	4990.7379736001
0	10664	548967.474975499702	4900.5420780479
0	10690	550405.530907519439	4979.2587937995
0	10704	550847.440443141667	4277.917076436
0	10718	551369.548344098336	4257.6936077259
0	10723	551640.384352614481	4060.0282413883
0	10741	552040.657658937558	4424.0206885006
0	10769	553040.272068587112	4884.393986559
0	10802	554485.444401698445	5240.9170132193
0	10807	554814.918364284264	5023.4677234064
0	10824	555501.030994152756	4681.2301595013
0	10841	556155.920129915453	4143.4865910408
0	10852	556514.622730213057	3751.1343005647
0	10864	556859.986391373307	4823.0954744489
0	10877	557414.661416748461	4426.4160670368
0	10883	557703.043009460088	4830.7093648161
0	10891	558220.057449845498	4507.0872557068
0	10900	558604.216357403774	3714.1137871717
0	10925	560235.243922967082	4702.5287312456
0	10969	562368.224115429062	5566.3792949823
0	10993	563624.547128548665	4899.7053031347
0	11008	564100.155781630746	5051.3961780701
0	11022	564696.815085267885	3833.6086475486
0	11027	564960.586398441156	3754.3769180312
0	11047	565537.444792819077	3836.5520290004
0	11055	565794.547588604928	3691.4931130913
0	11060	566029.504088131182	3807.8480804502
0	11070	567745.504015029411	5056.4226977173
0	11079	568276.738368909186	4387.3878456296
0	11127	572479.086940030369	7475.1629552502
0	11135	572760.464647794648	3749.9557802775
0	11158	573990.215806376485	4314.5534900197
0	11166	574783.030397409179	4071.5299325395
0	11195	576144.430687412048	3615.4492606513
0	11200	576456.247905300756	5347.4195746566
0	11218	578214.434707996779	5255.3500653493
0	11235	578867.416316332068	3936.1557527769
0	11264	580204.828327456368	4653.1495406098
0	11290	582246.9756412537	5728.0380464996
0	11307	582823.453712114254	4578.7093475832
0	11312	583128.378128999572	3812.9365213111
0	11324	583578.42794041854	4185.1777805616
0	11358	585168.345442877047	5027.8643865405
0	11388	586333.05618225181	4694.0824772263
0	11397	586790.194150193799	4641.2427170075
0	11406	587690.616138940819	4214.0168893195
0	11417	588190.273801740348	3862.7773861381
0	11422	588460.811521610685	4033.9118770891
0	11434	589124.935024524527	4185.2862698293
0	11440	589431.410990936839	4194.7492651937
0	11468	593259.706526534792	7751.7316238374
0	11477	593639.122622131243	3994.1905534162
0	11516	597190.929155686767	3492.1162142229
0	11524	597492.39028968002	7170.0149907709
0	11550	599126.71929364	5256.29621759
0	11584	601018.680934974579	5249.7073798642
0	11592	601307.691523159794	4052.4663167301
0	11626	602472.338505316075	4480.1997329819
0	11634	602777.500628470102	3962.3279577568
0	11646	603033.366691631997	3698.2106213266
0	11671	603956.581890376862	4001.8046130085
0	11693	604888.156585058895	3598.8108724124
0	11701	605191.44208245121	3655.303999102
0	11730	606738.02049314552	5072.1569754008
0	11778	608293.211066785062	5484.9788537981
0	11794	608922.116344974309	6004.6060101324
0	11808	609492.136756130101	5716.1163126503
0	11813	609775.460501807206	4736.5586939165
0	11819	610029.290841672791	6143.8025382636
0	11830	610325.586605964528	4723.9322850921
0	11841	610634.063793010014	4019.0221026509
0	11875	611801.166330052099	4906.9828586842
0	11897	612697.211201618139	5490.1657807557
0	11902	612988.595662791122	5624.068241623
0	11910	613275.299570336205	5068.6854257879
0	11930	613953.890992910511	3582.4963206785
0	11942	614288.107681834774	5521.7730385099
0	11972	615560.184851263316	4814.428346487
0	11978	615874.040380936844	4886.9461344785
0	11986	616185.940015955008	4509.904263259
0	11994	616484.136301185904	4682.4935332592
0	12011	617252.3299470348	4126.4083832592
0	12028	617892.592013842655	3885.3261595495
0	12033	618166.765981392232	4012.3891461838
0	12082	620575.197014518998	5704.1657797628
0	12093	621205.38267054045	4760.5466477908
0	12101	621807.327697143334	4563.7066233725
0	12110	622210.336501286205	3600.3468427744
0	12122	622973.336181388367	3378.897383923
0	12130	623276.412833959452	3892.0274327121
0	12144	623864.98558580055	4093.7984124522
0	12158	626384.80093568967	6022.1917255057
0	12218	629789.016831405257	6611.6148663461
0	12243	631012.788754751965	3304.9632847226
0	12260	631714.502824270769	5385.453785979
0	12265	631964.365846998112	4281.834084428
0	12274	632373.070344040181	4444.0376090686
0	12282	632649.85188840078	3740.635500471
0	12302	633422.915863055699	4218.1895906626
0	12327	634335.366596926153	4649.2013651721
0	12335	634661.025619077678	4731.9394234325
0	12377	636356.282302957374	5490.7590306249
0	12383	636661.800322977022	3831.5731083497
0	12394	637218.641884682638	3917.1893322677
0	12426	638402.952776025962	3245.7668358759
0	12439	638929.951161281169	4435.6257314254
0	12445	639233.572573756466	5525.7646977613
0	12450	639538.257282257558	4362.1628562106
0	12459	640098.067409287106	4610.5165506657
0	12476	641189.115646227104	4099.7957351812
0	12501	642159.73244955761	4606.7747172315
0	12527	643552.848266635429	5251.4136971935
0	12555	644502.442428726694	4321.5238655305
0	12563	644820.638190062318	3610.3274445733
0	12577	645623.712724201371	4179.6903458737
0	12589	646225.540512391487	3863.4385715419
0	12609	646808.445880783423	3866.3666807255
0	12642	648050.883848329459	4435.7433297837
0	12673	649244.940009218322	5507.3490768135
0	12678	649537.373359565605	4944.643690725
0	12698	650267.156101690223	3567.1968186459
0	12706	650591.336327893689	4526.9135963113
0	12714	650867.392902513811	3877.8760240969
0	12739	651739.279357921084	3876.4798280472
0	12751	652045.931192153519	4821.5907885151
0	12762	652665.260476143712	4552.8671451395
0	12770	653164.999989426162	4662.9953568266
0	12798	654204.805401546522	4482.8387564091
0	12804	654521.931364472084	3769.7590910203
0	12816	655425.780608897223	4276.73588358
0	12858	657049.949819057971	3843.0048698003
0	12863	657352.673737209101	5355.8749432122
0	12879	658835.650013592154	5569.0070172419
0	12884	659110.305795901127	3728.874871702
0	12889	659358.703140478135	3597.7815202253
0	12901	659994.636284069843	3919.8047777316
0	12918	663194.394469159435	7026.0223081878
0	12949	666643.825618261499	6888.4561517093
0	12971	667548.455576252192	4270.1932126184
0	12989	669097.021364479757	4808.9644214588
0	13018	670824.041731367505	4208.7670363153
0	13026	671121.352821603005	4336.5382479043
0	13052	672748.300972739966	4802.1899144525
0	13066	673460.594186532352	4202.2873717596
0	13078	674659.292513106841	4473.4188368758
0	13084	674948.223792788417	3890.8053235479
0	13109	676463.631280463704	5137.792469736
0	13128	678466.768301858583	5865.5593803251
0	13140	679309.749101784928	4064.9999249603
0	13162	680231.425686652638	4510.3623095953
0	13188	682252.418354342398	5483.5001304635
0	13205	683300.819545141071	4090.9513528302
0	13231	684396.605004666454	5037.9471026316
0	13239	684762.574754328729	3889.4614772732
0	13256	685672.285575297464	4028.5199910079
0	13273	686616.387196540624	3932.1100713804
0	13285	687127.216370137785	3647.3419782969
0	13325	688773.488105008793	5291.776620937
0	13361	690299.785457362556	5215.6815089233
0	13369	690611.192650848383	3612.7090071297
0	13377	690917.681879668664	5215.8894514322
0	13391	691630.925275809628	4323.0322486035
0	13403	692165.63422694379	4000.7847017807
0	13414	692464.496329891304	3891.8029180414
0	13419	692763.570943736531	4067.2934043752
0	13428	693068.111884290654	4352.00730731
0	13462	694776.31700471897	5443.0501907497
0	13491	696551.441869524027	5851.3051739668
0	13539	698128.247270089152	5159.5415656981
0	13566	699403.420904831698	5763.2975018459
0	13575	699739.368773637182	5571.9675841794
0	13594	700325.494376434612	5839.2417433641
0	13600	700637.947573134116	4614.9845110765
0	13608	700962.081438682962	4499.337829403
0	13619	701270.92116665849	4904.0776192541
0	13628	701578.718424533396	3713.1023624006
0	13633	701883.580554731345	4644.9471042662
0	13641	702206.252827349015	5296.4399053294
0	13647	702493.312320101393	4493.2315063303
0	13652	702818.909975663367	4650.4659677472
0	13691	706211.05171086808	3246.8884410068
0	13696	706488.357312457427	6862.2532227914
0	13709	707751.275601702854	4694.2673153003
0	13753	711524.626492536793	7105.7126127607
0	13770	712145.128020033987	4666.3184156568
0	13784	712870.206428098121	4624.7895649069
0	13794	714252.598190124796	4662.4111161845
0	13802	714713.025066736358	3783.9945844532
0	13836	716279.754124320558	4892.9182034288
0	13892	718272.778923742812	3251.5217025267
0	13904	718555.11788097595	6669.9121184549
0	13920	719455.278572541173	4234.2929719611
0	13931	720001.639190434788	4436.345410167
0	13954	720636.915084281841	4097.9493688327
0	13959	720932.880545105581	4111.2865653237
0	13965	721243.389945866182	4351.4292073193
0	13973	721553.811371792505	4274.3147890669
0	13981	721849.287182888681	3491.745709277
0	13990	722151.235676306149	4443.3739763612
0	14004	723531.064899305683	5139.9232301111
0	14015	725451.629807304559	5649.812175615
0	14052	729741.543180055354	7756.3795437862
0	14068	730432.259385586104	3870.2870386342
0	14080	730889.896199776764	3923.0538851447
0	14131	733415.345551466936	5966.5539928604
0	14148	734016.532640276914	4140.7519300436
0	14156	734289.551934539131	3624.9314037867
0	14192	735403.017561699944	4360.7270730163
0	14201	735700.469291537855	4580.5577169579
0	14223	736590.664516956083	5436.9652233596
0	14236	737149.318164087971	4630.4912809672
0	14253	737761.888305977503	4465.4638287537
0	14261	738064.974255511734	3784.5183946123
0	14273	738527.741879334745	4077.0432129759
0	14284	738796.403565502847	4058.491545507
0	14306	739815.829580556495	4195.7345192933
0	14315	740158.818075054805	4159.4028712199
0	14332	740970.815606636024	4487.8090991804
0	14354	742134.930721362041	4886.3979317157
0	14383	743434.282276187923	4871.0131575373
0	14391	743744.391641760202	4953.7777047749
0	14408	744352.462631926993	4300.4450412852
0	14421	744944.465142583783	4094.3397431688
0	14447	745707.999733548962	3210.3126224558
0	14466	746585.512205175889	5035.2591010069
0	14472	746866.584834983676	4306.7703579474
0	14492	748002.545234075463	4390.6926950744
0	14500	748286.727062166955	4153.3887402227
0	14517	748996.684934292961	3933.9015955356
0	14522	749267.934667517642	3823.6910012585
0	14540	750517.494998375551	5073.0914259677
0	14549	751496.621713796	4554.4155016484
0	14595	754187.510113401274	5924.7425806352
0	14621	755288.734527357575	5479.0990159489
0	14638	756358.762987045259	4840.7397687442
0	14646	756620.750331283821	3757.5377447624
0	14666	757192.226020847861	4306.6267828708
0	14699	758451.343271718629	4513.9931244239
0	14708	758755.856250340851	5253.6406716196
0	14730	759424.187292100751	5111.8351031805
0	14837	763078.234428895911	8036.3796008701
0	14851	763375.909809592781	6966.1678077039
0	14902	764941.576430849691	7953.232993072
0	14910	765249.329170277895	8070.2784194604
0	14915	765522.594840420806	8325.2211988733
0	14924	765856.136330192253	6625.0675603859
0	14944	766515.765782038424	7940.1017687687
0	14949	766840.250972409223	7528.9005092639
0	14963	767143.566823512262	7905.3779974712
0	14977	767769.784793009821	8420.4691917534
0	14988	768388.704475298395	8856.8229024928
0	14993	768699.276680465905	8366.5167278509
0	15005	768988.801222705617	7892.9135156517
0	15027	769893.289644397955	9445.2092853486
0	15032	770142.588280710924	8822.0105034903
0	15040	770403.36758683935	8039.6218348412
0	15057	770990.105185830013	9502.3947936856
0	15071	771595.638643751497	8516.8211969407
0	15124	773253.718785870003	9730.8485277948
0	15129	773567.650988152276	9668.7938741894
0	15140	773836.03409414412	9752.5639910861
0	15165	774745.978465512791	9195.8884911385
0	15171	775041.411529834806	8049.5091537329
0	15185	775375.4651188578	7781.3578727059
0	15190	775662.185702453373	6692.554550695
0	15196	775938.69017204488	6757.1118912248
0	15201	776206.184203663684	5843.9879544675
0	15206	776457.769653942495	5748.9125920441
0	15218	776708.835993035715	4938.77635151
0	15321	780194.168731454942	8460.7693565615
0	15329	780501.082711761414	9004.1037476762
0	15343	780775.250805957564	8752.0871191583
0	15391	782254.225032980896	10008.911297625
0	15402	782561.865263506915	8839.404490534
0	15416	783185.660781990028	9214.941910644
0	15421	783453.198982414496	6952.9250063304
0	15427	783765.206344140277	7198.2299992992
0	15432	784064.563088445531	7325.6517203072
0	15447	784426.220877897357	7262.576697258
0	15483	785484.835505755054	7847.28987025
0	15513	786718.272144089635	8591.3616693877
0	15519	786974.378703740328	8617.8379630378
0	15524	787277.551765318769	8722.8884143228
0	15532	787541.17538695343	8915.6465583283
0	15541	787846.682695671653	9096.9754825933
0	15549	788169.696791861533	8712.4205395319
0	15557	788492.685211823795	7826.4745307429
0	15569	788786.612072584927	7715.486234955
0	15582	789381.701225535309	8141.2515044961
0	15588	789683.567446251803	8047.1811929372
0	15593	789933.052517196763	7665.8469562883
0	15604	790217.072291650212	5856.9477427148
0	15620	791098.396302570917	6343.6430310499
0	15629	791401.616112723179	7320.9500968927
0	15671	792942.329473496097	7645.0330168265
0	15687	793576.321948841144	8059.8592762249
0	15693	793885.179127862213	8049.4542392672
0	15698	794183.103391151917	5658.7649095417
0	15709	794508.953855448326	4563.6413459154
0	15715	794773.160807777793	4799.2585425995
0	15720	795040.400659534119	3797.5616266057
0	15731	795419.070397778936	3769.9103705593
0	15779	796852.39872889351	5275.5882689766
0	15798	797626.559359834533	5781.2040238989
0	15843	799210.144426604749	6407.1472824732
0	15851	799547.021047503882	4432.1148945147
0	15857	799830.635635956562	4328.0164873859
0	15865	800092.638072718506	4164.8387925227
0	15870	800369.028211973298	4391.8717962638
0	15885	800818.017650374755	4259.2273563262
0	15921	802032.471369582344	4623.781777391
0	15927	802341.356729645096	4688.2012109302
0	15932	802579.271313350227	6014.5092053591
0	15937	802914.208349197566	5051.571208486
0	15974	804494.42023327558	6449.9380536317
0	15982	804777.759802264143	4156.9321161337
0	15991	805073.982775470731	4038.2581199686
0	16005	806025.292274850094	4855.8005833972
0	16020	806844.194455962813	3827.4877396782
0	16042	807715.595265839588	4153.7324150483
0	16064	808556.448259320975	4885.1522858565
0	16082	810131.884170059253	3463.7751375842
0	16093	810561.32934974357	5533.3491150889
0	16104	810850.998426986679	3765.640408957
0	16118	811434.014982366158	3750.2667374566
0	16132	812428.86080053237	4544.0315434118
0	16165	814654.683869200021	5659.1715211764
0	16176	815212.535938560819	4376.5272542801
0	16237	817364.51968794413	6044.4126686497
0	16242	817654.761611688132	3991.0089775335
0	16257	817984.466427365118	4262.7150155424
0	16271	818611.630382099595	4076.3630851397
0	16276	818891.572922338039	3343.7978593064
0	16284	819315.694172466163	3898.2962222422
0	16310	820115.136049638325	4011.7703113556
0	16321	820674.128179931721	4813.2810195709
0	16335	821016.892428545363	4945.9520578592
0	16351	821922.525908924943	5205.5820331493
0	16405	823968.532144438229	6212.6098592638
0	16413	824246.901925489054	4763.9191717853
0	16421	824512.099491362738	4557.2698986792
0	16427	824849.407152720001	3895.6369034572
0	16438	825388.185052307948	4419.6927373957
0	16444	825716.26966175365	3661.125832196
0	16458	826186.638605259186	3799.2711300071
0	16472	826794.972054646616	4148.8996284893
0	16480	827121.397706878486	4297.9332588317
0	16512	829293.517302868032	6450.0159141997
0	16529	830450.982701321849	4360.616863822
0	16546	831072.675967547775	4028.8104221122
0	16571	832027.490728452651	4660.7304270026
0	16588	832999.589899743064	4424.1723229976
0	16600	833502.212194032239	3588.3223413561
0	16625	834443.176398403779	3990.8660700952
0	16630	834695.520223898938	3570.1442551245
0	16647	835564.569163323122	4158.3949320249
0	16687	837023.395824208421	4640.9692445985
0	16701	837637.905078219847	4356.3581987926
0	16718	838307.878710190681	4671.6962420565
0	16734	838908.523435768773	4047.007544217
0	16802	840980.488270808805	5196.1104229091
0	16815	841634.584217658321	5719.5001231322
0	16827	841947.821461885774	5673.8054419538
0	16849	842520.2127090729	5625.4075247953
0	16875	843391.000196013979	5917.0580181061
0	16883	843708.224794093593	5527.7895884548
0	16897	844296.040583954908	5386.5604211296
0	16902	844562.516004505179	5808.357126607
0	16907	844824.499398765173	5426.4397911081
0	16913	845130.432582437458	5852.5551722103
0	16921	845417.749654177459	5292.1300217169
0	16944	846066.601029028576	5747.9552581025
0	16954	846604.490998794553	5828.7648510772
0	16963	846892.382574250482	4979.9616215281
0	16968	847144.148543990442	4907.3379559113
0	16973	847422.907278142578	4904.54684435
0	16999	848846.133529319495	5195.8126488654
0	17007	849230.999573466573	4085.821043481
0	17016	849902.316810965866	4053.2275864304
0	17025	850805.438191812641	3248.2545607723
0	17078	854611.654388470039	3015.5205842715
0	17092	855052.305861018283	7368.2074709404
0	17103	855681.603394224008	4034.95954838
0	17114	856180.089179216635	4472.444089761
0	17149	857973.927474240279	5575.3318140447
0	17154	858305.138912077001	4368.5852091494
0	17171	859582.221755771405	4743.6636075547
0	17180	860115.880746316269	4218.4238897522
0	17189	860595.090694764682	4177.0797540889
0	17206	861985.315272093651	5058.1211968898
0	17241	864737.363247894715	5964.8229568465
0	17315	867455.198510587841	5070.1339006981
0	17320	867803.08176095752	5109.0712210761
0	17328	868119.07072334773	7063.9407008645
0	17382	869712.192152718562	6842.9168695665
0	17399	870293.291186017953	5220.1581056449
0	17404	870632.820936343828	5524.1321817714
0	17410	870897.233462814951	5672.7343276454
0	17415	871154.272618343349	5297.73624332
0	17423	871459.050215327236	5501.1939009087
0	17432	871707.031995009306	5427.400812847
0	17437	872021.520478667232	5137.8886206173
0	17445	872292.001347242645	4348.378457997
0	17454	872564.80083101049	4395.2313845269
0	17462	872883.215013106473	4671.0460962254
0	17467	873230.422959200577	4367.2954855439
0	17503	876595.317729399664	7000.1162190731
0	17525	878964.324355720181	5257.6249168023
0	17530	879237.885585212387	3720.7544376767
0	17593	882651.924610122957	6945.8348940033
0	17602	883019.555735693845	4741.5164080922
0	17616	884003.527257794661	4207.5219160369
0	17639	884778.227667785391	4268.8075372071
0	17701	887024.311780967704	5704.0404947914
0	17709	887324.80834281515	6176.384787832
0	17734	888187.340326383513	6673.7596906533
0	17742	888475.083774032633	6554.5902097361
0	17754	888835.005708585649	5834.3113151455
0	17770	889461.508178610472	5346.5463822853
0	17823	891233.137255660418	6718.5269416946
0	17832	891507.665064876598	6705.4079179919
0	17840	891765.330804496272	6751.9722067745
0	17857	892339.514677803524	7528.8287093946
0	17876	892934.188139701691	7293.3011527773
0	17888	893193.765320949145	6794.9015002034
0	17910	893963.292549296541	6687.7764736814
0	17915	894217.783504171018	6725.3263864414
0	17920	894557.007572744272	5744.6388145437
0	17929	894886.780298977785	5185.1278274208
0	17934	895265.220323814034	5912.4464126816
0	17943	895591.684271136777	5619.9379201487
0	17951	895894.287905193254	5740.0470130681
0	17956	896192.509342918019	5731.1067525898
0	17962	896492.729597255744	4863.0864554492
0	17970	896793.815705277394	4567.4787533037
0	17978	897094.814790134415	4144.5025498584
0	18055	900844.427084966691	7859.9196927514
0	18069	901147.981653807667	4291.13061235
0	18086	901757.20384012819	4314.4489748324
0	18097	902074.535095013663	4795.1817489568
0	18108	902652.132402891122	5077.9540755157
0	18113	902965.029716607339	4340.1876874834
0	18118	903259.924118303174	4977.6357363275
0	18130	903710.411699827353	4792.0065931283
0	18152	904589.015336261272	4354.8113637618
0	18172	905331.464848565018	4230.7086088933
0	18187	906816.393052016793	4890.5874396555
0	18199	907587.067095747632	3591.7261426714
0	18204	907868.770670044427	4261.1930208657
0	18232	909168.870737652957	4448.5020035794
0	18259	911614.648157376283	6390.5136606196
0	18265	911928.331085525316	3608.8870596353
0	18273	912541.533584100332	3995.9458767085
0	18282	913459.147534132312	4294.7423978949
0	18346	917050.052854534717	7027.2494039857
0	18351	917342.395726340517	2997.0296308258
0	18363	918140.919918951389	3616.5299144968
0	18371	918427.834401837723	3565.3005448714
0	18396	919398.622180466287	3163.5088125835
0	18402	919716.506470378575	4475.3590942268
0	18444	921798.881603313743	5480.6346948936
0	18461	922433.522676498366	4081.4930142276
0	18504	924262.54035163363	5531.65674112
0	18509	924594.98256123213	4698.2157949768
0	18521	924894.815336102263	4024.8279929756
0	18543	925788.809194915489	5181.0919995705
0	18551	926097.759537546515	5112.9605077856
0	18568	926740.796567716193	4934.7602772527
0	18573	927035.613210729305	4595.5903235129
0	18582	927329.925898567029	4022.6052747721
0	18638	929277.356521972221	4479.5383929315
0	18649	929930.996845826192	6321.5174056677
0	18654	930196.948464376768	5238.4141232602
0	18662	930525.115201692537	4684.8309177981
0	18682	931149.477655785737	3425.6991027597
0	18690	931428.652003417366	3464.3639962132
0	18699	931725.795461171035	4688.7234719594
0	18704	931999.846638251728	3876.3037299153
0	18716	932487.326646443262	3933.6403575572
0	18739	934189.647689131299	4965.6922120253
0	18764	935544.883115319447	4998.6140353007
0	18773	935908.907770558093	3533.2729690939
0	18802	938032.720675838557	5222.0715076662
0	18807	938328.456606340481	3725.4526189885
0	18825	939433.623708237427	4745.0893453572
0	18834	940801.131422406465	3784.2297515545
0	18877	942757.496128269438	5333.1023422166
0	18898	944479.420958689732	5824.9241462739
0	18903	944752.982880211745	3515.2561440764
0	18915	945292.576701023963	4000.206841261
0	18920	945583.236562591756	4341.5565222007
0	18930	947168.938123861857	5856.1086573596
1	914	51696.541743857024	129.30975149309
1	925	51965.795024836345	185.02864129262
1	956	53253.474366344978	254.5148461958
1	972	53849.914384639944	185.45889289825
1	1019	55907.347471489055	190.57575906009
1	1046	57017.501569428585	44.214527410121
1	1057	57278.817821499144	32.390729464807
1	1066	57559.529119216696	100.03088211399
1	1109	60657.233502263398	307.31007897637
1	1123	61229.785544401749	251.19370920709
1	1132	61822.13810205398	0
1	1140	62062.23274488479	29.631071909121
1	1149	62536.431281178737	0
1	1157	63045.848386057661	0
1	1166	63939.560327623267	0
1	1194	64852.298002381213	58.118204773294
1	1203	65128.040283062047	148.39800867615
1	1214	65415.174239698188	210.82152923934
1	1244	66587.696023628675	256.3647875256
1	1270	67594.837852205788	161.86652000997
1	1278	67848.853314290277	46.823500707188
1	1295	68467.653269426136	106.31334011722
1	1323	69292.762757129942	245.25220480937
1	1328	69597.346724201382	420.08901583831
1	1339	69876.472561085719	621.98888151126
1	1351	70204.015700983966	540.05593982899
1	1356	70537.086407961434	587.03610125353
1	1367	70851.343567569519	818.17037544577
1	1384	71481.341592663242	202.60219585533
1	1392	71780.586371926135	138.10667750208
1	1462	74502.274114083655	214.62473825432
1	1481	75124.79494202816	131.31351652766
1	1501	76304.975793252631	0
1	1512	76605.868513704871	300.83362941364
1	1517	76886.603792571003	286.4280611713
1	1543	78594.560899300194	111.5139328747
1	1577	80205.985523676372	0
1	1586	80539.373043753955	0
1	1594	81076.155516203163	0
1	1611	81905.838366452356	92.123240594435
1	1623	82226.568517328209	91.806316156974
1	1631	82536.037501556246	319.73039471876
1	1636	82825.803672496542	566.8199953866
1	1648	83147.018524888547	187.15917079906
1	1656	83468.779432437016	15.038808893854
1	1681	84432.563518076924	5.664490200999
1	1690	84726.358288462607	284.16472781717
1	1698	85029.725727631415	219.98686910357
1	1734	86171.118489668931	70.286781875556
1	1795	88609.079924386002	0
1	1812	89313.560248443077	249.41844620681
1	1820	89646.009561003523	190.1460990915
1	1829	89995.012589279497	114.84245177862
1	1838	91372.964170144422	0
1	1847	91923.947486396155	0
1	1880	93207.663329130659	159.00431106604
1	1897	93894.965823299693	3.436059258759
1	1923	95300.264282134139	0
1	1931	95730.455588186011	0
1	1943	96027.253006935125	234.52558605232
1	1951	96346.875095822832	472.41467235494
1	1973	97256.126578488931	127.42241765735
1	1982	97731.841245013755	0
1	2007	98667.246130756731	22.598389514055
1	2051	101888.401169774001	0
1	2070	104865.652091007847	0
1	2098	108383.704191067032	0
1	2110	108638.54395064355	152.09201110876
1	2115	108953.003034142842	434.33520502804
1	2125	110540.517835906241	0
1	2133	110877.675700677767	241.96969972353
1	2142	111336.482073111565	0
1	2150	111625.090581962975	165.21890608004
1	2201	114232.779054514096	0
1	2227	115809.993021499704	0
1	2235	116083.122135354799	193.26501718252
1	2252	117046.64046155453	186.68230291387
1	2261	117691.383534016572	0
1	2287	119719.23099701597	0
1	2304	120257.128433752105	215.36442790699
1	2312	120560.12499800574	260.35792253659
1	2321	120864.652188688614	205.47267022082
1	2339	122761.560087461039	0
1	2353	123088.811813111064	194.99755331227
1	2359	123353.615234171236	453.55104117332
1	2397	124836.567232804986	199.89540821619
1	2432	127202.496257012476	0
1	2441	127511.054445828618	267.13427506123
1	2458	129110.404771275041	0
1	2467	129417.5517600432	296.62712529714
1	2475	129681.067308551139	189.07886677348
1	2510	132259.498364817435	0
1	2536	133518.737167433205	0
1	2544	134028.965652918843	0
1	2553	134344.751840846502	315.5102023705
1	2561	134854.135021417849	0
1	2573	135150.701126014341	244.57551748557
1	2578	135416.954405959767	316.15887025188
1	2646	138810.918882728646	281.34543313372
1	2654	139111.66089442822	35.13197645071
1	2662	139423.227177365587	205.92599615355
1	2671	140224.720460845226	0
1	2680	140760.932893610527	0
1	2706	142740.03348570552	0
1	2718	143040.782440789494	223.13438558968
1	2748	144239.24470405202	11.448407176311
1	2766	145839.581279248259	0
1	2774	146224.466154019732	0
1	2800	147839.138898810274	0
1	2826	149028.29808770464	172.47390869188
1	2834	149549.494135682901	0
1	2843	149868.687606940696	255.22455832804
1	2851	150253.049267136691	0
1	2869	151488.114155719516	124.95325168466
1	2877	152003.957710458727	0
1	2889	152285.831820380601	153.88882378607
1	2903	152660.713749546737	332.2866339018
1	2911	152908.51587546813	534.09107298635
1	2923	153224.144360993491	363.45812769843
1	3003	156716.037192532864	0
1	3012	157597.86049434777	0
1	3026	157926.046637677955	319.20520808702
1	3031	158206.730396964416	347.59971343563
1	3037	158489.7570050647	576.15915211504
1	3045	158755.813643280556	9.38925686318
1	3054	159776.842261105842	0
1	3071	160424.283883172964	0
1	3088	161195.199710371252	77.775272609305
1	3114	161787.351681354275	183.3513095253
1	3119	162059.435303093651	384.5325385368
1	3136	162629.35802474938	20.798206313976
1	3169	163806.550041145886	231.34352316529
1	3183	164398.240685344685	189.23649534342
1	3208	165341.08309032712	155.45517679754
1	3230	166444.788095007677	0
1	3238	166727.39344986591	0
1	3250	167012.678794132473	112.25462497692
1	3258	167303.773069258035	351.23261785232
1	3289	168668.507549161176	0
1	3297	169344.608659745258	0
1	3348	171595.882299823339	112.0774527801
1	3357	171958.660041130276	0
1	3368	172277.748885840418	98.348902754463
1	3383	173689.524126620395	0
1	3417	175575.17604152789	0
1	3434	176839.665357351527	0
1	3443	177550.819516745823	0
1	3451	177856.90783775634	82.102096943706
1	3468	178489.311478375367	34.713602815494
1	3477	179094.439154977968	0
1	3494	179652.1438112433	55.993207111732
1	3537	182527.970365826604	0
1	3548	182821.682261291668	69.250081301614
1	3576	185745.051697991565	251.08626539504
1	3589	186278.607077962097	102.00485012919
1	3601	186647.17969365729	52.641102729541
1	3609	186962.613537614379	331.02626435526
1	3614	187259.76217251018	612.30032942094
1	3667	190964.553956942101	223.03846406302
1	3675	191172.074406579816	26.823860330817
1	3684	191706.118026704862	0
1	3692	192080.970497575334	0
1	3700	192351.844821800548	80.396391365891
1	3709	192618.35537976725	224.53501656554
1	3735	194722.813852320015	144.9011999475
1	3752	195332.364674144496	288.22936048012
1	3785	196538.456752940105	300.97586911721
1	3795	197695.337618594321	0
1	3820	198843.394751314837	200.61476196866
1	3828	199173.221652533523	55.414710608411
1	3840	199468.959452987567	89.207562321927
1	3854	200334.900135798566	0
1	3871	201312.415142097657	0
1	3882	201571.392672231668	132.70008554332
1	3887	201827.112665030205	275.18158731376
1	3902	202190.099607361734	339.87993800681
1	3932	203341.636595493057	200.75646842113
1	3946	203921.43573598383	269.14772912557
1	3974	205110.916094062057	99.902807299733
1	3991	205736.493402037623	231.06234272024
1	4023	208435.573731832462	0
1	4038	208753.761249852315	245.07836637214
1	4046	209053.005958927147	50.711996414114
1	4060	209601.152727761111	19.890591462527
1	4068	209902.177392090165	297.40157836878
1	4082	210523.951803477495	62.887347170271
1	4099	211545.337649150725	0
1	4121	212098.321177808154	169.97059894045
1	4130	212438.629524270657	439.56184988698
1	4135	212705.557473953298	398.64193303195
1	4163	213676.488843796757	266.13392790324
1	4191	214931.384316676003	165.16268949576
1	4205	215218.94666463844	265.12617451654
1	4241	216733.445232468326	257.91566291312
1	4249	217053.558812144074	0
1	4258	217298.062956976312	46.187365598018
1	4307	220354.783530752291	301.88962614999
1	4316	220718.139821903057	580.25093371345
1	4321	220977.321323422235	600.92064959417
1	4334	221500.809750603454	252.68906265499
1	4343	222273.213992182196	0
1	4361	223551.269364208211	137.4915179305
1	4375	223811.949548927849	133.55992825204
1	4389	224416.915790800472	150.05548920846
1	4411	225456.174012705078	0
1	4440	226831.121440223317	69.251075705135
1	4451	227119.753644690064	197.79692453502
1	4465	227703.171656762031	304.37974517223
1	4478	228336.632607250719	320.51945917239
1	4495	228957.469442216873	39.331465866714
1	4504	229496.250448261553	0
1	4565	233627.58502971224	0
1	4573	233939.641908595013	298.04215834234
1	4583	235731.221877578985	0
1	4591	236069.228026294025	27.92458155785
1	4620	237343.698889248449	226.95951611765
1	4628	237649.997596898652	431.79782979373
1	4637	237990.763476173242	419.08140359307
1	4642	238235.461861346392	536.18448582172
1	4659	239194.674106912722	182.14282846685
1	4676	239923.604894599452	0
1	4684	240215.803206525806	14.39493911144
1	4693	240509.498224499794	102.21676413855
1	4752	243141.388059802653	210.09238899171
1	4763	243397.097112439707	165.06072987742
1	4785	244242.440664662088	114.3916018623
1	4793	244491.869510997027	10.757800541778
1	4803	245569.434855118403	0
1	4828	246930.396002869393	0
1	4837	247239.186544553211	83.309592856031
1	4853	247912.745180687426	233.01293574976
1	4865	248237.422195117051	82.915074589115
1	4876	248553.884213692107	4.130920054012
1	4895	249442.107539199365	272.34338731223
1	4909	249729.472454778657	194.46930523517
1	4923	250307.402572138868	187.46808498469
1	4962	252275.500053583549	0
1	4979	252813.308075652632	165.14360087883
1	4999	253451.088413658376	169.27967780385
1	5007	253793.501228198759	277.82614366471
1	5022	254988.783089563192	0
1	5059	256790.592540372478	102.50331160664
1	5072	257328.735179348806	0
1	5090	258587.747755655425	0
1	5098	258902.263525113885	217.73898387033
1	5116	260177.994017749353	0
1	5127	260503.471885779118	132.06673620531
1	5158	262483.508243797345	0
1	5167	262882.431116068317	0
1	5187	263621.126969491241	167.58202088776
1	5201	265068.899656653629	0
1	5236	267423.628521491642	0
1	5256	268113.875334847963	208.05544874843
1	5261	268404.435511378587	456.68649363502
1	5270	269078.181316527825	0
1	5279	270120.477581837247	0
1	5305	271266.428691895825	118.75580333658
1	5322	272250.195854611023	144.70440424559
1	5341	272836.700105562497	145.69349778386
1	5368	275186.023507279338	12.330187979339
1	5377	275435.365305515534	7.258620552969
1	5385	275754.905222739805	264.11966456465
1	5393	276068.363128892854	134.92608675757
1	5416	277267.576826684867	0
1	5453	279240.799966334286	157.77479650495
1	5476	280845.510246789154	0
1	5484	281348.379377416323	0
1	5493	281618.166752079726	45.956453478935
1	5509	282168.152900996891	83.004616598464
1	5518	282448.781901631437	94.02387561982
1	5528	284003.583531629479	0
1	5542	284355.087260097957	304.77332400876
1	5575	285565.636202431031	74.072311763518
1	5594	286395.520587846979	215.74304008146
1	5606	286727.94707238438	144.05940526042
1	5620	287409.961621070891	0
1	5636	287995.881715099892	204.96816140869
1	5671	290202.677549736214	0
1	5697	292074.52600605576	0
1	5705	292436.067277017197	313.66631211699
1	5714	293197.308166840051	0
1	5732	294318.70676686212	0
1	5740	294612.593026001141	210.05543632679
1	5748	295038.343454132536	0
1	5760	295315.347023850408	209.27427998991
1	5799	297094.849251292941	18.931461435765
1	5833	298774.83977854483	0
1	5852	301354.503325060335	0
1	5860	301628.823588851409	260.53172684932
1	5897	305667.214481357165	0
1	5908	306001.491213044605	295.25821323939
1	5914	306349.793217086857	400.95439254831
1	5923	307355.141375765341	0
1	5967	310713.477856517253	0
1	5978	311064.052841049316	119.30529959708
1	5984	311382.314574290211	373.25174526095
1	5992	311660.817618980287	0
1	6000	311999.503526629044	0
1	6009	312293.485014429999	0
1	6018	313518.17191527702	0
1	6041	314071.740389043546	114.23072647997
1	6052	314389.529318646566	389.67501136864
1	6063	314663.013420695492	407.55166361055
1	6069	314931.544307173174	313.13778787679
1	6105	316071.008389342974	21.320323171027
1	6119	316351.83954855817	298.68522676109
1	6125	316653.497901080014	538.52880317838
1	6130	316936.654419213416	771.99676505111
1	6157	317958.478354083543	40.79501800229
1	6194	319125.172839696795	75.088098536063
1	6235	321148.604550024329	0
1	6252	322014.510639931202	0
1	6263	322278.912930823701	64.843829676099
1	6278	323764.220450763047	0
1	6298	324525.615530324575	130.16440063259
1	6303	324865.98061109798	340.73493145972
1	6323	325454.328004664903	41.342704754838
1	6340	326031.817858119802	205.96749864976
1	6345	326386.902768109403	401.30166836842
1	6362	327253.028131868244	49.573754454237
1	6379	327956.075281702437	61.705993062985
1	6396	328476.06212034712	140.48912676566
1	6429	329807.830197579614	15.731821219137
1	6440	330146.631220333116	290.201334993
1	6449	330444.046478101205	401.90730106149
1	6460	330770.789176024232	347.97315558465
1	6471	330977.528733350295	506.3850336025
1	6477	331250.387543241114	585.59462580068
1	6488	331609.122315844447	162.21788210172
1	6513	332849.464838350519	0
1	6557	334304.442499274641	243.10219230866
1	6574	334964.022501416117	119.27472612862
1	6591	335583.907040177556	293.30917025072
1	6607	336131.071839101244	57.062031667644
1	6639	338296.977783064152	0
1	6650	338597.609139681123	251.61372618985
1	6672	339544.595244264762	24.243607417369
1	6681	339836.523240693403	72.086460208721
1	6689	340140.943331953759	151.62216457803
1	6707	341485.561030438311	133.35246464081
1	6723	342074.257482245733	0
1	6758	343944.778034656576	0
1	6784	346074.304104083403	0
1	6802	347300.003159273129	0
1	6810	347628.487429742585	54.075617558116
1	6818	348007.700254512473	0
1	6827	348733.736778550471	0
1	6859	350562.545004722266	171.45808545953
1	6868	350866.332580088221	397.23952188699
1	6884	351492.042540693016	145.4566242263
1	6893	351806.416461029472	179.05479688571
1	6912	353256.394978178635	0
1	6924	353534.721687079747	246.33575960425
1	6938	353865.149297456441	475.32245106411
1	6950	354153.381767589247	466.19996582103
1	6955	354434.870561773382	308.97792837532
1	6977	355385.316839979446	16.330861932397
1	6996	356511.730653663706	0
1	7030	357461.438531891641	2.900520574817
1	7039	357828.227347692178	354.13770518868
1	7058	358751.671535708301	135.22627990852
1	7069	359061.447306870622	21.87924491741
1	7078	359385.033418576604	213.35376494396
1	7097	360014.983728065169	286.55784791255
1	7103	360349.177059461116	469.58906335656
1	7123	360979.967626290827	275.00152148438
1	7131	361312.744481161232	278.61447324783
1	7157	361902.106819065521	260.2045145957
1	7162	362176.726542612511	475.34849726484
1	7170	362507.83660218631	623.7822585902
1	7179	362814.913065323703	412.16099239619
1	7207	363773.1620932822	43.532515507139
1	7215	364103.768034980333	364.94824619829
1	7246	365292.242678069607	155.25509650457
1	7263	365626.230326560555	129.52211696882
1	7268	365925.276785877888	410.5084990534
1	7299	367106.589951832619	46.591408872726
1	7315	367700.055469051852	145.47986806386
1	7327	368043.537879037832	140.74306275458
1	7352	368938.915932271652	74.44114563069
1	7363	369284.504192218137	196.04125496402
1	7369	369543.781311684312	367.72872609254
1	7382	370123.023646036299	226.46964379935
1	7402	370768.717527025271	31.101883929426
1	7422	371351.428207030378	280.34657054124
1	7427	371620.314649253148	357.40006163977
1	7455	372455.961849788274	200.02060460371
1	7463	372745.449502080516	351.48197789094
1	7472	373018.481973095899	503.10476322118
1	7488	373652.563319666063	276.821237767
1	7522	374855.600462879584	153.26687808866
1	7530	375155.33328289589	38.979461184414
1	7582	377116.22349303939	55.420329787143
1	7642	379651.642037534576	205.89810140559
1	7651	379941.000945633466	340.80799904722
1	7659	380257.943423173319	327.53620585914
1	7670	380576.665447059699	500.97869145779
1	7676	380898.691035355244	351.96212481404
1	7684	381180.228275514788	51.951904270796
1	7698	381811.757853967041	0
1	7706	382125.56176590167	292.69538513185
1	7726	382903.2568142109	125.71060845941
1	7759	384038.000961334273	234.47304196045
1	7798	385612.344003635043	50.323503147394
1	7824	387351.198488262739	57.14914181828
1	7833	387730.810287431183	0
1	7851	389266.12553970267	0
1	7860	390440.962192263469	0
1	7868	390746.721685554452	40.460064607846
1	7885	391477.464925814043	0
1	7897	391789.588668733525	3.048659177643
1	7919	392732.708540206587	0
1	7927	393062.200659450956	0
1	7973	395218.540255773064	318.54631115252
1	7978	395483.173679694377	396.54105567045
1	8001	396304.37612834259	165.13133970946
1	8006	396551.286106835968	321.2512890015
1	8017	396836.295548920293	251.24350173603
1	8023	397141.687738570318	404.03563194419
1	8039	397649.131325426005	248.53340765019
1	8045	397960.269619937076	550.96150988403
1	8124	401435.159997361095	251.27651363222
1	8132	401745.326635112761	533.36733858631
1	8141	402062.664486633893	533.00924169574
1	8146	402362.939142043005	560.86617153472
1	8156	403747.400701011249	0
1	8184	404809.924281276223	292.90717019778
1	8201	405155.737118600053	427.0470653854
1	8210	405442.900787910832	596.51646690123
1	8218	405724.694920060433	698.21473849151
1	8223	406017.733966259118	874.3656641311
1	8228	406241.928745838924	624.55466582805
1	8237	406526.979980701069	253.91568827944
1	8248	406839.403146799415	242.19421694301
1	8256	407134.696324193282	121.57396198282
1	8265	407406.095773130264	179.24804086385
1	8298	408517.208008066624	240.03456882456
1	8306	408846.775405229953	389.40425542731
1	8324	409164.383455581105	396.91631312235
1	8354	410252.363450150058	112.42643077321
1	8379	411216.479333312088	111.31437317378
1	8413	412410.627005378543	208.08561419531
1	8445	413863.261077318246	252.77920843101
1	8454	414130.715159600194	204.82624620551
1	8465	414429.687103810744	254.96376959034
1	8479	415007.372986855147	59.540605038276
1	8521	417272.499206701928	222.55396739029
1	8540	418145.129780178253	120.35302562133
1	8557	418806.548151974548	0
1	8594	423199.401735905316	0
1	8603	424209.964290309947	0
1	8623	426867.702166459626	0
1	8640	428203.63256592376	0
1	8648	428505.216673932649	76.181464470242
1	8657	428925.967497750969	0
1	8674	430031.01434455121	258.60034155651
1	8710	433244.971820375594	0
1	8727	433852.717292640152	7.413413416126
1	8735	434362.366025382277	0
1	8744	434795.219564040317	0
1	8752	435055.873114487121	0.627321418774
1	8761	435436.159812817334	0
1	8769	435772.481339990522	306.87333807689
1	8818	438250.738262504175	279.60612335752
1	8823	438548.79018163942	345.69013113379
1	8863	441104.390452376441	53.487889500625
1	8872	441641.569876529512	0
1	8910	447327.005415074546	0
1	8920	448995.450222732218	0
1	8929	449412.497634711084	0
1	8937	449713.830561858217	150.99145891935
1	8946	450093.550527708669	0
1	8976	452598.739985483889	298.07515930068
1	9001	453414.580863287736	161.51830800422
1	9009	453703.874508538328	162.82906106085
1	9033	456200.530392028038	25.220201903884
1	9047	456549.083798619197	147.38914556062
1	9066	457499.209830543563	289.68806857475
1	9075	457824.685685854726	228.78626583899
1	9119	461479.604710295464	0
1	9127	461807.460202968247	92.548821203494
1	9137	463408.753661158534	0
1	9146	463772.078972242238	0
1	9155	464544.53706377684	0
1	9166	464816.514248573699	62.792966771591
1	9174	465131.176528783871	198.7167678357
1	9188	465704.185731063722	181.68606747884
1	9221	466936.211373387997	323.25292783404
1	9250	468059.781313578994	244.22609625811
1	9255	468333.015648293269	332.76376519748
1	9272	468941.261736399203	67.203523572134
1	9297	469975.791479294451	132.27761975909
1	9306	470504.873152060293	0
1	9331	471715.699465244148	0
1	9342	471992.847905578318	173.92634757577
1	9357	473085.023316075886	0
1	9376	473654.65486542516	210.8316775055
1	9385	473948.5264556526	107.13564563305
1	9415	475533.209238657498	0
1	9449	477120.55016801869	117.02535617712
1	9459	478709.144119016898	0
1	9476	479408.68949833147	0
1	9493	480566.304720875104	169.3677748503
1	9502	480813.606439701163	226.43156974613
1	9510	481519.689370435193	0
1	9527	482230.342001467761	242.25467003612
1	9544	483051.276331229228	102.69975545555
1	9569	484066.591869987477	224.76465868324
1	9604	486337.668327841393	0
1	9612	486631.668651708851	104.07420926721
1	9630	488392.443905537089	0
1	9639	488693.675724034945	62.835085505292
1	9666	491106.337652035182	0
1	9674	491434.084525651754	43.037972652685
1	9685	491711.929553515829	263.91640137774
1	9707	492598.020410863169	137.20883108525
1	9716	492873.450494327534	43.494530242536
1	9750	495128.832781476261	4.128789176997
1	9776	496896.487016269928	0
1	9785	497574.085075868418	0
1	9803	498689.945617398924	0
1	9811	499268.76103687386	0
1	9829	500652.782289092665	0
1	9845	501197.59014659043	287.81890425535
1	9872	502987.755613507588	0
1	9880	503298.79705814688	0
1	9905	504208.941376308612	0
1	9926	506190.618808616749	287.78772504434
1	9943	506752.44420251088	267.88756697058
1	9951	507116.007338903469	441.17397510334
1	9965	507860.503152681181	0
1	9974	508405.851521456704	0
1	9985	508720.322848877404	138.5947797313
1	9991	509008.78506678205	370.04299354654
1	10016	509857.457251505901	83.830691196327
1	10032	510610.464345881725	0
1	10041	510912.395139057602	24.881424870865
1	10083	513010.405185617778	0
1	10108	513848.921065731985	148.591020045
1	10126	515715.802294555197	0
1	10135	516014.606747476967	198.95118936986
1	10151	516569.734392800429	56.482393328389
1	10169	517973.27722840946	0
1	10204	520770.781225637507	0
1	10221	521351.915773452222	197.95197149919
1	10230	521992.373412919799	0
1	10238	522364.128714571019	0
1	10250	522657.198768259118	231.35096798879
1	10255	522910.797877160551	386.76107320484
1	10315	526839.888479013038	22.101225525863
1	10324	527369.86549733464	0
1	10333	528476.374356081726	0
1	10342	529136.202015136263	0
1	10351	529820.484863555571	0
1	10376	530782.520328987586	282.9295823358
1	10412	534090.694105410578	0
1	10429	535103.273544210925	0
1	10438	535754.160499684429	0
1	10447	536653.373695259224	0
1	10481	538869.680487153497	358.83235403218
1	10490	539145.261349886313	256.97953346394
1	10498	539441.500645674655	25.13935675372
1	10515	540417.318084349753	0
1	10524	540769.381341107905	325.7136182526
1	10558	542810.352703881362	0
1	10584	544066.932897451831	0
1	10593	545426.272113719915	0
1	10610	546569.523366705644	0
1	10619	547111.854736372416	0
1	10639	547801.0906774815	220.73456625527
1	10647	548086.002249474151	469.36527903716
1	10656	548386.327233706114	230.44915167801
1	10670	549244.527388479147	0
1	10678	549791.450640877902	0
1	10706	550847.440443141667	27.639608490201
1	10743	552040.657658937558	28.224120062905
1	10748	552386.873573146573	349.98265622221
1	10771	553040.272068587112	276.78363893875
1	10776	553378.403636964931	506.06999232092
1	10782	553677.315792651733	689.0704429401
1	10793	553926.302337358332	213.33214321968
1	10812	554890.102570232118	0
1	10829	555532.715191721481	0
1	10866	556859.986391373307	58.141570926504
1	10905	558724.841825413938	0
1	10913	559055.100161678385	6.340558117714
1	10931	560863.206437719278	0
1	10940	561206.209480409994	0
1	10948	561700.892763818635	0
1	10971	562368.224115429062	265.16963991541
1	10976	562671.27817325561	449.62216557465
1	10985	563012.86355388346	323.78223657134
1	11010	564100.155781630746	210.80525835112
1	11032	565003.923984780135	0
1	11085	569010.508867517183	0
1	11094	569675.662316356772	0
1	11103	570711.500464869643	0
1	11111	571108.828330644132	0
1	11137	572760.464647794648	231.48322103389
1	11145	573067.795466485123	108.71082383765
1	11172	574931.260563555124	0
1	11180	575551.678786846606	0
1	11206	576518.937594754059	0
1	11224	578244.744364531067	0
1	11241	579315.44160768844	0
1	11252	579638.85032284421	245.60016298722
1	11266	580204.828327456368	64.347271119809
1	11275	581638.973705025541	0
1	11292	582246.9756412537	98.024208067358
1	11326	583578.42794041854	101.82869079722
1	11335	584327.496415602222	0
1	11346	584600.791257174428	173.89161265282
1	11360	585168.345442877047	228.69668818185
1	11368	585480.070974387739	243.40924864464
1	11376	585714.280593392874	206.30569069545
1	11445	589644.932068714996	0
1	11454	590322.375298909132	0
1	11482	593698.81294146387	0
1	11490	594020.923213142426	150.5001370924
1	11500	595768.973555110408	0
1	11526	597492.39028968002	237.16508325029
1	11535	597992.138772334217	0
1	11552	599126.71929364	311.54662292669
1	11560	599417.230006864679	82.073936559301
1	11569	599954.777277368359	0
1	11594	601307.691523159794	18.345810513271
1	11603	601606.682199135153	70.544115785963
1	11611	601863.351811835758	197.48829409106
1	11648	603033.366691631997	225.13447864508
1	11653	603313.802099389568	396.29176454762
1	11673	603956.581890376862	180.56144689703
1	11678	604178.870692062199	293.38238865297
1	11703	605191.44208245121	152.54027456054
1	11712	605601.654320872404	0
1	11732	606738.02049314552	122.97880278637
1	11743	607040.059921265839	145.87644989791
1	11755	607356.469150488001	149.42372962558
1	11763	607675.56466472994	311.03724356181
1	11780	608293.211066785062	86.59692223676
1	11796	608922.116344974309	155.78170164946
1	11843	610634.063793010014	262.66912077804
1	11852	610928.740114017279	182.98360924093
1	11860	611237.250781570738	250.15653511244
1	11877	611801.166330052099	125.13057735608
1	11885	612065.619385474167	263.97661754749
1	11912	613275.299570336205	149.3780065606
1	11944	614288.107681834774	280.84182754158
1	11952	614619.789880263324	465.4130450549
1	11960	614915.505407237175	44.474172480975
1	11996	616484.136301185904	39.300278436228
1	12013	617252.3299470348	8.708873263999
1	12039	618609.989658511845	0
1	12048	619384.385401247334	0
1	12059	619695.948903405488	101.51010594017
1	12067	619949.407234317972	178.22006096964
1	12084	620575.197014518998	212.587804335
1	12132	623276.412833959452	99.010868900266
1	12160	626384.80093568967	55.751897397879
1	12169	627682.531762570094	0
1	12181	627971.925005527026	264.09953549763
1	12186	628261.016192675629	331.98345770405
1	12195	628909.216387929801	0
1	12203	629231.90081869558	27.174546302527
1	12220	629789.016831405257	102.85159965124
1	12228	630147.873101107835	218.78690546265
1	12245	631012.788754751965	147.26548241945
1	12287	632830.227214627327	0
1	12304	633422.915863055699	121.46331064081
1	12315	633759.819633978003	52.011757982871
1	12337	634661.025619077678	166.70018922192
1	12346	635157.185940150057	0
1	12354	635439.874964440346	263.78053839342
1	12363	635747.129038801236	259.57818017981
1	12396	637218.641884682638	129.32197363675
1	12405	637552.957732326086	0
1	12428	638402.952776025962	101.51820658402
1	12464	640180.918563196184	0
1	12481	641210.310745489015	0
1	12489	641515.436335522326	71.413957194608
1	12506	642362.101940849635	0
1	12515	642942.0792000579	0
1	12532	643615.140518545781	0
1	12543	643948.467177554075	210.87624514927
1	12565	644820.638190062318	227.90852122174
1	12591	646225.540512391487	161.11778080912
1	12611	646808.445880783423	108.48659773909
1	12619	647149.874055850058	160.35717743313
1	12627	647445.779528202587	221.43912456413
1	12644	648050.883848329459	188.08431845557
1	12653	648397.397283140145	285.00395213596
1	12661	648651.626111815317	149.6214792158
1	12683	649721.96664513746	0
1	12716	650867.392902513811	115.22062906206
1	12725	651177.112502269378	28.067776952162
1	12753	652045.931192153519	49.13239815664
1	12775	653206.944949257694	0
1	12784	653553.380117009218	286.73712065901
1	12818	655425.780608897223	44.349684698084
1	12826	655760.921620252805	0
1	12835	656098.075487859981	23.243981521688
1	12849	656459.745744739893	291.37358376821
1	12903	659994.636284069843	239.26681751766
1	12923	663278.262363633769	0
1	12932	664288.056943020989	0
1	12951	666643.825618261499	28.550923209245
1	12962	666935.927106949254	151.11253325054
1	12976	667946.111058287445	0
1	12994	669258.306814772796	0
1	13003	670185.873676231069	0
1	13028	671121.352821603005	63.934352362475
1	13036	671434.035896146776	108.19708541908
1	13054	672748.300972739966	147.09205120648
1	13089	675244.74917682459	0
1	13097	675721.063377057338	0
1	13115	676768.918223878907	0
1	13142	679309.749101784928	99.880909474013
1	13153	679606.922429499016	248.26452746412
1	13168	680873.113277055536	0
1	13176	681643.765584289602	0
1	13194	682684.2771251602	0
1	13211	683479.874391840884	0
1	13222	683785.716428177833	304.00494410604
1	13244	685084.103948439282	0
1	13261	685701.792428236509	0
1	13287	687127.216370137785	128.7327264191
1	13295	687475.800064903415	167.90703769733
1	13304	688164.849525163123	0
1	13327	688773.488105008793	200.79469315891
1	13335	689039.486309305497	343.20876994414
1	13343	689371.129063754861	655.02448677419
1	13349	689685.897852369236	352.6310384
1	13379	690917.681879668664	217.54518411148
1	13430	693068.111884290654	99.406179899592
1	13438	693640.123402985749	0
1	13447	694167.401189457802	0
1	13464	694776.31700471897	290.06437164843
1	13473	696022.963062057623	0
1	13493	696551.441869524027	184.59832211959
1	13501	696867.899708727429	405.15609944752
1	13510	697158.521547278473	248.70862525885
1	13521	697485.399970736873	246.76652027172
1	13541	698128.247270089152	262.6312079564
1	13549	698450.177693611125	450.09687983999
1	13554	698766.221534710588	597.77752679444
1	13577	699739.368773637182	113.26468397111
1	13657	702964.163269861236	0
1	13666	703233.657608483751	176.64932208123
1	13675	704418.91387977612	0
1	13711	707751.275601702854	272.46599732571
1	13720	708245.416863191241	0
1	13729	709590.187073940282	0
1	13739	710929.03048228313	0
1	13755	711524.626492536793	137.79057164502
1	13772	712145.128020033987	259.92225751294
1	13807	715021.257221216071	0
1	13819	715360.817845583852	139.83224500375
1	13827	715702.151272786711	136.8574925189
1	13841	716538.965715449103	0
1	13850	716837.078655326712	15.48467554484
1	13858	717157.766073138557	265.80533459171
1	13866	717435.329771148203	155.83318842262
1	13875	717707.861699944903	0
1	13906	718555.11788097595	197.57640736428
1	13911	718855.724280351314	464.58261115675
1	13933	720001.639190434788	199.82155874526
1	13992	722151.235676306149	166.07204003698
1	14021	726561.972346951865	0
1	14029	726966.842314632036	0
1	14038	727448.791558606536	0
1	14057	729875.780710233275	0
1	14082	730889.896199776764	225.27566902435
1	14096	731160.725392559257	118.43490387561
1	14102	731440.93941591588	321.02784133594
1	14107	731699.550702061389	545.85140846486
1	14116	732518.826883120783	0
1	14133	733415.345551466936	118.92107424313
1	14158	734289.551934539131	9.096073639704
1	14169	734527.257893196486	76.559226837623
1	14178	734771.596881513054	33.684861517159
1	14203	735700.469291537855	80.374230274657
1	14211	736001.230954705851	1.815750870939
1	14225	736590.664516956083	107.65800950043
1	14241	737248.532789646332	0
1	14286	738796.403565502847	233.13444685223
1	14295	739162.679857369339	372.06592038402
1	14317	740158.818075054805	106.80048441305
1	14334	740970.815606636024	120.690207221
1	14342	741550.253104169005	0
1	14360	742497.687111093167	0
1	14371	742839.766910232117	279.95243319584
1	14393	743744.391641760202	132.53910275912
1	14410	744352.462631926993	219.12430998275
1	14427	745062.783338757334	0
1	14449	745707.999733548962	263.75606728986
1	14455	745994.887605615158	550.48403320733
1	14477	746942.206212147585	0
1	14502	748286.727062166955	23.959529400889
1	14528	749809.635511408654	0
1	14554	751518.023218301084	0
1	14564	752863.212586521394	0
1	14575	753202.094535873485	316.49529789641
1	14583	753522.806182538524	20.590603817278
1	14597	754187.510113401274	250.15996610659
1	14606	754488.624743979495	176.27255505923
1	14623	755288.734527357575	246.87969933176
1	14648	756620.750331283821	211.00832939494
1	14668	757192.226020847861	203.88258307018
1	14676	757519.994657057187	340.94390623964
1	14690	757828.395312680547	631.02167113305
1	14710	758755.856250340851	180.19223707117
1	14732	759424.187292100751	193.11852229445
1	14744	759696.678195299102	458.48936925801
1	14749	760009.15830320831	697.807840063
1	14757	760270.773604111797	921.45800285539
1	14769	760546.695895028615	1014.8143222231
1	14780	760856.422615331737	523.66266271676
1	14788	761209.002159811183	760.92180076178
1	14803	761546.56237786731	450.67467081336
1	14808	761825.299014367986	504.7212371474
1	14814	762145.302187375298	657.59179523088
1	14828	762459.462375790953	95.716623792804
1	14853	763375.909809592781	297.09236278201
1	14864	763677.807442188575	154.93718411341
1	14876	763930.076859093166	31.219745130303
1	14887	764257.780422732523	174.31031967454
1	14926	765856.136330192253	306.04635581799
1	14965	767143.566823512262	151.66444741039
1	14979	767769.784793009821	175.67754685791
1	15007	768988.801222705617	19.170070947286
1	15015	769290.895016400992	109.31673558087
1	15042	770403.36758683935	41.171337643172
1	15059	770990.105185830013	281.24812393157
1	15073	771595.638643751497	98.659679666273
1	15084	771848.738597008713	115.33922211525
[...]
7	13341	689371.129063754861	5
7	13347	689685.897852369236	6
7	13352	689996.685989175993	7
7	13357	690279.320377237702	6
7	13365	690425.368547396127	5
7	13383	691267.776078376449	6
7	13385	691352.220829613206	5
7	13393	691820.678981401706	4
7	13399	692124.204118974001	3
7	13407	692229.847583330752	2
7	13410	692446.311551325154	1
7	13433	693300.552098611931	2
7	13442	693980.707731583366	3
7	13450	694419.995056867409	4
7	13452	694438.734985182073	3
7	13467	694996.860666683066	4
7	13475	696066.836659788979	3
7	13480	696298.259370076296	4
7	13495	696759.049818956753	3
7	13499	696867.899708727429	4
7	13508	697158.521547278473	5
7	13512	697159.555737351239	4
7	13519	697485.399970736873	5
7	13524	697844.379280063126	6
7	13535	698076.12421912528	5
7	13547	698450.177693611125	6
7	13552	698766.221534710588	7
7	13558	699085.553972837588	8
7	13562	699108.219976851437	7
7	13579	699798.690749902099	6
7	13583	700054.346526878915	7
7	13587	700156.841802457817	6
7	13590	700290.863533491285	5
7	13604	700920.961540898108	4
7	13612	700996.143851798259	3
7	13615	701125.218575541831	2
7	13624	701525.554064586122	1
7	13637	702199.552932796704	0
7	13664	703233.657608483751	1
7	13669	703526.613487843287	2
7	13678	704684.110399469714	3
7	13682	705910.876159944981	2
7	13687	706045.856988430393	1
7	13700	707454.544256657356	0
7	13714	708084.222896165786	1
7	13723	708533.324854805625	2
7	13732	709873.357702737991	3
7	13741	711213.253826447215	2
7	13745	711255.979803364615	3
7	13757	711574.026731421369	2
7	13762	711835.413031112784	3
7	13775	712439.885275940167	4
7	13778	712573.364099153415	3
7	13787	713940.697779515476	2
7	13796	714407.71103592126	1
7	13809	715032.176238548717	0
7	13817	715360.817845583852	1
7	13825	715702.151272786711	2
7	13831	716024.526858215109	3
7	13848	716837.078655326712	4
7	13856	717157.766073138557	5
7	13864	717435.329771148203	6
7	13870	717706.686418874392	7
7	13877	717725.103870758888	6
7	13880	717840.971856849406	5
7	13884	717938.866922342323	6
7	13888	718159.068306976014	5
7	13909	718855.724280351314	6
7	13914	719170.044736414857	7
7	13922	719687.513647259245	6
7	13935	720065.037806543505	5
7	13939	720268.178957824154	4
7	13942	720316.834013566383	3
7	13946	720335.800131723078	4
7	13950	720495.014223218027	3
7	13969	721507.03631168617	2
7	13977	721667.564893667615	1
7	13995	722418.835167620201	2
7	13998	723261.934536392825	1
7	14008	725143.527091612309	0
7	14024	726866.293112829579	1
7	14033	727288.946052380427	2
7	14041	727744.512061931403	3
7	14045	729450.655944693156	2
7	14059	730034.224547634293	1
7	14063	730168.686057719992	2
7	14071	730566.51678757206	1
7	14094	731160.725392559257	2
7	14100	731440.93941591588	3
7	14105	731699.550702061389	4
7	14110	732019.86533781912	5
7	14119	732828.523627439997	6
7	14122	733143.45559532649	5
7	14135	733648.765090600638	4
7	14139	733730.095193020326	5
7	14143	733774.338769126205	4
7	14160	734332.320347093175	3
7	14167	734527.257893196486	4
7	14176	734771.596881513054	5
7	14180	734789.181348075618	4
7	14184	735075.94441031234	5
7	14188	735319.932558856788	4
7	14209	736001.230954705851	5
7	14214	736310.692603460863	6
7	14227	736739.404038183203	5
7	14231	736881.098173351695	6
7	14243	737294.540136063999	5
7	14248	737507.978929582424	6
7	14255	737770.911297851677	5
7	14264	738225.1686448068	4
7	14269	738381.898798029279	3
7	14288	738803.117209591269	2
7	14293	739162.679857369339	3
7	14297	739410.318594106274	2
7	14301	739526.831713365564	3
7	14320	740439.475510507558	4
7	14322	740663.345264024266	3
7	14337	741287.814507668745	4
7	14345	741802.853759206091	3
7	14349	741848.816756156794	4
7	14365	742623.054091192553	3
7	14369	742839.766910232117	4
7	14374	743143.391118856591	5
7	14378	743302.006102105413	4
7	14395	743870.480052405238	3
7	14399	744039.973045044384	4
7	14412	744563.446898115153	3
7	14416	744690.678933967164	4
7	14430	745392.475903730832	5
7	14432	745423.093841417999	4
7	14443	745658.497053908201	3
7	14453	745994.887605615158	4
7	14458	746299.153128758577	5
7	14462	746510.182627142831	4
7	14480	747211.988425702885	5
7	14483	747706.121014868116	4
7	14488	747928.517797875575	3
7	14506	748612.815651488782	4
7	14508	748659.066831959149	3
7	14513	748922.600110887589	2
7	14530	749970.0783312456	1
7	14535	750167.602410698054	2
7	14543	751217.944780596171	1
7	14558	751878.009049577033	2
7	14569	752982.372508170432	1
7	14573	753202.094535873485	2
7	14581	753522.806182538524	3
7	14587	753834.590268751405	4
7	14604	754488.624743979495	5
7	14609	754827.465400848374	6
7	14611	754912.481095946734	5
7	14626	755604.872851781521	6
7	14628	756065.129069916945	5
7	14634	756185.807693917387	4
7	14650	756785.45496142794	3
7	14654	756899.446116306865	4
7	14674	757519.994657057187	5
7	14678	757558.108385828693	4
7	14681	757666.708607575492	3
7	14684	757800.488024192087	2
7	14688	757828.395312680547	3
7	14694	758119.745470408732	4
7	14713	759093.981869576774	5
7	14734	759427.180845235591	4
7	14742	759696.678195299102	5
7	14747	760009.15830320831	6
7	14751	760180.323470850103	5
7	14755	760270.773604111797	6
7	14767	760546.695895028615	7
7	14771	760741.460315831398	6
7	14774	760751.516476576826	5
7	14778	760856.422615331737	6
7	14786	761209.002159811183	7
7	14794	761440.930133635277	6
7	14801	761546.56237786731	7
7	14806	761825.299014367986	8
7	14812	762145.302187375298	9
7	14816	762258.549954051113	8
7	14819	762291.091014040035	7
7	14826	762459.462375790953	8
7	14831	762788.984477782991	9
7	14844	763090.774209826988	8
7	14847	763139.994468673808	7
7	14858	763603.531315465722	6
7	14862	763677.807442188575	7
7	14866	763743.224654346985	6
7	14874	763930.076859093166	7
7	14881	764121.07404424679	6
7	14885	764257.780422732523	7
7	14889	764487.832540697074	6
7	14893	764576.331615966479	7
7	14897	764643.526460024441	6
7	14906	765079.073188598955	5
7	14928	766102.137094290612	4
7	14932	766169.099402609302	5
7	14936	766343.61635857425	4
7	14940	766458.059785745359	3
7	14953	766932.936970057276	2
7	14959	767083.473050563268	1
7	14969	767459.649165257396	2
7	14982	768064.455377825311	3
7	14997	768705.646454649997	2
7	15013	769290.895016400992	3
7	15018	769608.437430685306	4
7	15022	769697.25844545218	3
7	15046	770699.012246024325	4
7	15053	770881.935779462966	3
7	15062	771273.093514468569	4
7	15082	771848.738597008713	5
7	15086	771953.082481139409	4
7	15093	772129.856198097854	5
7	15101	772375.112990157012	6
7	15106	772458.244501073361	5
7	15110	772682.930836431123	6
7	15115	772964.421976319181	7
7	15119	773109.880256476574	6
7	15136	773805.698684403216	5
7	15149	774177.781278385957	6
7	15154	774464.618166392367	7
7	15158	774608.543795463503	6
7	15161	774642.191327700807	5
7	15175	775179.986046810822	4
7	15178	775277.57104122979	3
7	15181	775372.784321503523	2
7	15225	776852.034084733189	1
7	15229	777010.237563050921	2
7	15236	777180.020245269225	1
7	15240	777295.464899537409	2
7	15246	777606.013630907767	3
7	15254	777967.277923238745	4
7	15262	778296.213482994287	5
7	15274	778571.597150261912	6
7	15285	778820.138817378327	7
7	15290	779105.994122244521	8
7	15296	779366.14312514304	9
7	15304	779674.524050528905	10
7	15308	779829.158573783185	9
7	15312	779880.551839648051	10
7	15316	779964.106860139135	9
7	15325	780371.999624612083	8
7	15333	780619.171300661006	7
7	15339	780720.667604045923	6
7	15352	781112.053153075121	7
7	15356	781188.942931061085	6
7	15363	781392.097633487021	7
7	15367	781566.808757115695	6
7	15374	781694.96647624224	7
7	15378	781775.091695905308	6
7	15383	781970.930519901082	7
7	15387	781986.74202524237	6
7	15398	782514.626468560607	5
7	15407	782775.139706153128	4
7	15411	782859.808834762487	5
7	15439	784204.948849910223	4
7	15451	784453.474751316403	3
7	15454	784491.753354174508	2
7	15458	784677.057805551821	3
7	15465	784845.31493256154	2
7	15469	784988.886076776123	3
7	15474	785195.2709044585	4
7	15490	785613.393562891946	3
7	15494	785801.600039627083	4
7	15503	786120.839994634838	5
7	15508	786410.339930994309	6
7	15528	787522.798985353382	5
7	15536	787600.677310497843	4
7	15545	788093.419408718002	3
7	15553	788222.014359968148	2
7	15565	788737.785174656949	1
7	15573	788954.580926853538	0
7	15577	789075.599258422167	1
7	15610	790488.157937651759	2
7	15615	790808.103821449592	3
7	15640	791711.725760763503	4
7	15648	791988.121808366647	5
7	15653	792111.694426269696	4
7	15657	792325.820681230344	5
7	15662	792615.209642120821	6
7	15675	793243.43507000048	5
7	15679	793263.551438268628	6
7	15683	793459.798942369292	5
7	15702	794332.71731958404	4
7	15705	794354.980640510982	3
7	15722	795072.445350030133	2
7	15735	795457.056162925165	1
7	15743	795671.846782104728	2
7	15750	795950.721814372861	1
7	15754	795956.170121948963	2
7	15762	796266.59333283805	3
7	15768	796557.803815081751	4
7	15784	797115.161967730959	5
7	15790	797362.016961005597	6
7	15805	797706.464464034664	5
7	15812	797952.824584604714	6
7	15821	798266.444055599481	7
7	15825	798427.216218788648	6
7	15829	798583.838884132788	7
7	15834	798865.916600572858	8
7	15838	798887.467474714828	7
7	15847	799403.754960993082	6
7	15861	799887.665791440731	5
7	15872	800530.576677424383	4
7	15881	800739.406144095162	3
7	15892	801082.223263764613	2
7	15896	801130.416127804126	3
7	15900	801165.575451567723	2
7	15907	801410.241200930587	3
7	15913	801748.028407039428	4
7	15917	801797.889444778817	3
7	15946	803352.146038677219	4
7	15957	803847.550839733589	5
7	15961	803901.461486817808	4
7	15964	804031.385877053128	3
7	15969	804163.176626508555	4
7	15978	804726.11184495511	3
7	15996	805384.501072644101	4
7	15998	805713.773601674696	3
7	16007	806563.240182860593	2
7	16016	806701.071109835015	1
7	16028	807126.12816088065	2
7	16033	807418.148664847787	3
7	16046	807813.015157625684	2
7	16053	807991.776015815538	3
7	16058	808281.493233688591	4
7	16073	809312.922338772868	5
7	16075	809796.956841280324	4
7	16084	810285.106553030109	3
7	16089	810477.567184119748	2
7	16097	810664.023172503428	1
7	16110	811159.966278821945	2
7	16123	811735.162075065212	3
7	16126	812120.666911754892	2
7	16145	813955.243983806927	3
7	16149	813986.961105576737	2
7	16153	814293.542712972966	3
7	16158	814303.733258677741	2
7	16170	814988.255596711248	3
7	16187	815723.867200242882	4
7	16195	816005.305085596099	5
7	16207	816265.887622289232	6
7	16212	816552.041787609656	7
7	16216	816691.06762319438	6
7	16222	816783.887442874144	5
7	16227	816874.828977282707	6
7	16232	817071.513742058488	7
7	16244	817695.381412253444	6
7	16253	817937.840136702989	5
7	16262	818262.513778764443	6
7	16266	818533.51038142489	5
7	16278	819009.873323159667	4
7	16292	819500.476409947079	3
7	16295	819519.120101949334	2
7	16298	819588.984738592782	1
7	16302	819786.602794406656	2
7	16316	820378.467083939593	3
7	16325	820905.198524977142	2
7	16341	821306.009324280312	3
7	16346	821598.841865954039	4
7	16360	822322.595086178284	5
7	16367	822634.274352449599	4
7	16374	822679.726934851221	5
7	16386	823061.43618107552	6
7	16390	823213.124208981887	5
7	16394	823420.103064126917	6
7	16399	823711.26374056034	7
7	16409	824225.888974415517	6
7	16417	824411.976863881234	5
7	16429	825142.169005616275	4
7	16434	825340.302774296059	3
7	16446	825871.458727586677	2
7	16454	826185.317097996557	1
7	16464	826450.026743313393	2
7	16468	826577.050661668847	1
7	16489	827417.338502868237	2
7	16494	827750.893106998403	3
7	16504	828877.740028696847	4
7	16506	828960.517083475531	3
7	16520	830019.99195102073	2
7	16524	830180.175101563411	3
7	16537	830628.756274026072	2
7	16541	830773.959425869738	3
7	16558	831474.354482172842	4
7	16562	831567.143950481271	3
7	16566	831742.39378550708	4
7	16579	832593.006278859115	3
7	16583	832699.073122051942	4
7	16591	833179.765179862889	3
7	16608	833783.482138813444	4
7	16614	834098.518182496894	5
7	16616	834138.649715813125	4
7	16621	834367.051092662732	3
7	16639	835152.39039213926	4
7	16641	835281.266393026498	3
7	16659	836071.382551732723	4
7	16667	836365.451975375664	5
7	16671	836425.001306734157	4
7	16676	836690.967574442227	5
7	16683	836949.268049980747	4
7	16692	837334.432177665992	5
7	16705	837777.628500308861	4
7	16709	837924.345278547375	5
7	16722	838516.120742182608	4
7	16726	838615.425175438714	5
7	16743	839174.207739464966	6
7	16747	839265.065306500387	5
7	16753	839289.757859892853	4
7	16760	839478.299609644025	5
7	16765	839817.003534691393	6
7	16770	840018.397866682254	5
7	16777	840143.123262104948	6
7	16785	840444.958760804107	7
7	16789	840462.533565838925	6
7	16793	840745.067107032536	7
7	16806	841230.88797607574	6
7	16810	841346.169817827525	7
7	16819	841653.483695246142	6
7	16832	842227.874801150387	7
7	16839	842280.228014153862	6
7	16842	842408.961248937349	5
7	16855	842809.334757674964	6
7	16859	843033.188540311644	5
7	16863	843135.813632309178	6
7	16867	843262.530820921487	5
7	16870	843316.934604907104	4
7	16887	843848.843089760264	3
7	16891	844001.227622753676	4
7	16925	845431.022391069542	3
7	16928	845630.60639287517	2
7	16932	845734.069686627428	3
7	16936	845795.053351237564	2
7	16949	846374.296124061827	3
7	16958	846688.016370083414	2
7	16985	847839.588705733543	3
7	16990	848122.366427933849	4
7	16993	848558.971225382473	3
7	17001	848911.854020314949	2
7	17010	849602.072387333633	1
7	17019	850500.17538127355	0
7	17040	851856.301022262361	1
7	17046	852165.504069393021	2
7	17054	852457.905614500289	3
7	17060	852845.756565584079	4
7	17068	853993.840850442885	3
7	17072	854275.075578933737	4
7	17080	854752.802951802191	3
7	17085	854754.897490768306	2
7	17098	855374.193088094192	3
7	17105	855845.756815353423	2
7	17123	856517.096450432949	3
7	17128	856781.206200650312	4
7	17137	857206.892527757825	5
7	17139	857678.300734274373	4
7	17145	857960.682321232845	3
7	17163	859075.003174824168	4
7	17165	859351.727866750621	3
7	17174	859859.960963123679	2
7	17182	860285.067421758133	1
7	17197	861326.009154799839	2
7	17200	861703.76077186691	1
7	17218	862715.211353144875	2
7	17226	863005.406422714369	3
7	17232	863340.209412087393	4
7	17235	864372.629082342206	3
7	17256	865404.500222032999	4
7	17262	865683.725839350957	5
7	17266	865725.48857765634	4
7	17269	865822.633985413392	3
7	17279	866009.722366300231	4
7	17283	866023.057919134857	3
7	17290	866304.73215942874	4
7	17296	866590.381300327142	5
7	17304	866891.019795152591	6
7	17309	867157.406245728996	7
7	17332	868149.769949923035	6
7	17343	868440.666906865009	7
7	17347	868634.773417703411	6
7	17351	868737.608355277154	7
7	17355	868803.03910981931	6
7	17361	868911.282186206651	5
7	17366	869081.167983710096	6
7	17371	869387.209498854753	7
7	17375	869587.742571910755	6
7	17386	869887.081869071841	5
7	17390	869957.718414082884	4
7	17394	870002.883618626364	5
7	17419	871201.334367732839	4
7	17427	871590.164022807709	3
7	17441	872043.017173840712	2
7	17449	872332.68058873292	1
7	17458	872726.776992765851	0
7	17476	873939.376049727333	1
7	17489	875843.852457268959	2
7	17495	876127.564736306224	3
7	17497	876320.572877083687	2
7	17513	878547.409094329854	1
7	17517	878651.766396283525	2
7	17521	878785.768402890547	1
7	17539	880097.919927886727	2
7	17548	880770.104576096077	3
7	17560	881456.829027213829	4
7	17567	881554.117963756957	3
7	17571	881742.831945457042	4
7	17580	882066.027905700431	5
7	17585	882380.300603240416	6
7	17589	882600.399800028262	5
7	17607	883328.217838792431	6
7	17610	883677.160795757041	5
7	17623	884335.245627917245	4
7	17628	884458.31173639292	5
7	17635	884593.29457710027	4
7	17652	885081.68531330399	3
7	17656	885090.902667307819	4
7	17660	885218.937003891714	3
7	17665	885395.481275408143	4
7	17673	885731.402035643287	5
7	17678	886071.305679351393	6
7	17682	886125.971663480878	5
7	17690	886417.425652177418	6
7	17695	886704.442751230312	7
7	17716	887592.442678664572	6
7	17720	887611.197347399038	7
7	17726	887877.68465188497	8
7	17730	887880.637323076439	7
7	17738	888285.951065877254	6
7	17746	888586.216998017829	5
7	17758	888912.557609220174	4
7	17762	889170.168526990337	5
7	17774	889528.067080675357	4
7	17778	889638.770961855327	3
7	17785	889724.658301290832	4
7	17793	889990.720353496295	5
7	17797	890130.676323534423	4
7	17804	890304.822191307458	5
7	17813	890627.949535786879	6
7	17818	890923.051501631037	7
7	17828	891431.200804992451	6
7	17845	892041.773076983656	7
7	17853	892286.878183469067	6
7	17861	892389.138352076558	5
7	17865	892646.302852061465	6
7	17869	892688.69017391573	5
7	17872	892716.922544403253	4
7	17893	893438.993586952673	5
7	17897	893569.806491073319	4
7	17900	893684.543103724291	3
7	17904	893716.159605835601	4
7	17925	894826.163879564303	3
7	17938	895534.369434424454	2
7	17947	895848.783427993112	1
7	17966	896519.591149608371	0
7	17987	897363.664918345408	1
7	17998	897737.06476673236	2
7	18003	897959.615202191486	3
7	18009	898278.706302220767	4
7	18017	898535.122240815201	5
7	18025	898898.787671157535	6
7	18034	899200.672644392154	7
7	18042	900368.6732000858	6
7	18046	900502.698061117071	7
7	18051	900726.174303972121	6
7	18059	900912.035972199593	5
7	18065	901133.362892071132	4
7	18073	901223.658264800526	3
7	18077	901442.299544091597	4
7	18082	901743.675068742917	3
7	18090	901846.335793486575	2
7	18102	902358.038278034852	3
7	18121	903434.326903336329	2
7	18138	904029.169629721584	3
7	18142	904058.24735581329	2
7	18147	904271.006754797953	3
7	18159	904782.60364830533	2
7	18164	904979.122907527794	3
7	18177	905632.762907777483	4
7	18180	906510.288078767244	3
7	18189	907293.136521149337	2
7	18194	907328.534291391253	1
7	18212	908452.180056372487	0
7	18219	908581.425176901603	1
7	18224	908879.944514806959	2
7	18238	909471.943687010783	3
7	18247	910337.325432365557	4
7	18250	911303.006038149925	3
7	18255	911326.757672431599	2
7	18267	912230.324309761348	1
7	18276	913193.646931685153	0
7	18295	914654.499058241586	1
7	18303	914947.061073622524	2
7	18308	915226.353509297385	3
7	18317	915536.347839478877	4
7	18328	916349.103731203375	3
7	18332	916471.873539331368	4
7	18337	916786.441725480913	5
7	18342	916983.588455609267	4
7	18354	917802.411609735256	3
7	18359	917977.081210718767	2
7	18377	918668.425119581593	3
7	18384	918930.375208628076	2
7	18387	918978.515106271288	1
7	18391	919061.535573135952	2
7	18410	920230.531197432097	3
7	18422	920873.474360332969	4
7	18430	921220.411725522401	5
7	18435	921416.866562297627	4
7	18439	921531.921679715425	5
7	18451	921883.209801586695	4
7	18456	922096.749496220589	5
7	18469	922779.115521787302	6
7	18477	923533.909712851924	5
7	18484	923646.632998302887	6
7	18488	923715.564435367722	5
7	18493	923933.724056067396	6
7	18497	924000.570237993244	5
7	18500	924039.021205701335	4
7	18517	924805.321732005003	3
7	18529	925201.037498937612	4
7	18533	925445.414314140008	3
7	18537	925494.163873561002	4
7	18555	926127.415910421769	3
7	18560	926440.751022563163	4
7	18564	926445.889659968807	3
7	18587	927616.683700909742	4
7	18598	928045.855850005574	5
7	18606	928232.332931024819	4
7	18609	928363.619525320906	3
7	18613	928368.330255676136	4
7	18621	928659.19959782212	5
7	18625	928856.628938574273	4
7	18630	928960.748614222925	5
7	18643	929585.605078386629	6
7	18656	930243.403013205905	5
7	18670	930688.754587133771	4
7	18674	930822.354013281822	5
7	18678	931069.426724580985	4
7	18686	931189.59985264295	3
7	18695	931640.177976397158	2
7	18706	932213.105878802084	1
7	18721	932751.55187966597	2
7	18729	933043.790314506635	3
7	18732	933858.467394982775	2
7	18751	934940.353631899332	3
7	18756	935228.731909447321	4
7	18758	935256.573523784242	3
7	18766	935562.102127061039	2
7	18782	937315.308210000763	3
7	18790	937705.613047230341	2
7	18794	937735.624881570908	3
7	18798	937759.707347265142	2
7	18816	938954.205384046202	3
7	18818	939125.51627100999	2
7	18828	940522.57668911359	1
7	18852	941588.46442110244	2
7	18856	941648.559546004222	1
7	18861	941873.093036445211	2
7	18866	942201.625121857853	3
7	18871	942488.176559093369	4
7	18886	943818.472696096087	5
7	18888	944188.887930597013	4
7	18894	944476.183808606784	3
7	18905	945000.597423254805	2
7	18910	945008.495204383405	1
7	18924	946900.710026911625	0
7	18939	947937.949643264887	1
7	18948	948976.67962169204	2
7	18956	949336.29917356512	3
7	18965	949862.600718671727	4
7	18973	950289.987020240157	5
7	18975	950304.81260235992	4
