version 2
run QueueMeasurement-101-20170109-13:53:26-3514
attr configname QueueMeasurement
attr datetime 20170109-13:53:26
attr experiment QueueMeasurement
attr inifile queueStudy.ini
attr iterationvars ""
attr iterationvars2 $repetition=101
attr measurement ""
attr network controltower.SimNetwork
attr processid 3514
attr repetition 101
attr replication #101
attr resultdir results
attr runnumber 101
attr seedset 101
param SimNetwork.a.parkingLot.parkingDelay "truncnormal(45min, 5 min)"
param SimNetwork.a.runway.landingTime "truncnormal(5min, 0.5min)"
param SimNetwork.a.runway.takeoffTime "truncnormal(5min, 0.5min)"
param SimNetwork.a.runway.throughputCheckInterval 14.256min
param SimNetwork.wg.interArrivalTime exponential(14.256min)

vector 5  SimNetwork.a.runway  landedThroughput:vector  ETV
attr source  landedThroughputSignal
vector 6  SimNetwork.a.runway  tookoffThroughput:vector  ETV
attr source  tookoffThroughputSignal
vector 0  SimNetwork.wg  responseTime:vector  ETV
attr source  responseTimeSignal
vector 4  SimNetwork.a.takeoffQueue  queueLength:vector  ETV
attr source  queueLengthSignal
vector 3  SimNetwork.a.takeoffQueue  queueTime:vector  ETV
attr source  queueTimeSignal
vector 7  SimNetwork.a.parkingLot  parkingOccupancy:vector  ETV
attr source  parkingOccupancy
vector 2  SimNetwork.a.landingQueue  queueLength:vector  ETV
attr source  queueLengthSignal
vector 1  SimNetwork.a.landingQueue  queueTime:vector  ETV
attr source  queueTimeSignal
0	1141	50538.632968527655	4205.8597377985
0	1149	50787.01224778703	3941.7278490641
0	1154	51096.74299995006	4166.2992036895
0	1166	51670.233325077662	3936.57550132
0	1171	51953.102139365323	4104.6042977752
0	1197	53181.363712288257	4825.149044029
0	1233	55626.920328987637	6479.9541366382
0	1257	56767.781590843982	4691.3623220254
0	1268	57220.528734819544	4718.002598843
0	1285	58045.001873056054	4317.7875106692
0	1302	58695.220709655276	3933.687069395
0	1319	59378.844944737131	4017.3071056535
0	1324	59682.383881128473	4125.0761113178
0	1350	60961.125264998056	3891.106236302
0	1370	61375.495796099916	5372.7137794506
0	1426	63387.021568657884	5593.6267941326
0	1436	63997.85133605696	4304.2398070668
0	1448	64307.695399062581	5817.9349147551
0	1476	65318.778015339183	5294.9428830252
0	1487	65630.815840699976	4496.1596279735
0	1499	65984.961709679819	4708.6489800465
0	1518	66773.169865987073	5623.2581609839
0	1526	67127.722211208117	5493.1276128611
0	1551	68084.131929079433	6806.7845750633
0	1556	68421.727483126313	6399.8049243281
0	1562	68783.234849082761	5541.1726962945
0	1576	69119.692856075608	5056.2349622072
0	1601	70045.888506997411	4401.2113938306
0	1626	70891.469564424277	6287.1333646771
0	1645	71585.136721293825	5619.8441039906
0	1654	71929.014307819532	5112.0910121677
0	1679	72968.143709888742	4127.656541194
0	1687	73273.817918761106	6056.3665175244
0	1696	73617.823561765845	3897.9389096363
0	1704	73920.815875806663	4894.5280011385
0	1712	74218.527957511706	3358.3826628889
0	1721	74529.56935643808	4253.9742054606
0	1743	75372.956580614748	4311.564732438
0	1751	76060.023294160041	4199.3079267842
0	1773	78053.140434915532	5633.8013884781
0	1778	78313.025855228333	4080.3101013995
0	1800	80994.369895296213	6313.0541643894
0	1821	82671.670058844772	5680.9184228724
0	1841	84105.45078954545	4080.0696195617
0	1859	86154.116402799625	5174.3401541084
0	1874	86592.240206362179	3962.9622127368
0	1896	87682.2964668382	5025.6917688959
0	1934	90238.514112402926	3898.128184257
0	1959	91180.640437577239	6776.3675586354
0	1967	91459.158213765119	4993.5363255081
0	1978	91995.739017205626	4433.204003253
0	2005	93297.042637973088	4912.5416058661
0	2024	94203.137895747989	4573.1561962085
0	2029	94517.727009299737	4353.0351925525
0	2038	95158.256174803453	4790.298974562
0	2057	95778.237224733835	4573.6534816781
0	2075	96848.097038751251	4125.5142390191
0	2080	97105.564672937285	3988.7449978612
0	2101	98714.140185447225	5464.8880857569
0	2118	99264.099083081894	4075.3293059956
0	2140	100820.54617801918	5263.6331705046
0	2170	102683.467909734462	4512.2633653979
0	2178	103047.038857159958	4435.1418601169
0	2183	103354.015649501077	4356.7787626314
0	2209	105040.000366527412	5112.8781575435
0	2218	105402.970113532734	3638.1006302594
0	2250	107420.404971044715	5634.4035847164
0	2272	108310.365932157015	4553.2475852268
0	2290	109630.840283327626	3277.8173683482
0	2301	109929.819073907449	5495.6930893105
0	2312	110556.467464396657	3811.6272125658
0	2328	111139.416489350735	3971.3036850113
0	2337	111813.410226234055	4384.2669411899
0	2355	113056.561437184965	4856.3934097482
0	2364	113837.980501951839	3984.2199561722
0	2398	115686.393782478765	5101.8006680306
0	2419	117783.626784952596	5413.145194178
0	2431	118051.978772583066	3648.0967017492
0	2450	119000.438532598988	4183.5385056372
0	2470	120258.838483762234	5250.1838933425
0	2507	121527.906456143054	4364.2744439087
0	2517	122138.182578136821	4267.6098497587
0	2526	122516.968839639487	4574.9413466391
0	2543	123449.603526139524	4105.0574347004
0	2555	124160.692972420289	3491.8180199504
0	2566	124509.610649925959	4364.6224604181
0	2596	125717.566159735154	4930.9996765894
0	2608	126067.272321012073	4563.9494211179
0	2678	128557.406569811753	5811.0824328719
0	2698	129242.107842813603	4992.582960065
0	2720	130163.916677664773	5780.2824943433
0	2739	130724.564884288805	6141.7883177236
0	2770	131617.863758331217	5620.1461665179
0	2776	131916.106201411859	6173.2463052686
0	2784	132242.282205966275	6153.5285882087
0	2789	132522.86353662818	6228.9651846841
0	2798	132821.70936168407	6473.0960794699
0	2809	133150.876856667591	6479.7243187415
0	2823	133768.105322294562	7118.1266021543
0	2831	134052.051863082737	5686.8176301457
0	2837	134352.668308925135	5189.8380298899
0	2842	134661.797323268117	5444.7084290095
0	2847	134953.862370714608	4821.2729515784
0	2853	135197.658156037784	4501.1104423076
0	2870	136592.523658990606	5761.2825082691
0	2916	138941.683799951674	5900.6103775544
0	2956	140961.359958993392	5293.9718448137
0	2965	141276.63069164508	4040.5185090801
0	3007	142898.987830965239	5601.7550628126
0	3018	143197.124816055059	5597.9905035921
0	3029	143825.429422827632	5085.7001113882
0	3037	144154.539631004461	6122.4112262108
0	3042	144423.944391634388	4408.1632961439
0	3051	144733.67809831681	4463.5569922855
0	3059	145017.179907940394	3970.8574437154
0	3067	145352.797940010923	3886.7442668327
0	3089	146228.487219138133	4358.1735950971
0	3106	146908.598550061191	4777.2811480991
0	3133	148374.571609353625	5251.6905663846
0	3152	149215.825929019626	4117.9029853245
0	3157	149533.073088244082	3964.6042374219
0	3202	151114.498675829153	4800.2292373546
0	3208	151427.982331769135	3952.3796534587
0	3222	151863.804544579416	3664.0083632156
0	3255	153052.005687786579	4718.2886271252
0	3264	153320.665403688959	3750.1522807992
0	3280	153892.102019332259	3735.9847348721
0	3294	154553.398543258962	4832.6360793296
0	3300	154847.037796996048	4595.8268222183
0	3314	155300.133273851572	3674.1333753973
0	3325	155861.437171169794	4192.7961557425
0	3340	157131.887023982449	3980.5766257906
0	3351	157711.347389397665	5776.5394344113
0	3359	158109.195969757268	4311.9386004747
0	3403	160908.901522521069	5737.8430041078
0	3450	162499.405248351874	4363.1538118361
0	3456	162804.57141819917	5913.341149418
0	3464	163089.051088515701	4842.8409674377
0	3469	163339.174408179677	4372.9490450281
0	3478	164118.792145649799	3840.0291457409
0	3493	164584.556848547557	3582.2027761881
0	3507	165154.990109696484	4045.8571359175
0	3515	165467.166630307704	4247.5825770531
0	3550	168029.235063747271	6586.2927208107
0	3589	169172.431133828891	4732.4225552701
0	3605	170042.407567654289	4631.180811694
0	3622	170743.502756297638	4219.742170572
0	3634	171168.121601817989	3278.0095402682
0	3642	171566.236349567064	3287.5409375931
0	3650	171924.636857013687	4557.8030872297
0	3675	172755.865991525094	3727.0687348842
0	3684	173054.366918104933	4486.1963755557
0	3689	173393.445444512358	4251.5853731734
0	3743	175978.713617228475	5832.2697612986
0	3752	176286.818865731686	4550.806329749
0	3769	177510.725330681702	3154.6095432238
0	3777	177851.982646844005	5728.7475919442
0	3786	178130.228746654885	3930.5054768259
0	3791	178409.779130253665	3830.8295917695
0	3803	178975.302868550183	4258.76941611
0	3831	179837.009862292909	4653.9574693082
0	3862	181990.483760044823	5977.4023261601
0	3868	182272.601440638915	3586.4348552888
0	3880	183072.624859532841	4007.1485902241
0	3905	184002.658174834643	4414.9385613364
0	3910	184332.664914698241	4705.8897113572
0	3943	186628.600643214486	3868.2699772916
0	3990	188495.591912607101	8429.6677149829
0	3998	188787.761064935613	5628.3847649518
0	4004	189082.424427977962	4428.6853605634
0	4021	189924.246269456252	3450.9946014599
0	4032	190293.977114752505	4738.5723584898
0	4068	191512.094380877267	4706.6943092179
0	4074	191900.505082682586	4835.6895056576
0	4082	192259.672257393717	5067.3797239878
0	4088	192542.914718154837	4861.8069633681
0	4111	194103.836395741231	3963.9627842288
0	4117	194399.709717531795	5076.1474476421
0	4122	194712.894718182763	4270.4689720396
0	4141	196826.728605131325	6046.9155412789
0	4168	199507.89907991432	5951.026359008
0	4208	201683.446037074367	5561.2802751437
0	4222	202236.897627735972	4548.0001783402
0	4259	204050.777440427874	4039.9053843688
0	4264	204350.125056078224	5834.6488728153
0	4273	204633.07860970879	4527.8028275739
0	4281	204988.430416684508	3871.0009142916
0	4298	205611.03575227075	4054.7036240325
0	4315	206301.378224898718	4162.5144664001
0	4413	209611.277177197826	6535.9513464251
0	4421	209935.871570216638	6771.0071075434
0	4432	210262.703476619316	5402.1506991623
0	4441	210562.232111435429	5211.5158158915
0	4449	210897.478797970051	4699.1591757155
0	4454	211191.928821306832	4606.1142954466
0	4463	211477.350381831579	4908.1256905702
0	4474	211825.323802392963	4924.2509871171
0	4483	212158.366525257531	5331.943557527
0	4496	212814.214949196887	5866.8294984411
0	4502	213123.46587876188	5578.1549687112
0	4510	213424.620397127321	6463.0986643774
0	4521	214030.064338714821	5473.9483620085
0	4563	215738.326500102106	6774.8720036088
0	4572	216518.82122573616	4612.8665408986
0	4592	217738.350324189363	4367.8493973467
0	4603	218002.058104824871	3957.1314230739
0	4617	218589.999480282789	3903.2124662199
0	4628	218895.070043732166	4401.7083803527
0	4672	220649.691080121936	5825.520445774
0	4681	220954.455166078061	3835.6851707593
0	4701	222238.921918306712	4362.2974820527
0	4713	222523.652288272909	3713.8979821715
0	4718	222791.142211889272	3786.2400294928
0	4726	223149.991187672748	4450.6141131143
0	4740	223731.229312964118	4258.8715358577
0	4749	224467.380109842749	4503.3424423218
0	4771	227186.456909244675	5651.1509666648
0	4795	229244.755034803424	6368.2922655954
0	4815	230232.976603577176	3708.6890137818
0	4845	231448.789596220315	4518.5122790958
0	4865	232455.809393252869	4396.1945415932
0	4888	233564.036910095044	4070.8088571609
0	4899	234094.97797527791	3763.034139781
0	4905	234401.78739394846	4434.5070987824
0	4913	235203.551390734855	4791.0489933083
0	4925	235522.994466816031	3705.2257499074
0	4955	236736.601236798966	4284.9299414991
0	4977	238795.44776428375	3293.6307195454
0	4982	239080.44537782674	6295.725486855
0	4991	239517.560588549177	3681.092223175
0	5019	241104.971291903492	5062.5772430551
0	5038	243057.333050371171	4909.4004538754
0	5043	243401.956896037219	3637.2613100665
0	5052	244199.446730928392	4162.3203015721
0	5091	247797.387820892329	6884.2715310968
0	5113	248721.943281741621	4013.3236075913
0	5151	250768.490030306005	5801.575310208
0	5170	251357.816375838533	4653.8860956024
0	5184	251979.081399875521	4500.3304243028
0	5207	253095.851211176687	5280.4944222872
0	5241	254383.051177174498	4468.3234964328
0	5258	255090.571109584624	5505.8082631548
0	5263	255363.941889965342	5245.2495834599
0	5271	255678.812384581442	4977.1778147694
0	5282	256208.591091690312	4875.643487694
0	5308	257057.171199845088	4296.1286661897
0	5330	257854.582195789747	4871.9214861011
0	5335	258151.17446525285	6194.0449972845
0	5341	258446.814311367342	5397.6193882233
0	5352	259047.077930942667	4834.7610336211
0	5358	259370.377953948582	3760.1789380481
0	5367	260187.388730907193	3874.9991477791
0	5384	260935.678815809207	3915.4505080585
0	5418	263192.271952221826	6049.9541542571
0	5451	265256.056042638068	3532.2052807469
0	5456	265570.509919612643	3682.4837619662
0	5461	265840.462989886144	5444.2714328258
0	5477	266880.651377043522	4316.1880677847
0	5496	267743.994270524944	3765.0899775949
0	5589	271512.624401052835	4860.7506226821
0	5594	271788.426960491921	7671.4429269528
0	5603	272094.746817966211	5339.5527964621
0	5608	272395.682578846011	4226.7292352016
0	5616	272658.578898695685	4430.339852562
0	5628	272953.959288611868	4286.8816586026
0	5650	273571.879149614324	4183.4194247012
0	5667	274213.082665832578	4735.8510906221
0	5678	274752.266421601135	4783.797124205
0	5686	275071.502273838101	5450.0960944652
0	5706	275658.027998808335	5398.4778811544
0	5725	276532.91760822409	5666.0473391042
0	5730	276827.40352959963	3944.0321416074
0	5742	277317.62558127887	3757.3576448341
0	5755	277904.019997909595	3983.3310186033
0	5768	279208.259870071386	4308.3072890365
0	5776	279525.444137524983	4081.5484207581
0	5807	280718.915807411457	5210.2951549032
0	5832	283244.400319632309	6151.8341165287
0	5837	283540.672343658844	4297.4934160469
0	5842	283832.475505767628	4106.4559537155
0	5861	285795.917730802067	5765.6449528843
0	5881	286999.389614096223	4647.5319354366
0	5937	289355.130244525378	5499.773643019
0	5945	289854.371784942118	3544.3852824377
0	5957	290535.635466543646	3156.5530114247
0	5966	290866.529887355804	4154.7288025917
0	5977	291177.375997856913	3597.7271301306
0	5999	292041.922093576994	4383.7740041596
0	6004	292325.258539512634	4399.3426745277
0	6058	294456.208198771573	5935.2551231959
0	6072	295397.523965593806	4530.2124633715
0	6084	296031.785494156973	3430.3218634912
0	6089	296330.108340044719	4897.3610325816
0	6103	296783.845907638325	3898.8166947286
0	6112	297119.115192956454	3961.4425059008
0	6134	297971.060275504471	5095.5815980349
0	6145	298278.494187391908	4955.4927769469
0	6190	300249.898577417927	5860.0358914937
0	6206	301024.08840553998	4225.5174545779
0	6223	301740.64977317136	4516.2140923984
0	6243	302416.412821145642	4340.3347203325
0	6248	302721.927706488449	4590.0174774095
0	6263	303159.065192615138	3788.3448607808
0	6277	303763.167525186312	5134.8769068244
0	6285	304063.220172981305	4699.0851351595
0	6299	304632.132199244954	4203.7971923172
0	6307	304966.178820784467	3858.241887726
0	6352	306842.704049686059	5001.6097296246
0	6366	307496.708379960352	4521.4791681612
0	6393	308838.649048867993	3577.9656400874
0	6406	309343.022453362833	5487.6874289536
0	6411	309611.117722385607	4153.6144986811
0	6420	309941.456133643045	4679.7500569213
0	6428	310300.416207563554	4489.2405265768
0	6465	311682.690463832533	5041.4528722745
0	6476	312243.03091284117	4044.2164153318
0	6496	313805.291630366615	5293.5849375587
0	6505	314070.990758083095	3563.1121646702
0	6510	314393.860658756949	4377.4263399095
0	6519	315179.033899518521	4363.6389758592
0	6544	316481.39396636653	4857.1469704671
0	6563	318349.399464862215	5602.0924987873
0	6580	319472.971160196115	3961.2864117494
0	6597	320564.062430662629	4990.5229588559
0	6615	321758.812895991704	4764.1966164646
0	6632	323067.799656385229	4621.5827518568
0	6641	323961.18806065553	3980.6461850076
0	6659	325336.693767537851	4410.6934189024
0	6677	327350.771297178703	4887.9288295323
0	6706	329254.27572392368	4855.1279553445
0	6722	331036.625197881872	5324.2316474321
0	6730	331461.594611448735	4051.5855045434
0	6748	332800.054479170009	4968.4956044507
0	6766	335217.378615859241	6185.2542722998
0	6807	337387.717132204253	5224.0606729964
0	6835	338962.361836323883	5222.5871844049
0	6843	339358.163631823576	3911.0262347525
0	6852	340149.446287359653	3990.378129867
0	6872	340903.156493800547	4306.5190622549
0	6877	341190.940113352846	3996.8963610389
0	6886	341727.947726274393	4446.5842828637
0	6913	343945.52474563398	5650.8012074685
0	6922	345503.759190019181	5217.3362640286
0	6931	345877.526287982155	3473.3677577304
0	6981	349478.093183813533	6577.0161663148
0	6995	350170.057329129375	3943.216145562
0	7017	351050.111630602599	3951.621997003
0	7028	351545.579846661731	4040.0095216139
0	7043	352495.528876036568	4642.96529907
0	7052	353384.568043542713	3964.5711636655
0	7069	354240.681703392854	4134.3975344362
0	7080	354705.132538648894	4296.9068491128
0	7159	357615.929217483016	6357.8609626529
0	7195	358828.244693566488	4321.4727039548
0	7203	359129.365514405961	5562.6964836657
0	7212	359445.861002756134	4212.610802942
0	7217	359756.171471296336	4584.303724365
0	7225	360055.700021731125	4780.0284947875
0	7237	360350.667791449701	4654.0225250385
0	7245	360699.045009446667	4351.7030970306
0	7253	360940.109475926903	4288.6870121048
0	7287	362165.156358493694	4740.9664148686
0	7298	362741.196123741098	5675.2812879656
0	7306	363020.471989946255	5509.6853997566
0	7348	364582.8357405181	3710.5444495008
0	7356	364853.781324665137	7036.5749739554
0	7361	365193.847567878789	4145.8187779863
0	7370	365702.16947516789	4315.1796416337
0	7382	366107.974265888905	4186.6293902592
0	7387	366370.94349911658	3477.6661828575
0	7396	367070.023094953235	3927.9578182353
0	7412	367723.540315634901	4075.9195608253
0	7448	370530.970840335955	6623.1850883202
0	7468	371242.272521450369	4135.7905211224
0	7482	372667.220774671158	4781.2894713324
0	7491	373151.228348613214	3997.097949766
0	7520	374653.207043713603	3914.1520063813
0	7528	374929.773615569316	5060.1650527566
0	7586	377013.969240162604	3224.2040507814
0	7592	377333.713032757131	6322.9656058331
0	7609	378078.785809657544	3031.510902256
0	7623	378550.744417542135	3790.8920448581
0	7643	379100.304890106068	5032.9367876147
0	7668	379916.93603122658	4369.0365714075
0	7687	380824.178662564671	5690.9735120153
0	7701	381179.401532787786	5485.6389362499
0	7712	381822.21540060022	5500.4356034894
0	7720	382159.418133108673	4700.1321241528
0	7729	382465.337120931764	4122.7275838476
0	7734	382785.866424126173	3558.0722396259
0	7745	383136.616746606915	3431.7750844108
0	7751	383437.202303816251	4549.4277197196
0	7768	384559.340174700548	4556.3429272153
0	7806	387094.463555267439	6143.5015328305
0	7820	388219.588104281574	4199.5737133518
0	7838	388536.098836319846	3607.6580952503
0	7862	389723.593943563385	5032.9289664403
0	7874	390735.110470422588	4905.3893808496
0	7895	391999.841225727111	5015.5670868305
0	7903	392317.352219136297	3975.3052534811
0	7917	392945.388012034039	4617.5996403634
0	7942	394004.956144417949	5024.2376640713
0	7984	396000.214967661061	5397.5365206231
0	7993	396305.056843744297	3359.7197969115
0	7998	396627.031325051369	4542.9411797294
0	8007	397356.951349894979	4123.786170351
0	8015	397647.630510454398	3689.2621448696
0	8036	398630.094401727861	3538.9467646302
0	8041	398921.255395809162	4889.1551023239
0	8070	400669.568450514547	5530.1921666892
0	8096	402441.575962241361	4543.0469113449
0	8110	403179.631292303753	3736.6325799837
0	8121	403729.839122080058	3738.6871850653
0	8144	405239.773198709701	4673.5951805519
0	8156	405790.000178165749	4041.6714720046
0	8182	407273.152238381609	5127.4667777686
0	8187	407612.191737799002	3961.3368985933
0	8197	409523.868904094295	4960.0594164893
0	8209	410003.628753748135	4254.5512020869
0	8282	413474.337478068572	6876.3400526782
0	8294	414006.346159816142	4013.4951361099
0	8313	414565.48192913101	4178.2478444037
0	8341	415463.191840289377	4397.397679929
0	8347	415706.718053937194	4402.6049162351
0	8355	416016.172347179226	4159.9011624502
0	8369	416597.039056194483	4681.6352097054
0	8374	416916.742236064051	4543.4145113298
0	8422	418587.499362729106	5726.7987427291
0	8427	418900.306925234339	5087.7374378962
0	8439	419187.654402582359	4840.5870716537
0	8449	419763.15310003849	4925.4776203714
0	8464	420422.989201721677	3298.8866037412
0	8469	420721.719960361342	4992.5594405082
0	8478	421060.081291550896	3896.0535268594
0	8483	421328.130064841928	3853.7074187398
0	8500	422538.768532127859	4864.511852328
0	8528	425523.903722737641	6375.8156049607
0	8537	426149.22689263587	4778.3736181039
0	8554	426968.301735437815	4093.7729110347
0	8603	430050.094165087303	6351.5652361699
0	8637	431291.26779575114	4947.9585506792
0	8645	431604.494481512282	4387.1050041832
0	8659	432171.913310439903	4848.4676485073
0	8664	432475.319947604666	4136.8358501232
0	8680	433751.958598925904	4808.6870841199
0	8693	434432.407592260955	4563.1933202614
0	8705	434785.352404571947	4880.8083366591
0	8715	435316.591837301763	4830.5312416307
0	8736	436961.778921265858	5497.8301689895
0	8762	438071.028005426937	4330.7517440036
0	8784	439339.370835526426	4874.9099929284
0	8793	440229.164189725171	3403.3848947315
0	8802	440660.249500029775	4620.3865813464
0	8814	441511.775091269875	4223.0951793704
0	8819	441785.300001140076	3848.5454876221
0	8847	445158.987444989002	7021.0470486172
0	8874	447864.164998229157	5535.0565884518
0	8916	449749.563047446635	5142.9189728618
0	8928	450426.347178031447	3874.4824963903
0	8984	452421.83064923354	4407.672172579
0	8993	452738.36344050944	5980.9861684434
0	9015	453611.846222830043	5522.0582113355
0	9023	453935.301824523206	5444.7733551856
0	9035	454245.135393212288	3882.9314590444
0	9051	454880.105632434418	6305.1139682171
0	9060	455188.528901773855	4516.1141629662
0	9065	455507.765278787383	4830.6575343003
0	9070	455845.178205382558	4888.6716639343
0	9076	456138.503722142042	4717.2167754543
0	9084	456460.754527770604	3831.4948195427
0	9096	457505.066047874787	4512.08604716
0	9122	461129.722907308693	7080.3542493805
0	9148	463455.780687022142	6219.2801119751
0	9165	465383.092536398997	4840.7192453552
0	9178	465972.316586418046	4075.3518541681
0	9234	468201.187280431761	5960.7069629262
0	9254	469408.418158871642	4265.5619520456
0	9263	469754.413350635565	3820.7372850142
0	9274	470034.55152581437	3762.6057324403
0	9279	470345.426084944137	3684.5079376037
0	9288	470672.579431380956	4508.8820921292
0	9296	470991.469564748988	3834.5375943736
0	9319	472259.991063348217	4790.7228561297
0	9365	475043.248202311401	6198.0319300874
0	9370	475341.904678516297	4589.1516446947
0	9379	475679.133473864977	4682.5362398537
0	9414	477763.529744482808	5258.7666297555
0	9425	478369.778663209971	4589.1494786382
0	9430	478633.609388906566	4775.6337530095
0	9442	479739.434946737569	5333.6103256713
0	9456	480475.958313667123	3634.8038322551
0	9465	481261.74769064343	4246.1972514741
0	9503	483684.96710567048	5959.3109432401
0	9542	485620.824126366284	6048.4972175001
0	9551	485922.491461603226	4487.2421793939
0	9571	486724.011224987103	3989.326351553
0	9576	486994.373673225456	4183.2693366706
0	9588	487659.517972792705	4242.2378500589
0	9593	487960.282337858675	4009.9593965717
0	9610	488543.891219808347	3851.2483007602
0	9619	489549.822550027043	4738.5396190461
0	9653	491616.342570748142	5509.3965741675
0	9671	493264.026691460757	5285.5079038087
0	9683	493699.087091963112	3931.0968403591
0	9688	494007.116874304497	3629.7015645348
0	9706	495822.04779581063	4805.0635777969
0	9733	498202.166987896687	5558.9931948311
0	9746	500100.15914416238	5085.4833508617
0	9751	500369.537563796341	3879.2129412579
0	9835	504800.704015492847	3751.8059967429
0	9843	505102.122515173744	7630.0318675502
0	9857	505666.58094063394	3943.3442735354
0	9862	505994.651857579801	4250.3277943298
0	9874	506399.215182953622	3704.4704820685
0	9879	506686.373168139787	3448.3435911741
0	9887	507075.522932731781	4007.3579669512
0	9896	507588.592345886952	4343.7016001065
0	9905	508206.501921357566	4041.4639912818
0	9944	511957.092196321873	3232.6303452598
0	9949	512223.444206843672	7207.5901173063
0	9967	513475.833322042046	4490.7200207146
0	10013	516005.701829141025	6221.0710747665
0	10033	516973.960095809906	3421.7233844564
0	10075	518395.406270816923	5936.560777056
0	10083	518670.670350758821	4571.0562344582
0	10100	519281.916989436198	5141.0251200072
0	10110	519869.079310222032	5077.4405230255
0	10122	520573.400071733727	4794.2547154047
0	10133	520885.618731543962	4083.448063703
0	10150	521475.920866296712	4726.6406551022
0	10164	522134.920936657491	4633.6169585965
0	10175	522422.743624538143	4647.9471301329
0	10186	522977.713198449671	4344.0824161811
0	10211	524326.818621082332	5216.2522537572
0	10220	524772.928656905465	4138.9479303085
0	10237	525852.326697153549	4457.2156017214
0	10254	526552.334735651104	3279.7752184466
0	10262	526836.260304614878	4487.4661548721
0	10297	528665.427973585378	5164.2801160942
0	10314	529529.052018856853	4296.0256120303
0	10336	530225.411360348405	4286.0084181778
0	10358	531068.634329055405	4104.6706211827
0	10367	531366.571950729104	4087.4720537875
0	10387	532357.923035532613	4748.34702724
0	10420	533589.856343797	4704.5509403645
0	10437	534154.563279509783	4568.1340665758
0	10451	534820.839168717274	4734.8505822712
0	10456	535183.035607805042	5001.6239219207
0	10471	535603.958626645229	4447.6632884693
0	10481	536206.506620212412	3893.3572292165
0	10490	536587.659906753552	4096.3928507405
0	10501	536946.269353396994	4133.7487511971
0	10515	537695.615696994638	4273.5129373087
0	10528	539219.603970555684	5158.5432134329
0	10548	540146.740066739104	4694.4329499484
0	10609	542572.329233251985	5677.6666193912
0	10618	543458.874578790766	4292.119459438
0	10633	544267.811483838293	4329.6267730399
0	10644	544535.981980188231	4592.7075153073
0	10649	544832.67953854358	4175.052039264
0	10658	545095.508464643069	3999.9213629888
0	10666	545351.856936104648	4098.920459429
0	10677	545951.275146740717	4586.4261369343
0	10704	548890.502409351201	7447.2344803692
0	10714	550075.679885584629	4938.6597604497
0	10739	551108.600167347475	4628.3753509668
0	10785	553738.819765048675	3547.5983616225
0	10793	554083.948420271683	6482.9731720853
0	10818	554869.459197546455	4485.6983757937
0	10830	555192.992448634546	3730.943454736
0	10843	555795.493976882578	4551.7103103357
0	10849	556073.944804014538	4574.6403593569
0	10858	557045.009316990217	4463.7475845648
0	10878	557696.336899034637	3918.7491067219
0	10895	558636.440485316646	4402.5326030731
0	10917	560114.146233481977	5211.101053173
0	10927	561134.923220423522	4038.8129515936
0	10935	561714.219115794028	4210.9047654211
0	10947	562740.149778730491	4288.7418954929
0	11028	566020.678987956779	7291.2715367451
0	11043	566593.045778636275	3830.36511713
0	11048	566888.346938343671	4310.4151495655
0	11060	567246.180586905172	4272.1173708696
0	11116	568916.925351181463	5978.5077369417
0	11121	569220.65093482109	5382.0457610879
0	11126	569551.0089488429	5556.9520775943
0	11135	569839.680938988268	5630.7930190196
0	11154	570452.638386402529	6411.5862566922
0	11160	570701.197761407822	6101.8577106497
0	11171	570995.073158247669	3997.2406348806
0	11185	571687.548206401573	4435.7528838113
0	11193	571987.107068612963	4119.6314250322
0	11227	573156.234693604599	5537.4273554964
0	11237	573720.72667887604	5534.7535099209
0	11257	574576.114068798855	5022.5539243927
0	11274	575131.216775241338	4189.3375581465
0	11282	575445.403399281195	3614.1642518813
0	11288	575725.824402436528	3649.6278446436
0	11297	576614.480099188538	4457.665932205
0	11313	577326.491605003636	4310.7731796956
0	11345	578465.977790038432	4470.2616685145
0	11381	580015.352377336798	5439.4120574375
0	11392	580620.877235219012	3904.1329912658
0	11409	581497.83386492979	3980.8508221009
0	11434	582385.525876890615	4181.1619744659
0	11446	582668.42594063913	5110.8908945395
0	11451	582995.628957342864	3870.5351246043
0	11456	583324.771689555059	4889.2935465456
0	11469	584231.149303305542	5062.2402493114
0	11474	584513.215228752772	3957.2260784323
0	11486	585609.78074031799	4342.0084473251
0	11543	588605.872052761643	6957.7413248459
0	11551	589188.373984590431	3693.5631385876
0	11563	589806.257324027493	3307.3291941061
0	11568	590090.165804233869	4389.6488376252
0	11577	590403.083736950712	3518.8790697888
0	11585	590794.651322881333	4324.0622305466
0	11622	594491.989265503981	7297.7218731392
0	11656	596282.425965517983	5456.4473963524
0	11664	597014.43460220011	4632.8973488435
0	11685	598121.871535644828	4354.3845847497
0	11693	598388.59867494253	3826.27694141
0	11707	599177.456337605732	3705.3337185217
0	11725	600818.756525525422	5145.8831303642
0	11759	602299.040146610163	5013.3825043293
0	11795	603802.59428740333	5628.4812081555
0	11815	604424.690514169997	5217.9694641339
0	11823	604712.532817080323	3614.2066472151
0	11834	605302.388778550041	4229.0578733245
0	11849	606062.657134530834	4398.8211387773
0	11860	606405.984535676606	3617.2301257228
0	11871	607002.703353260679	4372.092233781
0	11876	607285.655618624214	4331.2499059656
0	11896	608063.059882920957	4290.4154390305
0	11919	609538.985859997485	4979.9071652404
0	11932	610820.683100551613	4639.8200156411
0	11937	611123.173122617605	3744.668618862
0	11946	611706.136925826304	3871.061416808
0	11993	615488.293824457764	7203.8720481739
0	12011	616808.194841284067	4734.8940258562
0	12016	617098.501671101179	3791.8710701324
0	12039	618210.688262960812	4460.9169425378
0	12058	619152.068021609412	5009.7561978562
0	12087	620897.197020353988	5489.4406917258
0	12112	621822.634474229884	4270.4829237453
0	12118	622085.098427646877	4219.2194768907
0	12138	622802.786078413902	3486.6110398063
0	12143	623095.036778532759	4699.4447911648
0	12158	623911.266379483563	4052.0712883771
0	12177	624784.950799031193	4006.826686423
0	12189	625732.65309164583	4514.2851408934
0	12203	626893.482252139859	4696.8033221532
0	12215	627356.773450319433	3650.5965880687
0	12263	629891.341758095842	5736.6639458965
0	12271	630238.342479973987	4564.0611116414
0	12291	631152.296137664484	3885.5434655183
0	12320	632263.626826679638	3786.3524119454
0	12325	632530.427132402172	3493.3482771671
0	12330	632793.905002299283	4565.0813764771
0	12340	633903.888996075477	4689.4495706959
0	12348	634621.97393292306	4106.7900667783
0	12357	635409.598986699935	4292.3346138817
0	12426	639316.846426633712	7595.6710553367
0	12437	639595.729331914847	3124.9730347214
0	12443	639898.920036364792	3968.621626888
0	12455	640717.167933099395	3616.4059476301
0	12460	641053.505838072615	4406.1580684051
0	12472	641778.833574542442	3316.542640571
0	12488	642363.870322627214	4655.8258070806
0	12529	645402.538181289431	6788.4923637645
0	12557	646329.485823855844	4591.9581942777
0	12562	646632.160232440595	4306.3940060946
0	12572	647967.890017875267	4531.6219591807
0	12583	648298.278611597735	3781.086644317
0	12597	648862.815893235235	4113.0720891236
0	12606	649584.419038277087	4096.1392054259
0	12622	651187.131261705887	5470.8339719857
0	12698	654888.035309318443	3920.498738139
0	12712	655169.453609964505	6896.1161317962
0	12735	656076.679201452091	5149.0835586139
0	12740	656379.354302418852	4960.9563878843
0	12748	656706.111498841388	5303.4296548691
0	12768	657376.089356273306	5577.7249157244
0	12787	658268.721027709567	4331.2132312566
0	12795	658570.046559226807	6731.8132272124
0	12804	658895.235646330686	3856.7237560504
0	12809	659180.372257411011	5036.676294513
0	12821	660020.450648161888	4806.2939841357
0	12846	660931.698357954821	3561.3593234856
0	12855	661282.130475840475	4824.3703415117
0	12881	663484.454450984555	5840.128240879
0	12898	664217.277961728436	4041.7058374657
0	12909	664532.334003878693	4790.7081141446
0	12929	665512.46966200815	4450.1484127532
0	12941	666489.785334423158	4977.1668489606
0	12955	667682.675949242274	4368.199858411
0	12964	668342.418268606068	3843.2398904521
0	12973	669362.163593998766	4829.4633097933
0	13025	677085.597696812454	10747.14574184
0	13033	677389.366433377281	3973.4227972636
0	13039	677720.844356093377	4205.2253676231
0	13117	680731.306779646475	6649.3159907997
0	13123	681047.061491969188	4628.0842957041
0	13131	681590.300992459283	3741.1388329271
0	13143	681891.888255515048	3550.8336997183
0	13151	682178.800402339313	4197.5226393814
0	13168	682759.935115994529	4511.3747499995
0	13176	683053.173077158838	4555.3622684529
0	13187	683345.467595011739	3822.7970346215
0	13201	683905.237730223533	4273.9606533902
0	13232	685777.846999922312	5719.4216962096
0	13264	687169.551777614809	5009.8678530521
0	13269	687493.987863508525	4239.0107798218
0	13281	687769.6706158597	4014.6173935615
0	13291	688400.32803527723	3842.8411515532
0	13304	689684.384524426329	5066.7613083906
0	13321	690353.376319627433	4118.9167152394
0	13371	692086.674934002103	5785.5381874548
0	13385	692867.066994724863	5193.4999336982
0	13400	693984.318381142781	3618.731717444
0	13405	694345.064066714403	4890.8730893355
0	13417	694620.949392550651	4271.6939701969
0	13450	695819.736724174204	5284.8498842513
0	13455	696086.084741469434	5405.0387612248
0	13461	696367.766794204569	5337.6050872573
0	13495	697990.411831985767	3618.2898279301
0	13506	698391.80348365117	3788.7205510513
0	13511	698733.713465583145	6700.5001230406
0	13567	700477.281614267112	5678.3547854813
0	13573	700805.187713670393	3788.4429359307
0	13581	701098.76370117515	4669.0405682627
0	13595	701808.770021917006	4435.2508271465
0	13626	702830.57417092641	4009.1083718681
0	13634	703103.468865636916	4153.9527208477
0	13643	703396.725233175701	4161.106999805
0	13657	704009.664230085473	4686.2664819445
0	13662	704341.562534026641	4771.3001818719
0	13682	705382.05906277162	4420.0450697406
0	13688	705714.00344842114	3785.7625295897
0	13705	706671.337779486678	4566.6856560836
0	13714	707719.201729485155	4587.1775434398
0	13756	709479.464197426169	4983.3518208514
0	13766	711226.569096936416	5208.2247216237
0	13778	711916.87770333575	3780.9505329353
0	13786	712213.714936139049	3858.347551705
0	13791	712496.646198311477	4260.6140868529
0	13867	717191.807823490794	3546.7898529295
0	13884	717846.13891607929	9167.5659836391
0	13906	718672.37991990392	4659.0731950967
0	13914	718956.610731855608	4057.9800886737
0	13922	719206.875267168105	4133.5478286198
0	13931	719484.154832473719	3191.1236666054
0	13936	719784.561179854362	4127.5258350088
0	13944	720167.025703570602	3719.0018176872
0	13957	721378.62755349197	3854.6160125372
0	13965	721733.118766744992	4619.3402768398
0	14017	725091.6794745116	7004.7755563509
0	14026	725437.853040650694	3841.3365222605
0	14043	726810.624498148294	3801.2874058265
0	14052	727099.417660753688	3852.2169936961
0	14060	727441.989902215414	4733.5708531828
0	14091	728915.382989627569	4757.3155983754
0	14104	730606.689892605539	5365.6726518254
0	14109	730918.884090307439	3480.2655089318
0	14118	731899.289687253543	4250.5314400234
0	14155	735717.502383418532	7446.5877306275
0	14166	736447.917997396998	3990.7488199974
0	14175	736733.721467606572	4151.9450297464
0	14203	740469.231011703245	7754.5880323509
0	14217	741262.755267880597	4545.6428604321
0	14228	743399.407424815528	5638.7047239352
0	14275	749563.722614826453	9403.1199859648
0	14286	750035.73500181024	3702.6914480197
0	14292	750329.987093096511	3217.0723958095
0	14300	750785.59365705852	3482.5470051718
0	14352	754011.648262359178	5983.8988037666
0	14373	755580.846291760092	4746.3624301818
0	14381	755853.865638191865	3477.4755723523
0	14390	756147.011705489626	3976.1824151546
0	14395	756473.334786601896	3937.6518940834
0	14420	757370.805621197156	4002.1489101584
0	14434	759753.451947790863	3269.704434217
0	14439	760101.433822225972	5814.7361016892
0	14509	764959.032971933632	8430.6046034748
0	14517	765418.468523919797	3516.1333190021
0	14529	765789.173692826571	3867.4769298093
0	14537	766078.974324349939	2960.5692761827
0	14551	766669.176780441451	3658.8103547095
0	14568	767413.473024571974	3661.5620570471
0	14576	767772.688601944031	4124.1543683473
0	14589	769478.125171376348	5476.791370503
0	14614	770395.223558139911	4424.2888767627
0	14696	773796.590689841094	4003.9192121092
0	14708	774105.637377684721	7296.3225899527
0	14718	774754.521814698476	5334.7042582367
0	14727	775041.206381110151	4517.2736409388
0	14735	775338.110488192738	4988.7918785403
0	14740	775652.041657476652	4472.6502689546
0	14752	775916.579611598694	4033.0562641315
0	14762	776615.652696870718	4563.9948291163
0	14774	776956.036698285315	4354.1730988256
0	14785	777264.374379764356	4546.108503384
0	14796	777824.216241460443	5037.7278006388
0	14858	780648.874891508708	6625.9868687102
0	14864	781008.240896450003	5209.2648677391
0	14872	781603.021749587677	4397.1357185794
0	14884	782291.046282985818	3813.3320509461
0	14892	782585.694366977168	3522.403357544
0	14901	782855.150366836773	4030.0242448377
0	14906	783134.310782003594	3743.0737451089
0	14914	783463.782603284416	4047.7336953456
0	14951	787383.081482939145	7516.5278388388
0	14960	788331.229597267435	4190.4294162292
0	14969	788846.874212622695	3592.7078674008
0	15017	795749.029839318228	9723.1770753032
0	15025	796087.973174636879	4090.4188048153
0	15078	797871.911090777381	4997.3130953485
0	15090	798138.31735884306	3929.6667371142
0	15159	800509.387977771242	6034.1056222404
0	15168	800848.190929819978	4692.1111968746
0	15176	801137.931745593914	4907.2914024776
0	15185	801476.270410849523	4751.4309372829
0	15193	801849.893286426053	4959.2954106658
0	15204	802138.095976604898	4008.2134876031
0	15249	803713.008812999458	6527.9649069285
0	15254	804004.122287105856	5455.6510704299
0	15260	804285.968882877462	6202.0724786602
0	15265	804566.783085467675	5856.4294522522
0	15270	804876.53425139913	6169.9524162007
0	15282	805191.876150465295	6373.1945702687
0	15318	806400.361995020792	6856.8343820598
0	15324	806702.215906402949	4448.4599960272
0	15329	806984.539440627037	4518.9434747799
0	15337	807296.448044002218	5442.706803811
0	15355	808486.298927833087	5960.5892317767
0	15360	808810.993403175552	3870.9113710715
0	15372	809572.656860445626	4620.0718174382
0	15406	810950.22162244427	5619.0655144837
0	15437	812779.764478237673	5744.1085231838
0	15463	813587.690800853879	4251.4357158597
0	15496	814739.207952445841	4660.9286457588
0	15504	815047.738911334579	4135.5255807544
0	15523	815981.423844615581	5644.9221726049
0	15532	816358.047425755512	5402.9458930363
0	15552	816995.943566156246	5876.5317435154
0	15563	817328.035263132322	4327.6042587162
0	15577	817935.631885181868	4364.0972412612
0	15591	818275.804607997974	4871.5103239989
0	15630	819866.847626824628	6197.5570042331
0	15635	820198.536078679169	5196.4832363986
0	15641	820458.024295447701	4308.003456832
0	15646	820759.963205868858	5483.5843274323
0	15655	821314.111209050206	4285.8867189844
0	15663	821981.066034573918	3955.195677576
0	15675	822323.700089489961	3565.9443535655
0	15689	822920.100934153494	4854.1493326095
0	15716	825438.602581645792	6660.1043216099
0	15726	827229.553902104611	5050.3131849292
0	15737	827616.078715272035	3795.4502486825
0	15754	830928.862388377218	6204.8644101868
0	15821	835067.347208259594	3224.9306810586
0	15846	835990.523646293157	4415.8097684672
0	15857	836310.746125923816	8912.8517806842
0	15866	836621.060656969467	4519.5787578261
0	15904	838197.149921580487	6191.0058393848
0	15910	838533.96011688413	6124.505366283
0	15918	838863.636318911298	5846.5959687997
0	15924	839158.05373389461	4106.2908734536
0	15944	840119.723399863317	3198.8194048595
0	15952	840399.728277147985	3302.2556395039
0	15960	840624.886357381425	5388.5270069865
0	15969	841006.784080332901	4453.579003611
0	16000	842996.338919920301	5838.5012451487
0	16010	844388.88454008827	5033.375762205
0	16018	844947.644090188018	4309.8824458528
0	16034	846105.277496846246	4752.5926400297
0	16103	849171.833948183462	6794.0958406724
0	16115	849475.57028115907	3623.1441571347
0	16140	850353.153560447022	4301.0153125803
0	16159	850978.098341099684	4633.3580573003
0	16171	851266.045337559788	4952.3965870274
0	16179	851539.54555493922	5422.184457105
0	16196	852153.847036903004	5640.0029021352
0	16218	853003.524581049762	4790.9203868291
0	16223	853325.128072186114	4052.7095587204
0	16231	853609.78472672246	5342.1916768561
0	16240	853901.904731530739	4323.7319019829
0	16268	854962.587965751816	3483.6020575212
0	16282	855639.299447583002	5394.4931589963
0	16290	855916.370243590517	3900.3895255658
0	16315	856955.499171540007	3258.3557723517
0	16321	857306.987659587	5212.0059080412
0	16333	858200.109820000107	3880.0754576985
0	16347	858969.26070857371	4059.2371828961
0	16355	859482.969543958041	3599.4683043606
0	16372	861493.409265789713	5563.2815624824
0	16413	864914.902044987674	6802.8617288391
0	16441	865826.445702563121	4505.538222784
0	16449	866101.062710195177	4646.6610315934
0	16460	866678.611715671008	5067.9558133032
0	16508	868562.686870310527	3664.316641876
0	16525	869183.566026186626	5872.3952745144
0	16538	869787.590955444488	4869.8118641307
0	16555	870384.55202016735	3410.1653454847
0	16566	870700.94565374689	3476.2162168976
0	16572	870960.487035519379	3561.0054910869
0	16580	871354.954266455882	5382.7850586399
0	16602	872241.626558664519	4329.8184211493
0	16617	872690.314325562336	4305.5849744462
0	16627	873316.049460260009	4405.3661298097
0	16656	874907.367589845272	5205.2531724933
0	16673	875440.951933630652	4302.057947042
0	16695	876330.418679836838	4747.5788615812
0	16704	876991.044028943318	4411.7328264717
0	16724	877937.388378805427	3909.7669187752
0	16732	878239.539796201207	4059.4524610023
0	16738	878538.558694778879	3888.7136977199
0	16747	879340.292401100688	3980.8025479428
0	16755	880103.11439549177	4516.3798023547
0	16800	883848.17473428931	6854.0267341048
0	16820	884697.977919511638	3901.6244714168
0	16837	885831.44813894813	3354.3382832439
0	16842	886125.19736301663	4358.1355080487
0	16863	887363.264314464252	4659.4872772151
0	16877	887930.896431610071	3874.2463151614
0	16895	889887.203688239507	5284.3899973697
0	16915	890361.099251150963	3906.7376668062
0	16970	892661.097883387097	5396.8121697024
0	17012	893820.094169120819	5567.2291000963
0	17034	894684.027515907552	4562.7249500198
0	17052	894985.173666745264	4787.1727566203
0	17088	896168.539797336422	5895.0160884546
0	17100	896447.241979244843	6087.3221562928
0	17113	897038.228085828487	6024.075815485
0	17119	897286.885995891042	6916.945349469
0	17124	897551.929271865687	6235.4163835674
0	17129	897830.41495533439	4951.9130932184
0	17144	898145.221473292507	5434.4920537289
0	17166	898998.419824717439	5908.5134783644
0	17171	899349.853639170842	5822.8553231888
0	17182	899607.824927052378	6062.9260864862
0	17201	900389.266672180751	5575.624503691
0	17206	900661.567894988254	5818.1070187329
0	17215	900954.32958085704	6049.7382914958
0	17259	902373.415477583342	6093.7385040614
0	17268	902683.271143472754	4604.390436859
0	17273	902982.58634304162	4650.6858493856
0	17279	903313.919029661691	3845.7454894997
0	17295	904074.299232955209	4553.7568858728
0	17310	904846.417852902348	3775.0346246855
0	17316	905109.529855515555	4198.6298039354
0	17327	905417.381599877753	4280.1083062453
0	17399	908131.52587991323	6634.613886065
0	17405	908432.645826943309	4952.1845236865
0	17413	908817.218582177877	3606.5499902388
0	17421	909109.573416391331	3696.2017281707
0	17447	910018.268759726321	3328.3415715992
0	17453	910370.508581629499	4572.8110346574
0	17464	910702.87554409154	5078.4814198477
0	17481	911298.317685518165	5675.9568904741
0	17500	912237.209090441404	5500.8551177725
0	17505	912514.820525177475	5661.8910855625
0	17524	914361.06350568022	4930.1141991799
0	17553	915320.14404771237	4757.4814758829
0	17591	916948.196488361528	5839.9335444445
0	17599	917330.019835906247	3235.5327219116
0	17611	918048.517322869675	6763.9982879501
0	17619	918313.870663992469	3233.6122926174
0	17627	918631.168216836131	4499.6859435626
0	17656	919554.267830769544	4473.7529288756
0	17669	920155.642301465613	4970.7950349918
0	17675	920391.494564315642	4894.0493959944
0	17684	921788.315105601932	3431.7925717524
0	17696	922168.405723056425	6418.3869847153
0	17712	922757.794658633741	4012.1026899655
0	17764	925888.447441111112	6401.8193216474
0	17781	926470.821727384394	4567.3656601727
0	17786	926732.503301136691	4020.9357832375
0	17797	927200.046940950317	3181.9029930159
0	17803	927566.126351180792	4552.7179000576
0	17814	927988.937990856812	3915.8013999383
0	17862	929785.553725916152	5697.7091979347
0	17890	930958.467772384888	5368.0137218
0	17907	931592.093334175442	3692.914149492
0	17915	931873.940127334449	3789.6203141687
0	17920	932203.450668727445	3891.2395630374
0	17932	932612.862034363474	3982.8469683222
0	17949	933492.712255188438	3406.7146233695
0	17957	933788.067858141734	5125.9088587557
0	17963	934076.264478764318	3619.7604867599
0	17989	935932.580123147475	5185.4416923782
0	18034	938018.042397285746	5617.2285272505
0	18042	938318.577864822634	3910.6291445723
0	18073	939493.293945237721	4855.9882910022
0	18084	939806.985414293556	3081.8876640831
0	18093	940097.680106795155	3855.8282721021
0	18124	941408.749385440332	4426.4107897729
0	18135	941993.947819220826	3828.9542896946
0	18143	942282.355597348531	5031.6697429216
0	18154	942558.323460048885	4137.9233454115
0	18193	944005.509593525811	5425.0064811696
0	18202	944317.516319302354	4506.1954271109
0	18207	944615.473048158826	3852.078545767
0	18263	946705.400348205972	5461.5717228424
0	18272	947032.73970560575	4681.9415261422
0	18277	947285.107030166496	4735.9904027756
0	18285	947559.319261694726	4872.3410515859
0	18291	947839.106027628582	4364.4670621505
0	18299	948233.465015568882	3349.5357452386
0	18308	948666.311228319107	3451.9871284474
0	18319	949062.762025250057	3644.014834411
0	18324	949423.420378437332	4139.2112155794
1	1176	52076.419268818538	0
1	1185	52502.526135976559	0
1	1202	53727.214362386865	0
1	1212	54761.533640260233	0
1	1235	55626.920328987637	265.38248990405
1	1240	55874.677995290438	317.37022547976
1	1248	56199.914325031187	197.13230838183
1	1270	57220.528734819544	150.50970612345
1	1287	58045.001873056054	251.60709853073
1	1304	58695.220709655276	205.46022534783
1	1329	59693.611528990167	0
1	1338	60023.835132314026	0
1	1372	61375.495796099916	240.8395833734
1	1381	61664.055077148924	514.14337214573
1	1389	61905.583040220824	629.27031058747
1	1397	62249.370997203433	972.02364318728
1	1403	62557.960240325481	923.3656419785
1	1411	62828.953216713041	807.03065791478
1	1428	63387.021568657884	144.95941586961
1	1450	64307.695399062581	244.23750519413
1	1461	64642.742213355639	38.40601360846
1	1501	65984.961709679819	340.28459651298
1	1506	66260.92252579437	295.62990849111
1	1528	67127.722211208117	310.79891555626
1	1539	67456.376566610217	238.92516537354
1	1578	69119.692856075608	279.20568738086
1	1587	69413.796396022636	387.50852135445
1	1603	70045.888506997411	326.0038548679
1	1615	70337.491452610794	61.896301633314
1	1628	70891.469564424277	31.324269801503
1	1637	71114.795725845108	53.403877668362
1	1656	71929.014307819532	68.298940443722
1	1664	72419.339046437427	0
1	1723	74529.56935643808	296.85360260925
1	1731	74851.592162834463	170.27643192762
1	1758	76990.751635972391	0
1	1785	80025.381169983797	0
1	1802	80994.369895296213	14.593646605029
1	1823	82671.670058844772	42.392065219348
1	1829	83009.016396104854	352.41169816257
1	1846	84404.272878941887	0
1	1876	86592.240206362179	251.85427821623
1	1881	86948.162612143952	482.54072388693
1	1898	87682.2964668382	119.76145288559
1	1907	88384.501032107033	0
1	1916	89629.981699539487	0
1	1936	90238.514112402926	73.822295655672
1	1944	90564.500558137715	196.5433578963
1	1969	91459.158213765119	254.57447070939
1	1984	92722.582799732162	0
1	2007	93297.042637973088	180.22296289703
1	2015	93639.584816111647	390.33271642135
1	2043	95188.769777086277	0
1	2059	95778.237224733835	221.32421721928
1	2086	98171.204544336569	0
1	2103	98714.140185447225	102.24318840414
1	2120	99264.099083081894	266.86219621227
1	2128	99927.122208983906	0
1	2146	101764.869483273372	0
1	2158	102090.838759221881	304.83737289359
1	2189	103757.118346930205	0
1	2198	104434.125984596929	0
1	2224	106353.022914979459	0
1	2232	106744.84025183085	0
1	2252	107420.404971044715	252.29216670525
1	2260	107661.409576144605	232.26629110049
1	2274	108310.365932157015	110.19790472029
1	2303	109929.819073907449	76.058528127858
1	2317	110584.593114448203	0
1	2343	112370.48159077457	0
1	2369	114403.882070833887	0
1	2378	114816.900026961835	0
1	2386	115091.199758625634	82.545168205936
1	2404	117163.632012234332	0
1	2433	118051.978772583066	181.40604420492
1	2441	118363.662464718423	421.63497171806
1	2455	119344.546091439166	0
1	2472	120258.838483762234	113.85029425435
1	2481	120668.87495246992	0
1	2492	120979.905603727405	193.33912058162
1	2509	121527.906456143054	24.583556248904
1	2531	122746.324136939833	0
1	2568	124509.610649925959	260.08576717739
1	2579	124846.766364082454	463.13218076096
1	2585	125140.942827170516	558.16626060535
1	2610	126067.272321012073	324.41242486881
1	2624	126376.852778446722	379.13518663337
1	2636	126735.507969185123	646.75435142752
1	2641	126996.490413022248	702.5920610782
1	2646	127298.226985349992	949.61370313586
1	2655	127550.920699620317	900.94197948005
1	2663	127873.947352242296	1202.7948143163
1	2680	128557.406569811753	192.17233687473
1	2700	129242.107842813603	79.277563778333
1	2708	129582.435576196573	365.34668193791
1	2722	130163.916677664773	31.327258528594
1	2741	130724.564884288805	28.017170558598
1	2756	131034.282296371177	203.04114564962
1	2811	133150.876856667591	109.80343427033
1	2858	135667.388114179685	0
1	2876	137236.112182564959	0
1	2884	137537.399342273	240.16657412034
1	2893	137871.808218374929	272.67390591199
1	2901	138204.072924291279	171.94451949757
1	2918	138941.683799951674	201.95448851222
1	2927	140015.781095490521	0
1	2942	140365.145333156183	95.024227124853
1	2967	141276.63069164508	230.30822742009
1	2975	141571.408193397182	105.35452021892
1	2983	141880.767398016009	10.453773975016
1	2995	142203.775342116125	72.457940154038
1	3020	143197.124816055059	74.243773085984
1	3069	145352.797940010923	254.87499631579
1	3081	145647.18585329758	78.717002475429
1	3095	146314.269438474528	0
1	3112	147475.602678310445	0
1	3135	148374.571609353625	174.77542798983
1	3140	148651.260731230058	317.54367056863
1	3162	149570.513122889733	0
1	3171	149824.503446174273	103.74098224494
1	3179	150156.117284460112	0
1	3190	150484.82333996534	233.61236518759
1	3224	151863.804544579416	237.80464612514
1	3235	152155.030416468172	486.38940104084
1	3241	152442.392099414834	507.58414442851
1	3266	153320.665403688959	169.35500549707
1	3282	153892.102019332259	94.844650049715
1	3316	155300.133273851572	129.07475543826
1	3342	157131.887023982449	240.65675520128
1	3364	158136.251436515791	0
1	3373	158387.86965777482	141.65953669685
1	3381	158966.225363151612	0
1	3391	160278.762999908897	0
1	3408	161002.354072359499	0
1	3419	161277.875250961654	168.74227718262
1	3433	161598.425114391524	378.84106113689
1	3442	161906.594115459673	463.65177252311
1	3495	164584.556848547557	144.54826998879
1	3517	165467.166630307704	55.93987434741
1	3526	166523.760585725618	0
1	3535	167366.833769783979	0
1	3552	168029.235063747271	139.12300219749
1	3560	168331.646638902031	52.951226928078
1	3569	168667.404377606495	99.233835057275
1	3591	169172.431133828891	143.63387718797
1	3597	169465.316490923775	323.45641958482
1	3610	170146.443855929924	0
1	3652	171924.636857013687	188.62432103099
1	3664	172210.332736995019	87.0976820952
1	3695	174199.723269829035	0
1	3704	174520.34790983316	164.23212237531
1	3718	174791.960133007042	213.01059452288
1	3726	175092.860401882319	376.32694944215
1	3735	175407.497369402608	224.44497641794
1	3754	176286.818865731686	273.73743184694
1	3805	178975.302868550183	289.13628320003
1	3816	179265.683367173882	200.20709786515
1	3833	179837.009862292909	249.29024879464
1	3841	180138.964663151784	512.18945981077
1	3846	180458.906275631682	392.98207800746
1	3882	183072.624859532841	312.29419360999
1	3893	183379.755339421376	220.37903943761
1	3915	184653.739067414529	0
1	3924	185555.404756262742	0
1	3945	186628.600643214486	155.34897521813
1	3953	186935.774938607757	130.37486694841
1	3964	187210.642771798071	145.82719477305
1	3970	187498.577163960739	306.28463055485
1	3981	187825.552975989479	144.44522120277
1	4009	189323.562269889733	0
1	4034	190293.977114752505	154.10350324012
1	4045	190547.103124871083	104.67737872795
1	4054	190880.047016228231	100.23395237583
1	4094	193556.872720906339	0
1	4129	196122.165761930696	0
1	4147	197688.897449395799	0
1	4156	198515.476183262902	0
1	4173	200010.872056059075	0
1	4182	200338.744790786511	233.46900865165
1	4191	201117.4295023929	0
1	4210	201683.446037074367	127.1139088361
1	4224	202236.897627735972	98.033869237373
1	4233	203075.325830772689	0
1	4247	203416.170113506277	251.30565083308
1	4283	204988.430416684508	127.87763922751
1	4300	205611.03575227075	260.31945672686
1	4317	206301.378224898718	103.0586026442
1	4331	206608.17828551362	38.9535942522
1	4342	206938.594499354207	352.77997349402
1	4354	207229.30800510781	402.88503737726
1	4359	207521.087807405855	620.01499212999
1	4370	207817.828247467117	870.44279671135
1	4376	208156.626698676362	1195.1049659265
1	4381	208458.916903206876	913.60599315622
1	4393	208781.59897702287	225.48300031656
1	4401	209049.998557180231	86.54406068697
1	4485	212158.366525257531	252.41184042001
1	4512	213424.620397127321	54.119470284644
1	4526	214044.926681750942	0
1	4534	214493.361663379491	0
1	4543	214776.781335156953	89.994321094059
1	4551	215076.599065057722	252.42843070983
1	4577	217118.76999531878	0
1	4605	218002.058104824871	125.43366857085
1	4630	218895.070043732166	195.69296917368
1	4639	219150.288969154175	340.53466305278
1	4644	219439.869830702845	434.96764830637
1	4652	219770.99825097269	298.6404738663
1	4664	220053.99748126078	89.959813739801
1	4686	221535.305942579846	0
1	4728	223149.991187672748	273.52841846475
1	4756	226524.287589795338	0
1	4773	227186.456909244675	256.17959212013
1	4782	228059.614851659634	0
1	4800	229493.228052934146	0
1	4817	230232.976603577176	265.69630841116
1	4828	230523.983290409298	192.03945491238
1	4836	230829.081867414135	416.5794699876
1	4851	231817.768716908585	0
1	4867	232455.809393252869	4.138097953008
1	4876	232784.719890971736	0
1	4927	235522.994466816031	21.17742207772
1	4938	235850.928039866777	14.459674492637
1	4947	236140.460497508166	98.066448659789
1	4962	238147.932596495798	0
1	4996	239764.695585970765	0
1	5004	240099.087642826574	61.961213470245
1	5021	241104.971291903492	191.85500210791
1	5058	244708.61967415035	0
1	5066	244966.914720098043	0
1	5076	246703.930280236145	0
1	5093	247797.387820892329	318.63684531963
1	5105	248140.818704579043	325.46191568958
1	5119	249584.762846429798	0
1	5128	249914.727680741663	0
1	5136	250183.933579532692	65.241273027223
1	5153	250768.490030306005	66.855460493993
1	5172	251357.816375838533	24.868771842233
1	5186	251979.081399875521	21.951931907148
1	5209	253095.851211176687	334.80867752132
1	5221	253482.697220121083	500.03651043243
1	5226	253790.981203803068	741.786280659
1	5243	254383.051177174498	170.73427985291
1	5273	255678.812384581442	68.613368680925
1	5287	256312.389583128135	0
1	5310	257057.171199845088	36.942892094342
1	5318	257319.103580082287	176.78578211761
1	5372	260396.191557060316	0
1	5389	261723.850761891118	0
1	5398	262019.923244995328	131.89708734885
1	5406	262564.463309258777	0
1	5424	263978.90429293003	0
1	5432	264274.046467676441	157.06243413733
1	5479	266880.651377043522	228.77759867283
1	5487	267190.661766857817	435.46774535373
1	5501	268168.953343644416	0
1	5509	268455.352665160213	227.11361902649
1	5518	268697.399775809145	30.322145799923
1	5526	269388.459724913131	0
1	5538	269684.932817671068	207.70124246058
1	5549	269987.231151858682	365.82497248575
1	5557	270269.022795688101	300.55349829198
1	5566	270585.522716852955	325.97259919904
1	5574	270946.054105695158	79.183836575224
1	5630	272953.959288611868	70.587900619603
1	5652	273571.879149614324	11.611213169577
1	5669	274213.082665832578	292.39368652626
1	5688	275071.502273838101	171.54969280319
1	5708	275658.027998808335	214.13228204149
1	5713	275948.792439186385	440.17178667814
1	5744	277317.62558127887	225.05937817524
1	5778	279525.444137524983	282.26520991301
1	5787	279818.67158148941	92.652029437271
1	5798	280107.955459922583	77.682682004852
1	5814	282351.857678659635	0
1	5847	283855.356601506415	0
1	5866	286309.986502504376	0
1	5883	286999.389614096223	287.58852933209
1	5891	287379.082455118979	0
1	5903	287738.342526359365	158.69365863302
1	5911	288011.905160182032	353.75707076462
1	5917	288311.045155018439	385.12929003347
1	5925	288598.160719275075	77.207643699447
1	5979	291177.375997856913	310.06449563462
1	5987	291471.683152198695	38.935844735543
1	6010	292601.463630665757	0
1	6021	292904.235793526452	28.757116056905
1	6029	293212.72960590685	327.70039299717
1	6038	293539.67840864476	382.00572158911
1	6046	293882.904765282466	559.90335483744
1	6060	294456.208198771573	66.345512847345
1	6114	297119.115192956454	320.54424199441
1	6122	297391.329990286237	166.89430951327
1	6147	298278.494187391908	202.4160865788
1	6153	298612.389329165353	480.47910008644
1	6161	298901.477505237542	273.18688687558
1	6169	299364.135037821785	0
1	6178	299684.038773139778	313.31844130545
1	6195	300428.335006927743	0
1	6212	301107.936933058508	0
1	6228	301841.094320061425	0
1	6265	303159.065192615138	183.83598081598
1	6287	304063.220172981305	207.88514857211
1	6312	305260.683408780639	0
1	6324	305627.086425499877	365.3803487781
1	6332	305870.154097265884	412.65087356142
1	6337	306190.160297808089	378.98461682133
1	6354	306842.704049686059	201.46645812801
1	6372	308198.814497509411	0
1	6395	308838.649048867993	326.94235606004
1	6430	310300.416207563554	283.98188871609
1	6439	310604.04333406958	96.16474065673
1	6447	310914.721416170762	99.326492511408
1	6467	311682.690463832533	58.443467933055
1	6481	312747.3069660749	0
1	6524	315511.684748446668	0
1	6536	315809.562190258909	236.02271845219
1	6550	316994.616279527089	0
1	6568	318446.216904528445	0
1	6586	319980.54187564792	0
1	6603	320926.000348635442	0
1	6620	322462.842467646368	0
1	6647	324399.147768579182	0
1	6664	325712.393550449815	0
1	6682	327410.009106905341	0
1	6691	327831.558874719295	0
1	6708	329254.27572392368	222.1513803642
1	6736	332163.656459207808	0
1	6754	333739.774651919007	0
1	6772	335447.137397071075	0
1	6781	336159.068157492622	0
1	6789	336596.637431545661	0
1	6809	337387.717132204253	193.6733798903
1	6814	337683.24754542777	401.88410201708
1	6823	338294.72353816545	0
1	6857	340286.422925990573	0
1	6892	342404.158530251739	0
1	6900	342901.077017498698	0
1	6936	346226.841183567395	0
1	6945	347098.489633599625	0
1	6954	347505.570325047826	0
1	6962	347852.563576966531	0
1	6983	349478.093183813533	58.096303936283
1	6997	350170.057329129375	63.773160172718
1	7005	350460.711117951814	52.485428415764
1	7030	351545.579846661731	287.51159183165
1	7057	353566.669030740244	0
1	7082	354705.132538648894	198.36054903716
1	7091	355171.867746931336	0
1	7102	355482.171333218135	248.92113340399
1	7110	355771.412197351327	495.74067040774
1	7116	356073.903623491045	377.25835707982
1	7124	356359.408616237581	12.066703821496
1	7132	356677.796123719417	26.373659897321
1	7141	357065.914835775518	0
1	7161	357615.929217483016	191.73927385792
1	7169	357898.335025278959	387.54843508933
1	7180	358221.050614515572	403.84426380587
1	7255	360940.109475926903	67.818184909638
1	7267	361223.053990346704	175.02520045417
1	7275	361550.390622212337	163.40078867811
1	7289	362165.156358493694	243.81148286404
1	7308	363020.471989946255	127.1946736872
1	7316	363312.632017040653	170.56674032275
1	7325	363647.620754809624	0
1	7339	363911.485086137792	3.69933412199
1	7401	367106.482000327993	0
1	7418	367885.931303338747	0
1	7427	369154.13039884725	0
1	7436	369869.608562812666	0
1	7453	370739.055037332332	0
1	7470	371242.272521450369	231.52509452638
1	7496	373789.765189381229	0
1	7511	374085.236593627837	17.868491136511
1	7530	374929.773615569316	169.92124288532
1	7541	375181.713078973503	134.43817157197
1	7546	375498.110398621677	364.90524807226
1	7558	375856.105642019761	308.20618220069
1	7563	376116.633589040209	422.87099250228
1	7572	376400.193566995304	78.413769884477
1	7597	377459.286008955879	0
1	7625	378550.744417542135	208.13488045795
1	7645	379100.304890106068	212.53030600942
1	7653	379390.517776902073	162.72359240177
1	7670	379916.93603122658	212.09436903051
1	7678	380148.052006935832	145.0547594506
1	7703	381179.401532787786	228.43951035082
1	7756	384020.014390929752	0
1	7773	384690.664977123078	0
1	7782	385010.302934994623	81.862193925054
1	7791	385829.72108957295	0
1	7808	387094.463555267439	110.18941637081
1	7840	388536.098836319846	208.31046464924
1	7845	388842.086633020264	500.03966736508
1	7853	389115.293829972695	134.57534962604
1	7876	390735.110470422588	132.43202338466
1	7905	392317.352219136297	233.26207381435
1	7919	392945.388012034039	0.050965201275
1	7927	393314.037604504063	80.872424960122
1	7944	394004.956144417949	46.587778833154
1	7952	394296.793480077022	264.69318659175
1	7961	395091.147637097687	0
1	7973	395371.156425835267	231.78014200991
1	8021	397898.52905089649	0
1	8046	399442.9987123201	0
1	8055	399991.151937014755	0
1	8072	400669.568450514547	103.39043235671
1	8081	401748.328706161125	0
1	8098	402441.575962241361	295.89050162834
1	8123	403729.839122080058	78.98428287432
1	8132	404563.809487604966	0
1	8158	405790.000178165749	40.9226265045
1	8167	406597.997425390414	0
1	8211	410003.628753748135	10.777730041936
1	8219	410387.234084727302	0
1	8228	411065.794160360381	0
1	8236	411367.967174117113	63.854036415051
1	8245	411856.271184729045	0
1	8253	412215.738982380045	300.33513589096
1	8262	412567.206299001347	193.87857426707
1	8273	412873.952630016577	13.252010016526
1	8296	414006.346159816142	193.77667247803
1	8315	414565.48192913101	218.41459820231
1	8327	414860.499011963332	22.823532296259
1	8357	416016.172347179226	287.01182732609
1	8379	417124.102597980503	0
1	8387	417397.860855960903	233.83309126942
1	8408	417688.119104800481	213.69645869833
1	8413	417962.293026366432	288.03634656654
1	8441	419187.654402582359	39.566284805391
1	8488	421370.853274531929	0
1	8506	422874.528824403074	0
1	8515	423698.528928917415	0
1	8542	426343.309245071958	0
1	8559	427217.389477329095	0
1	8567	427522.962308349544	199.51664641689
1	8576	428338.484097481514	0
1	8585	428943.271514806006	0
1	8605	430050.094165087303	180.8798930877
1	8614	430352.307790788592	447.76372287578
1	8622	430687.059114909187	200.99851923808
1	8647	431604.494481512282	140.54572923593
1	8682	433751.958598925904	11.682337502536
1	8707	434785.352404571947	320.89156197392
1	8721	436039.86291868336	0
1	8738	436961.778921265858	135.99962627217
1	8747	437288.679911899427	0
1	8764	438071.028005426937	134.27349190893
1	8772	438379.712080876686	241.77168450489
1	8825	442329.108409777316	0
1	8835	444606.644074584844	0
1	8854	446551.864681641172	0
1	8862	446874.072453941834	116.69518187584
1	8879	448014.158476654509	0
1	8888	448318.203488788301	228.41547729374
1	8899	448623.557783517912	133.02931418029
1	8904	448940.560751150168	365.56908693281
1	8930	450426.347178031447	64.143243863571
1	8941	450732.035667423774	59.620928616128
1	8953	451080.825788952383	403.7180444653
1	8961	451373.492781475206	416.9862400269
1	8970	451741.364182519609	320.07723583185
1	8995	452738.36344050944	109.10373228151
1	9003	453030.539628784026	37.559628069259
1	9037	454245.135393212288	195.76673528406
1	9098	457505.066047874787	268.56547282777
1	9110	460542.373291043833	0
1	9128	461896.964732249972	0
1	9136	462240.480317505523	0
1	9167	465383.092536398997	240.23632957296
1	9180	465972.316586418046	38.640520796655
1	9192	466274.832541635047	111.13520238328
1	9197	466535.517173462197	263.57138008814
1	9205	466837.36336147489	176.44521413446
1	9214	467156.931970375357	0
1	9222	467469.268207218551	0
1	9240	468845.216272223983	0
1	9298	470991.469564748988	238.7165309274
1	9306	471300.648924539176	304.05169052794
1	9324	472504.763114727354	0
1	9333	473780.629184571764	0
1	9348	474104.614506385499	246.63887048841
1	9356	474421.3991414561	15.574520389834
1	9385	476841.154481412032	0
1	9399	477115.049670370848	99.499231201476
1	9416	477763.529744482808	37.873582052384
1	9444	479739.434946737569	167.1080378714
1	9470	481435.249282209352	0
1	9480	482734.684873434117	0
1	9491	483061.480627017984	250.37629046316
1	9505	483684.96710567048	267.68698293672
1	9513	484014.057016134681	63.734074847658
1	9522	484692.642919048119	0
1	9533	484974.5041603406	163.22122935964
1	9556	486106.945996580634	0
1	9598	487978.518787652042	0
1	9624	489767.990251604014	0
1	9633	490377.415309769681	0
1	9642	491016.984218013769	0
1	9659	492643.173793065597	0
1	9694	495014.675793300703	0
1	9712	496490.324622538425	0
1	9721	497472.090647623527	0
1	9757	501048.898018749994	0
1	9766	501723.236667098585	0
1	9774	501992.676967939175	248.35290468914
1	9783	502694.744700885146	0
1	9792	503068.16496578054	0
1	9803	503363.408075069028	125.37849810334
1	9808	503638.371060404353	393.48031462386
1	9817	504165.037930075774	0
1	9845	505102.122515173744	86.268425636409
1	9910	508724.461851062113	0
1	9919	509048.379745530075	63.266444202661
1	9927	509784.630754374529	0
1	9955	512458.845493760907	0
1	9972	513552.236711353535	0
1	9981	514099.614116300621	0
1	9989	514407.773433349352	266.88156392032
1	9997	514791.638787196498	0
1	10015	516005.701829141025	226.556472812
1	10035	516973.960095809906	224.67988461541
1	10040	517304.764578117103	502.59391027614
1	10055	517548.638461723284	47.334483662272
1	10066	517848.654782648045	73.858288242795
1	10085	518670.670350758821	37.039568490259
1	10102	519281.916989436198	171.35062211106
1	10135	520885.618731543962	251.63800494696
1	10152	521475.920866296712	80.809770864609
1	10177	522422.743624538143	73.949474795365
1	10191	523272.559517204508	0
1	10200	523601.454777918328	100.30692042716
1	10226	525233.026406826565	0
1	10242	525939.402942170578	0
1	10268	526963.963707872701	0
1	10276	527301.59402243967	22.494125498028
1	10284	527619.311156812478	9.73514851983
1	10302	528885.305403432481	0
1	10319	529586.429212933969	0
1	10338	530225.411360348405	139.42277390231
1	10344	530472.648528816361	291.23684293202
1	10369	531366.571950729104	210.27661255322
1	10389	532357.923035532613	44.773644536671
1	10397	532653.038423942081	161.77136792906
1	10406	532936.778369675869	124.25776747596
1	10422	533589.856343797	167.75358411107
1	10439	534154.563279509783	93.502522387047
1	10473	535603.958626645229	151.6515098545
1	10503	536946.269353396994	51.606739536191
1	10530	539219.603970555684	52.848851202901
1	10550	540146.740066739104	208.55535594073
1	10555	540463.755888070864	520.48142318994
1	10564	540735.121446276261	77.493946996676
1	10572	541095.587101654261	0
1	10583	541403.872264698542	150.93578802294
1	10592	541720.61447797857	355.76546817214
1	10597	541983.90508884334	540.63715986138
1	10668	545351.856936104648	214.83681096971
1	10682	546480.224816380694	0
1	10692	547600.975248186383	0
1	10719	550191.221403426164	0
1	10727	550499.188975742582	115.42815398982
1	10744	551243.783666546859	0
1	10755	551556.69182135142	94.642827452908
1	10761	551826.197676893415	326.89323223573
1	10770	552581.261732425435	0
1	10795	554083.948420271683	306.36062795899
1	10807	554388.525248214283	154.61736597074
1	10832	555192.992448634546	289.94726832558
1	10863	557096.110268829907	0
1	10880	557696.336899034637	193.02254866167
1	10897	558636.440485316646	185.03260207904
1	10905	558952.521452434155	223.11400122249
1	10949	562740.149778730491	162.21798995233
1	10964	563088.241577360463	325.56091585416
1	10969	563388.186423855036	449.76880961522
1	10975	563704.690411198634	730.62719516307
1	10983	563935.066121003704	96.460947270471
1	10997	564227.571769070677	233.51489782209
1	11002	564518.500303106156	477.44817339588
1	11011	564819.652657896566	610.76473792786
1	11016	565082.562566479133	483.22251572105
1	11062	567246.180586905172	248.34806353813
1	11073	567498.809093894938	247.01377130463
1	11084	567784.135369424577	165.32803131641
1	11096	568023.220450493075	155.74480691233
1	11107	568351.733610575996	165.76044162084
1	11137	569839.680938988268	286.12079458214
1	11173	570995.073158247669	53.193941152846
1	11195	571987.107068612963	155.8679212131
1	11207	572331.096660735458	254.90010294256
1	11215	572594.862819700788	438.04865271727
1	11229	573156.234693604599	140.5162682966
1	11243	573995.71612152393	0
1	11259	574576.114068798855	0.173748899513
1	11302	576716.744243953174	0
1	11319	577516.983042828907	0
1	11330	577838.380025675609	280.84497957595
1	11347	578465.977790038432	261.61388761367
1	11352	578744.621579875331	309.14343686591
1	11361	579125.09383273861	0
1	11369	579475.135542808228	306.22648881411
1	11394	580620.877235219012	64.888084898499
1	11411	581497.83386492979	230.06157193689
1	11426	581812.721086183023	164.59035826728
1	11488	585609.78074031799	114.96989431519
1	11496	585827.899940977028	127.38297436836
1	11505	586470.589092334728	0
1	11513	586752.703813506791	253.77568358539
1	11522	587073.884488827762	189.67982166588
1	11530	587345.555948691195	151.28855632638
1	11590	590825.978569165551	0
1	11600	592381.537253356603	0
1	11610	593767.486950895163	0
1	11627	594562.321733532564	0
1	11636	595472.122619084041	0
1	11647	595759.348407882999	86.475012721767
1	11670	597285.657642280828	0
1	11695	598388.59867494253	214.48559569468
1	11712	599206.721050036081	0
1	11730	601073.330905225564	0
1	11742	601352.749170957205	254.42300109197
1	11750	601670.915821342738	7.079825589166
1	11764	602630.611119479697	0
1	11775	602890.018228794236	101.26381884046
1	11784	603191.716001334721	237.31028867611
1	11797	603802.59428740333	29.949843512835
1	11825	604712.532817080323	153.45412232322
1	11862	606405.984535676606	225.12145076612
1	11882	607378.504503755647	0
1	11898	608063.059882920957	227.98437390268
1	11907	608362.268835535146	77.847059251236
1	11951	612073.30081542788	0
1	11961	613306.630600968802	0
1	11969	613749.771320422971	0
1	11977	614142.311823753256	0
1	11995	615488.293824457764	80.53749582955
1	12021	617552.151550484569	0
1	12041	618210.688262960812	344.80931220468
1	12050	618505.635348049083	110.04336068114
1	12064	619316.175038607634	0
1	12072	619859.195091106503	0
1	12089	620897.197020353988	119.07290774579
1	12098	621254.191709363151	35.823758610711
1	12123	622196.678929986665	0
1	12160	623911.266379483563	205.08951723287
1	12168	624213.706262554504	59.028450355127
1	12191	625732.65309164583	58.371723313219
1	12217	627356.773450319433	90.020778173297
1	12226	628228.823625822146	0
1	12234	628518.974708387919	41.700293653631
1	12243	629037.078855235096	0
1	12251	629297.102172146594	82.662746766979
1	12277	630515.183866144776	0
1	12293	631152.296137664484	35.031764846295
1	12302	631721.175371297023	0
1	12363	635930.298409476766	0
1	12372	636470.756297193423	0
1	12380	636781.023408012284	133.6756383448
1	12388	637100.761985469252	0
1	12397	637708.04451554659	0
1	12406	638462.290933971449	0
1	12414	638791.424873030124	177.37905550515
1	12474	641778.833574542442	41.305944964312
1	12490	642363.870322627214	38.104096281214
1	12500	643436.268058694601	0
1	12509	644517.191967280738	0
1	12517	644822.68349815009	72.939694038412
1	12534	645488.2798328512	0
1	12546	645816.635416083982	100.3381263638
1	12585	648298.278611597735	24.94113342948
1	12624	651187.131261705887	259.53561886773
1	12635	651447.328553273299	479.7919820939
1	12640	651720.443641998904	317.76179802665
1	12652	652011.271564302857	592.87364976831
1	12657	652296.647424899026	498.28298435017
1	12662	652590.284233269317	752.05090125492
1	12672	653937.507796452924	0
1	12683	654245.613478309151	101.91751541116
1	12714	655169.453609964505	130.94171968426
1	12723	655496.648716143103	282.49205211687
1	12750	656706.111498841388	248.35136451262
1	12770	657376.089356273306	5.750321804044
1	12778	657645.618126028427	1.291915922911
1	12823	660020.450648161888	278.82475842784
1	12831	660317.20169334293	141.62956908018
1	12857	661282.130475840475	219.80922658554
1	12865	661585.280035696541	72.661550233952
1	12883	663484.454450984555	169.97836015326
1	12911	664532.334003878693	33.15562572473
1	12920	664859.357609359951	326.65732515449
1	12943	666489.785334423158	151.33337945104
1	12983	673415.943636113728	0
1	12991	673746.187859563946	230.56887109367
1	13000	674094.553229661577	12.562440814843
1	13010	676418.977196265114	0
1	13044	677849.162159532198	0
1	13052	678198.639388343787	217.36162538587
1	13064	678473.587838271811	225.02747227674
1	13072	678751.221205601616	410.16664980484
1	13077	679020.775385231462	522.96457652553
1	13086	679522.67056039025	0
1	13097	679859.053528798704	227.77645196537
1	13106	680171.635356249218	113.21005253653
1	13153	682178.800402339313	19.116477776631
1	13189	683345.467595011739	90.490511325005
1	13203	683905.237730223533	150.18450792529
1	13212	684557.486883724073	0
1	13220	684849.885499440961	232.26228340522
1	13238	686234.459604388001	0
1	13249	686583.076450647873	281.93970410055
1	13283	687769.6706158597	96.103554833076
1	13306	689684.384524426329	230.19354704744
1	13323	690353.376319627433	4.120897273725
1	13334	690661.417025685087	295.83036198635
1	13345	690959.314513354209	424.42767343133
1	13354	691237.844848174895	556.79886793026
1	13359	691494.419991655919	464.25828470867
1	13373	692086.674934002103	53.461591459525
1	13419	694620.949392550651	248.82738849497
1	13430	694881.034427529793	277.95149492988
1	13438	695193.521263812565	394.59443502672
1	13466	696429.723132912424	0
1	13474	697016.744777739719	0
1	13483	697373.519194770525	0
1	13516	698821.465799058339	0
1	13525	699062.010157698626	112.49401290939
1	13539	699338.677860452556	103.05962708189
1	13547	699658.157710937245	334.75996279631
1	13553	699921.113661915414	350.85130976067
1	13583	701098.76370117515	136.74970814412
1	13600	701928.240918831485	0
1	13611	702185.128302100105	80.476178697023
1	13645	703396.725233175701	264.70104713032
1	13667	704496.112376574731	0
1	13693	706018.344375312764	0
1	13719	708135.927170400491	0
1	13731	708403.58425575355	167.55214429499
1	13739	708692.592265569331	337.2248811353
1	13747	708906.977377517523	228.4044450773
1	13798	713645.017970561275	0
1	13806	714013.306724807195	0
1	13815	714898.630643181879	0
1	13824	715129.310769805509	55.983331257245
1	13832	715657.035344845598	0
1	13841	716293.031165868299	0
1	13849	716587.694108162812	139.67022227938
1	13869	717191.807823490794	78.0293335856
1	13886	717846.13891607929	322.12737512449
1	13897	718087.521221579127	0.617303418457
1	13967	721733.118766744992	136.60224835478
1	13976	722708.419049032594	0
1	13985	723009.337092321786	0
1	13993	723326.97264757566	79.771980518114
1	14002	724158.067391252149	0
1	14028	725437.853040650694	196.83579987053
1	14062	727441.989902215414	3.371320839817
1	14070	727792.738200947031	143.97995371692
1	14079	728270.914652791057	0
1	14124	732457.169177399615	0
1	14135	732785.279702185428	203.50326432521
1	14141	733122.888725087802	408.24574573542
1	14177	736733.721467606572	16.609060158106
1	14186	737760.702700880319	0
1	14205	740469.231011703245	308.62838284158
1	14236	746333.043553790551	0
1	14245	747112.914697287025	0
1	14253	747413.998969460539	110.95231757383
1	14262	748027.749458592594	0
1	14305	750834.483861578283	0
1	14315	752170.829290335064	0
1	14323	752490.647702122216	114.25763628265
1	14332	752747.722537651881	212.03964513341
1	14340	753368.656711038781	0
1	14357	754286.697720536754	0
1	14400	756483.74751357384	0
1	14408	756740.302396737338	211.87402827849
1	14446	761902.335204917676	0
1	14455	762241.052671750676	319.35590873343
1	14464	763010.366425731944	0
1	14472	763290.319194120113	171.91414595283
1	14480	763648.534233596737	0
1	14489	763948.176585352593	196.26561782771
1	14497	764250.448557541888	249.11475666849
1	14539	766078.974324349939	108.03964297273
1	14556	766809.314787732047	0
1	14591	769478.125171376348	58.307614914581
1	14599	769801.476281520922	8.80480378899
1	14616	770395.223558139911	45.904948487446
1	14625	770700.466346119081	176.53360594773
1	14633	771179.39138852203	0
1	14642	771883.523347467216	0
1	14650	772144.555779167208	92.89791141278
1	14659	772601.863599459692	0
1	14673	772873.814349004323	155.54847262394
1	14684	773177.722419567701	391.2339787461
1	14710	774105.637377684721	82.749354886248
1	14754	775916.579611598694	117.60358288776
1	14787	777264.374379764356	58.488348756064
1	14802	778477.71423203972	0
1	14810	778825.126121999049	0
1	14818	779167.008531980467	103.71752254728
1	14833	779477.724055718158	86.487018823489
1	14838	779748.209308510969	332.16040057213
1	14846	780031.061975387575	164.50833128725
1	14920	784140.800181038247	0
1	14930	785254.16634522193	0
1	14938	786025.852764015076	0
1	14977	791997.554369821628	0
1	14986	792874.59799542885	0
1	14996	794208.650621728821	0
1	15004	794501.534377246104	26.252021715221
1	15030	796156.079732945342	0
1	15039	796476.223819133589	245.58347601727
1	15047	796753.566830727422	28.727357160783
1	15058	797035.925157071038	145.32728131081
1	15067	797321.39188310013	136.34797702913
1	15092	798138.31735884306	54.420954625792
1	15097	798436.751974769443	306.86948576769
1	15111	798728.813719500107	180.34250282411
1	15123	799030.720097704673	324.13826250625
1	15128	799348.226545248796	637.87291203336
1	15136	799675.286129073626	856.60454887699
1	15145	799928.801055584009	385.27344262302
1	15206	802138.095976604898	284.35473641371
1	15218	802405.921284669213	152.16537429347
1	15232	802742.39758333116	276.80161748398
1	15237	803050.394047600294	524.68435154386
1	15284	805191.876150465295	251.79411836129
1	15298	805462.73134414258	510.14630113514
1	15307	805777.399270089627	446.24316212902
1	15339	807296.448044002218	260.79208894831
1	15374	809572.656860445626	236.40177545145
1	15383	810078.279306687011	0
1	15391	810403.557630796991	67.055958786277
1	15408	810950.22162244427	38.008291864133
1	15419	811232.251785516433	277.15025279718
1	15424	811499.639986585719	380.22816394484
1	15442	813000.431004416131	0
1	15465	813587.690800853879	183.39651685482
1	15473	813872.911946151143	301.37730223046
1	15484	814198.56017506299	529.26955247148
1	15506	815047.738911334579	45.686069053975
1	15515	815328.888289187478	52.509410750918
1	15534	816358.047425755512	208.02658713984
1	15565	817328.035263132322	299.81077306648
1	15593	818275.804607997974	249.9342510001
1	15598	818554.410811018519	488.45920947455
1	15610	818837.549952868857	79.794216944382
1	15615	819193.175353556361	414.67709352043
1	15677	822323.700089489961	144.45937231456
1	15695	823820.628466589557	0
1	15704	824723.997978190387	0
1	15739	827616.078715272035	218.18437003238
1	15760	831574.713877825943	0
1	15768	831842.416527201016	0
1	15779	832155.505877298815	149.36179510309
1	15788	832442.778947215113	341.2970480717
1	15793	832773.15607817899	363.70132757785
1	15802	833137.235433106834	120.1950829952
1	15823	835067.347208259594	15.584347818594
1	15834	835366.455328361775	130.09597796684
1	15868	836621.060656969467	67.855580247591
1	15876	836932.108211362356	11.204216358509
1	15887	837240.937122511799	143.46448486768
1	15893	837558.299713280913	400.46203850934
1	15929	839355.508777883245	0
1	15971	841006.784080332901	369.02243599769
1	15979	841352.684856816509	0
1	15988	842377.738107511043	0
1	16036	846105.277496846246	252.8513728219
1	16050	846427.97675299926	375.83850513253
1	16058	846734.076622297173	616.71552446292
1	16064	847022.25797488888	708.60922435654
1	16069	847361.343566929267	1016.6032831298
1	16074	847636.656476007265	1122.8123412395
1	16083	848212.604194220623	0
1	16092	848540.821802900455	273.22875303406
1	16117	849475.57028115907	203.15176769335
1	16128	849788.929160161238	210.75633061336
1	16142	850353.153560447022	108.34727186028
1	16181	851539.54555493922	60.559646708629
1	16198	852153.847036903004	137.86631887832
1	16203	852428.921719894809	333.93996834902
1	16242	853901.904731530739	204.76133234247
1	16250	854320.034362301644	0
1	16270	854962.587965751816	52.564440074183
1	16292	855916.370243590517	32.869003993058
1	16301	856271.306096382905	341.17839307557
1	16335	858200.109820000107	88.069503851542
1	16374	861493.409265789713	172.50178601058
1	16382	861815.340860444655	360.93918184288
1	16387	862101.601044260581	490.94514189276
1	16397	863311.170751672199	0
1	16415	864914.902044987674	16.531816553103
1	16429	865220.446799780087	302.6677084663
1	16451	866101.062710195177	128.89350237922
1	16465	866974.386674682629	0
1	16473	867288.668505410438	63.939068561156
1	16482	867615.971125338265	216.4895809058
[...]
7	12650	652011.271564302857	3
7	12655	652296.647424899026	4
7	12660	652590.284233269317	5
7	12666	652917.457937001472	6
7	12674	654015.828470222631	5
7	12681	654245.613478309151	6
7	12686	654361.797435068264	5
7	12690	654581.222704091458	6
7	12694	654780.430505012988	5
7	12705	655138.434274205525	4
7	12708	655160.731823887608	3
7	12721	655496.648716143103	4
7	12726	655779.842988029417	5
7	12730	655804.888466883509	4
7	12753	656950.886622646661	3
7	12757	657038.736328674758	4
7	12761	657256.595320972227	3
7	12776	657645.618126028427	4
7	12782	657940.123433579137	5
7	12791	658305.060455871965	4
7	12799	658570.787815847351	3
7	12812	659690.482844741749	2
7	12829	660317.20169334293	3
7	12834	660407.472645984934	2
7	12838	660630.368147355141	3
7	12842	660748.127652707505	2
7	12863	661585.280035696541	3
7	12868	661870.418267251256	4
7	12872	663243.202257254983	3
7	12887	663772.298587100212	4
7	12889	663871.812917655142	3
7	12894	664148.645341531157	2
7	12902	664250.036594205527	1
7	12918	664859.357609359951	2
7	12923	665145.807385943144	3
7	12931	666201.423685131005	2
7	12946	666793.732721528838	3
7	12949	667365.833436236277	2
7	12958	668092.035552934109	1
7	12967	669020.438505992958	0
7	12989	673746.187859563946	1
7	12998	674094.553229661577	2
7	13003	674394.175521431938	3
7	13012	676433.539748839711	2
7	13017	676745.48314987907	3
7	13021	677057.318423348621	2
7	13029	677341.400129177757	1
7	13050	678198.639388343787	2
7	13062	678473.587838271811	3
7	13070	678751.221205601616	4
7	13075	679020.775385231462	5
7	13081	679369.013775401002	6
7	13088	679623.934218317542	5
7	13095	679859.053528798704	6
7	13104	680171.635356249218	7
7	13109	680477.577985424135	8
7	13113	680671.744131337769	7
7	13125	681288.538548185052	6
7	13133	681634.197196374727	5
7	13139	681825.516215869161	4
7	13155	682234.943957029898	3
7	13158	682459.404121277488	2
7	13162	682484.290860021395	3
7	13172	682907.278219412922	2
7	13183	683293.711261004813	1
7	13193	683597.232152174608	2
7	13206	684190.364774551367	3
7	13218	684849.885499440961	4
7	13224	685178.523570215835	5
7	13226	685503.370833103006	4
7	13243	686314.506915859225	3
7	13247	686583.076450647873	4
7	13251	686679.62319043227	3
7	13256	686866.537286316719	4
7	13260	687020.388133753398	3
7	13273	687638.711581436255	2
7	13286	688079.340623397405	3
7	13295	689448.685885589361	2
7	13309	690035.931077701462	3
7	13311	690077.63604902042	2
7	13332	690661.417025685087	3
7	13339	690685.657127976858	2
7	13343	690959.314513354209	3
7	13352	691237.844848174895	4
7	13357	691494.419991655919	5
7	13362	691809.429290608138	6
7	13376	692419.594284788728	7
7	13378	692576.094358857654	6
7	13387	693676.271970537858	5
7	13393	693710.715862585432	4
7	13396	693948.826807840915	3
7	13421	694727.985970363562	2
7	13428	694881.034427529793	3
7	13432	694979.104057920853	2
7	13436	695193.521263812565	3
7	13440	695299.734809877586	2
7	13445	695490.83251643916	3
7	13469	696710.719301723716	4
7	13478	697339.960638213626	5
7	13485	697406.855068084913	4
7	13489	697684.808550250555	5
7	13497	698029.940221023271	4
7	13502	698210.984370964448	3
7	13523	699062.010157698626	4
7	13530	699320.898705587943	3
7	13537	699338.677860452556	4
7	13545	699658.157710937245	5
7	13551	699921.113661915414	6
7	13555	699965.894940632373	5
7	13558	700065.097069640281	4
7	13562	700212.107260780263	5
7	13586	701334.997813387541	6
7	13589	701494.542892741884	5
7	13602	702013.296806357119	4
7	13609	702185.128302100105	5
7	13614	702308.444899206957	4
7	13618	702496.42740671354	5
7	13622	702621.999412501667	4
7	13630	703045.554772647016	3
7	13648	703688.637268184969	4
7	13652	703939.159468528475	3
7	13670	704771.989435739132	4
7	13673	705089.288321999172	3
7	13678	705319.635096799546	2
7	13696	706297.556154018105	3
7	13698	706352.196667341281	2
7	13708	707485.388905844086	1
7	13729	708403.58425575355	2
7	13737	708692.592265569331	3
7	13741	708900.921603260878	2
7	13745	708906.977377517523	3
7	13751	709202.534107515024	4
7	13760	710951.723141804438	3
7	13768	711599.5680799683	2
7	13774	711844.499534880963	1
7	13782	711965.529875248995	0
7	13801	713955.294025386062	1
7	13810	714343.814972777195	2
7	13822	715129.310769805509	3
7	13827	715402.401821889065	4
7	13835	715914.838322598314	5
7	13847	716587.694108162812	6
7	13851	716599.988313986902	5
7	13856	716879.787236667059	6
7	13860	716924.676710257447	5
7	13871	717435.341611896403	4
7	13875	717510.204781915864	5
7	13888	717884.665348432002	4
7	13895	718087.521221579127	5
7	13900	718334.666259921288	6
7	13910	718932.62453024376	5
7	13918	719066.089087097421	4
7	13927	719429.271689289681	3
7	13938	719879.358468013022	2
7	13948	721136.630494597455	1
7	13953	721143.620778729522	0
7	13971	722043.299162512941	1
7	13980	722931.33297913329	2
7	13991	723326.97264757566	3
7	13997	723647.169707028107	4
7	14005	724446.991930778001	5
7	14008	724779.574245785582	4
7	14013	725086.612032706156	3
7	14031	725737.945118097134	4
7	14034	726528.390840918847	3
7	14039	726640.629074755345	2
7	14047	726829.953379045272	1
7	14068	727792.738200947031	2
7	14074	728113.721451101542	3
7	14081	728310.466382979253	2
7	14085	728615.027371146143	3
7	14094	730311.168120222428	2
7	14100	730574.378652661527	1
7	14112	731560.98786590456	0
7	14133	732785.279702185428	1
7	14139	733122.888725087802	2
7	14144	733419.11288325317	3
7	14148	735426.042928145194	2
7	14157	736119.655034423846	1
7	14162	736268.723272288097	0
7	14180	737060.500620504142	1
7	14189	738072.667265480606	2
7	14194	740124.972088035688	1
7	14209	740784.436363332277	2
7	14211	740990.721600104381	1
7	14221	743137.415474531541	0
7	14239	746621.556193022387	1
7	14251	747413.998969460539	2
7	14257	747697.78255693613	3
7	14265	748339.043645972249	4
7	14268	749276.317035401726	3
7	14277	749727.37151274224	2
7	14282	749874.228495822555	1
7	14294	750456.841097791259	0
7	14309	751089.045062185653	1
7	14321	752490.647702122216	2
7	14330	752747.722537651881	3
7	14335	753101.276209779439	4
7	14344	753664.675897218264	5
7	14346	753713.58908201408	4
7	14361	754542.559770940664	5
7	14364	755297.271531840274	4
7	14369	755507.714586208161	3
7	14377	755622.581212848128	2
7	14385	756106.214299231706	1
7	14406	756740.302396737338	2
7	14412	757042.258841111842	3
7	14414	757075.21518339886	2
7	14424	759468.751004425691	1
7	14430	759728.048825024583	0
7	14453	762241.052671750676	1
7	14458	762550.286462851854	2
7	14470	763290.319194120113	3
7	14475	763613.119983608954	4
7	14487	763948.176585352593	5
7	14495	764250.448557541888	6
7	14500	764554.691689192957	7
7	14502	764671.333242813608	6
7	14511	765124.856744713336	5
7	14519	765544.830969322293	4
7	14525	765678.730564417712	3
7	14541	766317.499053319971	2
7	14545	766340.776295042117	3
7	14559	767107.764353821495	4
7	14561	767128.517349463799	3
7	14570	767441.654459319511	2
7	14580	769165.888439066551	1
7	14597	769801.476281520922	2
7	14602	769879.405051092885	1
7	14606	770110.352829206373	2
7	14623	770700.466346119081	3
7	14628	771043.09239979999	4
7	14636	771453.267779879856	5
7	14648	772144.555779167208	6
7	14654	772444.150839790827	7
7	14667	772786.767621740244	6
7	14671	772873.814349004323	7
7	14675	772894.356853072885	6
7	14678	773039.13780117097	5
7	14682	773177.722419567701	6
7	14688	773512.699464042341	7
7	14692	773603.672205273191	6
7	14700	773949.644881160861	5
7	14713	774406.505323870006	6
7	14722	774879.34914543883	5
7	14731	775201.605801173376	4
7	14748	775885.309774822331	3
7	14757	776267.320430963673	4
7	14764	776645.91534981029	3
7	14770	776823.602963313776	2
7	14778	777130.696984636431	1
7	14790	777496.391880033468	2
7	14805	778784.88968700539	3
7	14816	779167.008531980467	4
7	14827	779454.721348014084	3
7	14831	779477.724055718158	4
7	14836	779748.209308510969	5
7	14844	780031.061975387575	6
7	14850	780326.057114075727	7
7	14854	780347.774860713523	6
7	14866	781341.157027416168	5
7	14875	782005.674887695461	4
7	14880	782186.818057325744	3
7	14888	782486.627391565505	2
7	14897	782672.204866060047	1
7	14908	783138.711960731672	0
7	14924	784447.348946007401	1
7	14933	785591.795625237422	2
7	14942	786374.261023065623	3
7	14945	787120.009089879666	2
7	14954	788031.108550707077	1
7	14962	788530.257709351665	0
7	14981	792264.771987781187	1
7	14990	793142.73957923098	2
7	15002	794501.534377246104	3
7	15008	794807.724675996139	4
7	15010	795423.058108812514	3
7	15019	795815.864076863221	2
7	15037	796476.223819133589	3
7	15045	796753.566830727422	4
7	15049	796887.521222803965	3
7	15056	797035.925157071038	4
7	15065	797321.39188310013	5
7	15069	797480.129034272336	4
7	15073	797603.64080126497	5
7	15095	798436.751974769443	6
7	15109	798728.813719500107	7
7	15113	798735.287777266776	6
7	15121	799030.720097704673	7
7	15126	799348.226545248796	8
7	15134	799675.286129073626	9
7	15139	799867.582348994635	8
7	15143	799928.801055584009	9
7	15147	799956.683311380871	8
7	15150	800129.786548057068	7
7	15154	800191.401474726983	8
7	15164	800624.198085956725	7
7	15172	800892.076071715204	6
7	15180	801461.060276657819	5
7	15189	801577.454912327659	4
7	15200	801900.235769329304	3
7	15208	802236.797772538705	2
7	15216	802405.921284669213	3
7	15223	802514.359069176508	2
7	15230	802742.39758333116	3
7	15235	803050.394047600294	4
7	15240	803215.374835709524	3
7	15244	803390.252178332829	4
7	15289	805361.659689696994	3
7	15292	805448.293893097827	2
7	15296	805462.73134414258	3
7	15301	805762.554510352775	2
7	15305	805777.399270089627	3
7	15309	805829.746603308133	2
7	15313	806081.643851030201	3
7	15343	807625.922711745403	4
7	15345	808215.355143415108	3
7	15350	808262.984874567157	2
7	15363	809241.78589551399	1
7	15377	809814.729102194769	2
7	15389	810403.557630796991	3
7	15393	810494.754676445501	2
7	15397	810661.888676422706	3
7	15417	811232.251785516433	4
7	15422	811499.639986585719	5
7	15428	811814.671100532649	6
7	15430	812484.526835359001	5
7	15444	813090.269361248686	4
7	15448	813319.019265570935	5
7	15455	813404.861620988822	4
7	15471	813872.911946151143	5
7	15475	814090.368087579171	4
7	15478	814183.996797167263	3
7	15482	814198.56017506299	4
7	15487	814435.49869301428	3
7	15491	814487.694476231817	4
7	15513	815328.888289187478	5
7	15518	815670.840156512286	6
7	15536	816444.832445362601	5
7	15539	816448.993847871399	4
7	15543	816681.484467344762	5
7	15547	816865.941014592478	4
7	15559	817088.25487061296	3
7	15568	817633.106026718048	4
7	15572	817697.531568995559	3
7	15581	817948.489413926325	2
7	15596	818554.410811018519	3
7	15608	818837.549952868857	4
7	15613	819193.175353556361	5
7	15617	819348.764294263159	4
7	15621	819538.357084656122	3
7	15625	819559.987686063864	4
7	15648	821010.783842768621	3
7	15657	821660.497363494502	2
7	15666	822011.614619552558	1
7	15680	822625.432288641827	2
7	15682	822629.843345799422	1
7	15698	824092.886563911548	2
7	15707	825040.041317041838	3
7	15709	825146.331826872311	2
7	15719	826909.456423523926	1
7	15728	827343.495772305349	0
7	15742	827932.622440036163	1
7	15748	830668.950375681425	0
7	15763	831817.017769436323	1
7	15777	832155.505877298815	2
7	15786	832442.778947215113	3
7	15791	832773.15607817899	4
7	15800	833137.235433106834	5
7	15805	833399.384159538345	6
7	15808	834726.947247377128	5
7	15813	834806.904162797408	4
7	15825	835153.170830568279	3
7	15832	835366.455328361775	4
7	15836	835535.874722164754	3
7	15841	835698.93142364367	4
7	15850	836278.95872853011	3
7	15853	836298.743856273677	2
7	15874	836932.108211362356	3
7	15885	837240.937122511799	4
7	15891	837558.299713280913	5
7	15895	837587.774440886066	4
7	15899	837916.01649934756	5
7	15914	838860.429187664978	4
7	15932	839667.858611379258	5
7	15934	839824.024298924212	4
7	15939	839951.948401029044	3
7	15948	840228.212460783696	2
7	15956	840468.399565902054	1
7	15974	841285.780111647049	2
7	15982	841654.590323386811	3
7	15990	842446.059287527147	2
7	15995	842690.632086811205	3
7	16003	844082.264964051673	2
7	16012	844680.94845846126	1
7	16021	845740.448245388672	0
7	16048	846427.97675299926	1
7	16056	846734.076622297173	2
7	16062	847022.25797488888	3
7	16067	847361.343566929267	4
7	16072	847636.656476007265	5
7	16078	847930.097320731972	6
7	16090	848540.821802900455	7
7	16094	848685.779927264917	6
7	16098	848849.375192252875	7
7	16105	849195.674822903804	6
7	16122	849664.868661971118	5
7	16126	849788.929160161238	6
7	16131	850039.209779174894	7
7	16144	850438.644694076946	6
7	16147	850653.141697128132	5
7	16151	850656.873878042938	6
7	16155	850738.245569156459	5
7	16164	851142.87241932381	4
7	16167	851158.622765612536	3
7	16184	851849.067355149001	4
7	16201	852428.921719894809	5
7	16205	852455.805782586153	4
7	16208	852495.723935342051	3
7	16212	852687.628568928579	4
7	16227	853343.302603849448	3
7	16245	854200.893504453714	4
7	16253	854530.170679957219	3
7	16257	854641.498741853026	4
7	16261	854862.015953042729	3
7	16273	855290.06276101537	4
7	16278	855615.340140681911	3
7	16299	856271.306096382905	4
7	16304	856575.726752173569	5
7	16306	856704.265296218336	4
7	16311	856818.884764074264	3
7	16324	857945.132064657323	2
7	16338	858512.511736857176	3
7	16340	858633.805205799354	2
7	16349	859165.475221054711	1
7	16359	861187.907269792029	0
7	16380	861815.340860444655	1
7	16385	862101.601044260581	2
7	16391	862393.116547157217	3
7	16400	863603.16871316741	4
7	16403	864553.165997598989	3
7	16420	865000.287168757607	2
7	16423	865059.890164500132	1
7	16427	865220.446799780087	2
7	16432	865534.385343633159	3
7	16437	865716.948405701949	2
7	16454	866399.076250218423	3
7	16471	867288.668505410438	4
7	16480	867615.971125338265	5
7	16488	867913.393769327176	6
7	16493	868247.829002835077	5
7	16497	868256.277148024165	6
7	16501	868344.023082017753	5
7	16513	868895.623536665245	6
7	16521	869073.120252144147	5
7	16530	869530.76469687507	6
7	16543	869905.65713449177	5
7	16547	870073.833987055715	6
7	16551	870128.905916444111	5
7	16559	870399.57930919628	4
7	16562	870642.338908130971	3
7	16584	871532.888617231901	2
7	16592	871654.335550050373	3
7	16597	871961.507697841663	4
7	16604	872385.42048148262	3
7	16613	872678.685755121988	2
7	16622	873010.554976295509	3
7	16635	874110.509747305785	2
7	16643	874278.133700251906	3
7	16648	874629.666647376884	4
7	16660	875019.079642195256	3
7	16665	875183.652774333171	4
7	16677	875451.589017793083	3
7	16684	875758.398258467552	4
7	16690	876034.837089351265	5
7	16697	876721.920117132306	4
7	16712	877289.155242565989	5
7	16715	877689.998768354108	4
7	16720	877890.686831162347	3
7	16728	878111.656179443267	2
7	16740	879087.57785229534	1
7	16749	879814.879827926712	0
7	16765	881055.502862802384	1
7	16774	882092.470790179249	2
7	16786	882785.548830334646	3
7	16791	883086.056139024066	4
7	16793	883520.895265831737	3
7	16808	884360.699029970754	4
7	16810	884418.977391513183	3
7	16825	885012.972838884443	4
7	16828	885491.3211105668	3
7	16833	885809.600254279099	2
7	16851	886738.470605278567	3
7	16854	887083.223206967008	2
7	16867	887571.281534022376	1
7	16871	887637.046034993357	2
7	16885	888555.691303876562	3
7	16888	889563.368879616176	2
7	16897	890057.609938699473	1
7	16924	890641.061362046997	2
7	16929	890903.557034246599	3
7	16937	891188.934153820541	4
7	16946	891485.31282064356	5
7	16950	891509.51392300936	4
7	16954	891789.144409447849	5
7	16959	892096.872469604943	6
7	16965	892331.635476688132	7
7	16981	892984.282647258947	8
7	16986	893077.096926966552	7
7	16993	893228.416398436779	8
7	16997	893395.090410667858	7
7	17001	893509.672597038274	8
7	17018	894070.218725011527	9
7	17022	894146.715399992182	8
7	17026	894364.70402727033	9
7	17030	894590.155904728618	8
7	17038	894692.232327285904	7
7	17057	895272.4178131193	8
7	17061	895274.971996211913	7
7	17064	895290.23781352734	6
7	17068	895570.378164877534	5
7	17072	895581.353109094745	6
7	17077	895868.106752781234	7
7	17081	895872.390217247986	6
7	17084	896089.473917404147	5
7	17095	896402.712279339773	4
7	17104	896616.652405664077	3
7	17108	896748.513033261095	4
7	17133	897937.765733698186	3
7	17136	898074.570868173517	2
7	17152	898422.775391515912	3
7	17156	898488.490963574055	2
7	17160	898676.315495353533	3
7	17186	899637.813849805028	2
7	17191	899864.519999982399	3
7	17196	900151.913778733034	4
7	17219	901059.26665799148	3
7	17229	901234.553203159896	4
7	17237	901522.346137772207	5
7	17242	901747.391855187868	4
7	17246	901826.442902224555	5
7	17251	902094.745448045227	6
7	17255	902229.074535750835	5
7	17264	902640.403664016531	4
7	17287	903775.657953637527	5
7	17289	903823.690536905997	4
7	17298	904511.813173342958	3
7	17303	904522.669162565753	2
7	17306	904831.726811119067	1
7	17338	905710.61744041652	2
7	17347	905977.608056184452	3
7	17352	906273.668808482117	4
7	17356	906278.17779709737	3
7	17360	906556.742305588288	4
7	17372	906811.690313476504	5
7	17380	907098.275313762911	6
7	17385	907413.921995593858	7
7	17391	907798.358833196136	8
7	17395	907826.573540355245	7
7	17407	908548.615246917729	6
7	17415	908858.635046054466	5
7	17429	909527.043636872037	4
7	17432	909563.915352859599	3
7	17435	909571.296835370746	2
7	17438	909694.442129245704	1
7	17442	909718.104244195259	2
7	17457	910468.751099385652	1
7	17470	910972.911788567924	2
7	17486	911597.578371691402	3
7	17491	911890.637926390815	2
7	17495	911936.656677938469	3
7	17509	914024.274947345066	2
7	17520	914199.099172660961	1
7	17529	914631.671350932399	0
7	17533	914704.602829490033	1
7	17538	915009.177605407967	2
7	17561	915617.009215393976	3
7	17569	915859.90844560585	4
7	17575	916111.510111883014	5
7	17580	916402.750156631813	6
7	17585	916606.691776046076	7
7	17593	917034.2800032187	6
7	17601	917701.162887424621	5
7	17607	917898.400606083584	4
7	17615	918143.245281733607	3
7	17635	918762.690109598505	2
7	17639	918896.455838135189	3
7	17643	919099.974791184455	2
7	17647	919238.037197246916	3
7	17660	919579.336857866957	2
7	17664	919861.158583210599	3
7	17678	921495.446580111078	2
7	17686	921849.322821941669	1
7	17700	922451.371341687687	0
7	17704	922460.118982692763	1
7	17721	923094.039912448529	2
7	17726	923430.959038021667	3
7	17741	924326.423456645646	4
7	17746	924608.953715289485	5
7	17752	924969.538015017953	6
7	17755	925578.108547461707	5
7	17768	926056.416146211049	4
7	17772	926123.810023609464	5
7	17776	926347.893032282013	4
7	17788	926868.584936114636	3
7	17793	927123.145458004473	2
7	17805	927691.83605714599	1
7	17823	928259.664929497791	2
7	17831	928554.508551746713	3
7	17841	928727.866075868199	2
7	17845	928840.912107117416	3
7	17851	929196.173743352191	4
7	17856	929474.622496857724	5
7	17870	930404.577205357438	6
7	17878	930662.263209233719	5
7	17882	930722.662182884977	6
7	17894	931228.666415733926	5
7	17898	931282.775147767627	6
7	17903	931553.086595518106	5
7	17911	931806.527872692482	4
7	17922	932319.114196504264	3
7	17937	932914.901306046616	4
7	17939	933165.90726160589	3
7	17945	933232.129547280011	2
7	17953	933768.592226881754	1
7	17974	934735.461236379118	2
7	17980	935030.819414733166	3
7	17982	935609.809996020559	2
7	17997	936556.468366413381	3
7	18009	937031.683911757315	4
7	18013	937189.561806330268	3
7	18020	937351.30035686953	4
7	18025	937640.135969975955	3
7	18029	937713.394279373086	4
7	18054	938598.537700136044	5
7	18059	938923.544337420166	6
7	18063	939135.253285024224	5
7	18068	939189.524401137096	6
7	18075	939508.120169516252	5
7	18080	939559.256081611213	4
7	18098	940387.172057875402	5
7	18106	940896.632507457759	4
7	18110	941059.502333049497	5
7	18117	941346.003233850333	4
7	18120	941388.952660308918	3
7	18129	941708.771070035734	4
7	18139	942132.592559572249	3
7	18162	942788.906749226361	2
7	18166	942807.890849720756	3
7	18171	943161.720304737145	4
7	18180	943480.697177976434	5
7	18185	943742.937538319845	6
7	18189	943991.692201795363	5
7	18197	944010.798904500716	4
7	18215	945162.18146453804	5
7	18230	945458.134948228211	6
7	18235	945738.817610815024	7
7	18244	946056.102127979427	8
7	18248	946130.699987566127	7
7	18251	946163.903872646457	6
7	18255	946401.637997696978	7
7	18259	946443.032470918325	6
7	18267	946782.581579637954	5
7	18281	947415.098316302477	4
7	18293	947936.353982324705	3
7	18301	948335.320059233535	2
7	18310	948754.815325112197	1
7	18315	948761.050650597249	0
