file 348704 1483966428                                          
version 2
run QueueMeasurement-145-20170109-13:53:47-3602
attr configname QueueMeasurement
attr datetime 20170109-13:53:47
attr experiment QueueMeasurement
attr inifile queueStudy.ini
attr iterationvars ""
attr iterationvars2 $repetition=145
attr measurement ""
attr network controltower.SimNetwork
attr processid 3602
attr repetition 145
attr replication #145
attr resultdir results
attr runnumber 145
attr seedset 145
param SimNetwork.a.parkingLot.parkingDelay "truncnormal(45min, 5 min)"
param SimNetwork.a.runway.landingTime "truncnormal(5min, 0.5min)"
param SimNetwork.a.runway.takeoffTime "truncnormal(5min, 0.5min)"
param SimNetwork.a.runway.throughputCheckInterval 14.256min
param SimNetwork.wg.interArrivalTime exponential(14.256min)

vector 5  SimNetwork.a.runway  landedThroughput:vector  ETV
attr source  landedThroughputSignal
vector 6  SimNetwork.a.runway  tookoffThroughput:vector  ETV
attr source  tookoffThroughputSignal
vector 0  SimNetwork.wg  responseTime:vector  ETV
attr source  responseTimeSignal
vector 2  SimNetwork.a.landingQueue  queueLength:vector  ETV
attr source  queueLengthSignal
vector 1  SimNetwork.a.landingQueue  queueTime:vector  ETV
attr source  queueTimeSignal
vector 7  SimNetwork.a.parkingLot  parkingOccupancy:vector  ETV
attr source  parkingOccupancy
vector 4  SimNetwork.a.takeoffQueue  queueLength:vector  ETV
attr source  queueLengthSignal
vector 3  SimNetwork.a.takeoffQueue  queueTime:vector  ETV
attr source  queueTimeSignal
0	1474 44736 1242 18817 50593.487526429347 950309.612409737053 1035 2746.0832150178 10652.899414343 5194155.2916242 27978838680.754
1	46210 39800 1247 18796 50693.71511273203 949365.089954612057 1031 0 1028.6020761361 159736.21636509 58127246.233509
2	86010 60487 1245 18796 50693.71511273203 949365.089954612057 2062 0 4 1395 1915
3	146497 40465 1255 18819 51154.080056234979 950309.612409737053 1035 0 6432.6889778969 721689.55789499 1874089715.2526
4	186962 60754 1253 18819 51154.080056234979 950309.612409737053 2070 0 14 3057 14151
5	247716 20188 1240 18815 50466.24 950304.96 1053 0 4 1032 1806
6	267904 20188 1240 18815 50466.24 950304.96 1053 0 3 1036 1806
7	288092 60612 1250 18812 51002.08290190602 950297.674452802755 2066 0 12 7395 32773
