version 2
run QueueMeasurement-48-20170105-15:37:44-4756
attr configname QueueMeasurement
attr datetime 20170105-15:37:44
attr experiment QueueMeasurement
attr inifile queueStudy.ini
attr iterationvars ""
attr iterationvars2 $repetition=48
attr measurement ""
attr network SimNetwork
attr processid 4756
attr repetition 48
attr replication #48
attr resultdir results
attr runnumber 48
attr seedset 48
param SimNetwork.a.parkingLot.parkingDelay "truncnormal(45min, 5 min)"
param SimNetwork.a.runway.landingTime "truncnormal(5min, 0.5min)"
param SimNetwork.a.runway.takeoffTime "truncnormal(5min, 0.5min)"
param SimNetwork.a.runway.throughputCheckInterval 14.256min
param SimNetwork.wg.interArrivalTime exponential(14.256min)

vector 5  SimNetwork.a.runway  landedThroughput:vector  ETV
attr source  landedThroughputSignal
vector 6  SimNetwork.a.runway  tookoffThroughput:vector  ETV
attr source  tookoffThroughputSignal
vector 7  SimNetwork.a.parkingLot  parkingOccupancy:vector  ETV
attr source  parkingOccupancy
vector 4  SimNetwork.a.takeoffQueue  queueLength:vector  ETV
attr source  queueLengthSignal
vector 3  SimNetwork.a.takeoffQueue  queueTime:vector  ETV
attr source  queueTimeSignal
vector 2  SimNetwork.a.landingQueue  queueLength:vector  ETV
attr source  queueLengthSignal
vector 0  SimNetwork.wg  responseTime:vector  ETV
attr source  responseTimeSignal
vector 1  SimNetwork.a.landingQueue  queueTime:vector  ETV
attr source  queueTimeSignal
0	1069	51081.943262963196	4264.6380396278
0	1086	51895.746181502027	3645.1948323172
0	1092	52241.543510417859	4559.9140000066
0	1100	52697.229792506005	4110.1553012552
0	1179	55630.884885733435	6676.0159752084
0	1187	55930.796433684884	6637.451333479
0	1192	56264.291168658984	5394.1236417769
0	1204	56558.087488926806	3610.3144626797
0	1212	56830.582468716962	3850.6877625546
0	1217	57129.912135825116	4282.8107207655
0	1232	57578.796742936219	3829.1886701701
0	1260	58414.643488487671	4517.4461573517
0	1277	59026.920722321361	4689.7339541929
0	1296	60020.253449024766	5930.6266275202
0	1316	60887.56912855538	3604.87608899
0	1329	61507.501804312403	6795.7194283354
0	1335	61840.907546672888	4467.7725379845
0	1366	62929.714230974472	4610.7009248885
0	1380	63586.108605584485	4879.2340356855
0	1388	63874.43793030674	5131.5095232666
0	1402	64474.690191266939	4694.330096489
0	1410	64976.904739466058	4360.5996357919
0	1422	65727.184134649032	3435.3814256294
0	1431	66043.581495064341	3950.8408605248
0	1453	66987.892545155598	4262.7804637092
0	1507	69752.319094315012	5988.3953759145
0	1512	70016.652724669007	4028.0604718904
0	1528	71188.617831602909	4969.6424971346
0	1544	71730.088150829538	3874.6000195253
0	1567	72314.351922412503	3873.7716751715
0	1589	73196.391243255213	4936.0711526745
0	1605	74083.839835206725	5476.6536324991
0	1614	74539.120183247093	5789.3946835627
0	1625	75055.791825212996	4097.5874563883
0	1653	75924.686571593361	4223.5407756701
0	1665	76246.030656301839	3954.1624024952
0	1675	76801.701031489896	4502.6913245502
0	1681	77128.393105273833	4031.8105143057
0	1709	78567.90889365269	5426.4747703824
0	1715	78877.936844813311	4027.6022666733
0	1723	79266.640701419243	3961.3817706433
0	1749	80801.328596561915	4606.1477975506
0	1758	81305.840870426893	3676.9884867834
0	1778	82925.411895327674	2987.2541638372
0	1784	83203.944550283494	5401.9751116686
0	1797	85044.69699553978	4825.9295264391
0	1849	88643.453566626373	6765.7109357616
0	1874	89493.025093505764	4540.1695779154
0	1879	89799.7763577393	4374.2252109525
0	1888	90644.490146741505	4381.6537525995
0	1897	91090.456227685371	3918.8425946154
0	1906	91775.939123282334	4044.5817549006
0	1917	92173.353420436059	3783.4051238144
0	1934	95712.946897724792	7010.8345308129
0	1984	99044.03743500607	7134.253988395
0	2006	99932.451296402023	4031.2792464201
0	2012	100220.713321242902	3768.9158676672
0	2085	102816.277236914645	5502.4015175844
0	2096	103117.354893221033	4936.9268398032
0	2130	104381.853901338425	5531.0606774965
0	2135	104666.841859326271	5637.50751814
0	2143	104953.680068543554	4691.4836251796
0	2152	105285.117784096119	4742.5020673107
0	2157	105604.564136990723	4777.8354550912
0	2171	105858.819014898863	4942.4611068701
0	2185	106491.506724100264	5281.9869545687
0	2196	106785.904183857893	5573.8775618219
0	2213	107372.432102058008	4443.8414226266
0	2227	107931.112939845296	6352.136842546
0	2249	108760.701738929039	5674.3833722005
0	2254	109081.839042674849	5364.905282937
0	2266	109574.229268767354	3799.3530474767
0	2279	110225.774605209986	3730.8201238819
0	2303	111225.181689523066	3936.9386169065
0	2313	111850.754284702301	4176.6833153162
0	2325	112720.175704648633	4625.6724126274
0	2339	113257.791184596111	3809.7696176843
0	2349	114864.948955955345	4581.633218483
0	2374	116284.618601710602	5394.3400234615
0	2393	118435.081565653371	5836.071440007
0	2401	118851.586772354332	3508.333374285
0	2412	120653.488930222027	4978.4781883489
0	2458	126282.681242201714	9029.3718691168
0	2467	126629.162306713936	3588.327336547
0	2488	128480.230933951227	5234.7440422945
0	2546	130518.067503430254	5455.7605854435
0	2560	131136.97406909449	5500.3879203598
0	2568	131611.626538907034	3744.5288884614
0	2591	132272.121270064511	3938.716952256
0	2625	133075.246912455383	4122.6564006236
0	2655	134247.113862818538	5525.5628599991
0	2672	134874.890757978676	5570.9916487064
0	2686	135488.312073916453	5940.0551896019
0	2703	135819.808342660311	5879.8015816876
0	2717	136421.96306943128	6128.3112792544
0	2722	136695.00021461557	5064.8764031417
0	2728	137006.648697949824	4168.7412149075
0	2733	137308.553086244455	5037.6568961189
0	2741	137571.824473610451	5377.9826663992
0	2750	137881.002049411	4834.236655723
0	2755	138203.297596626643	4731.0830270131
0	2760	138485.844828356102	4275.3280726113
0	2770	139463.992188311216	4677.9507687142
0	2802	146344.608033359694	10626.614867921
0	2837	149160.974836891797	6250.0676123509
0	2852	149964.816412933957	3341.9355665604
0	2879	151048.164297291987	5269.5413420157
0	2905	152099.340214701008	5041.118998374
0	2930	153310.037576023866	3177.4762224331
0	2941	153585.117843484976	3776.5791373848
0	2946	153904.941815869138	5572.7791653166
0	2962	154895.232583668874	4739.6114583495
0	2990	155831.074050505983	4554.8232908925
0	3045	157844.357020740424	5955.2172204045
0	3053	158142.567118737584	6240.4552275148
0	3067	158733.459468957989	6672.7370763164
0	3075	159043.110595966027	4443.9042887933
0	3084	159345.169435317424	4655.2256701625
0	3092	159641.651652970482	3959.5139350446
0	3123	160488.672797641744	4680.6997011599
0	3128	160759.168060302965	4780.533293898
0	3134	161006.744599788939	5005.456756565
0	3139	161324.475811438034	5083.4385469486
0	3156	162114.107679685266	5615.8836011169
0	3176	162791.079077317998	4883.4193513017
0	3181	163092.362993643176	3522.7462076299
0	3191	164871.937490502851	5200.8620774874
0	3208	165602.377827608876	4123.2540732905
0	3247	169102.382970977312	6908.6214709181
0	3261	169703.189220300951	4688.3649545146
0	3291	172041.574128265364	5904.8789783768
0	3299	172354.729940418745	4181.6087031714
0	3304	172637.479552056197	4335.373574511
0	3322	173665.894275185304	4744.3725900181
0	3339	174586.319917126689	4424.6974283408
0	3357	176492.680784001738	4996.5979034064
0	3377	177861.787175206944	4901.3576042718
0	3391	178712.971557843112	4764.0251944867
0	3470	181887.191108802853	5997.1843260639
0	3475	182179.685336373674	4907.8334631867
0	3487	182806.63839080034	5026.8134961059
0	3499	183108.929136246205	4236.2117442822
0	3512	183697.92970864173	4383.9283534529
0	3524	183983.044648807274	4433.6777084523
0	3532	184302.714030032627	4190.1496032192
0	3540	184603.929038141861	4243.6257380479
0	3549	184914.020215818376	4632.2447949174
0	3559	185527.518745373144	5119.6313697396
0	3571	185840.676642188889	4722.0207851599
0	3611	187835.100493182133	4940.1118772453
0	3644	189512.567611076103	4667.0852826058
0	3667	190051.506631657279	4326.2906824204
0	3683	190656.455846072218	4076.3661499352
0	3697	191267.184865984676	4273.2760831359
0	3702	191571.173838131558	3976.5151549296
0	3714	192174.539101726831	4523.7659900984
0	3719	192435.785367639182	4609.4690302616
0	3734	192967.032061577417	5101.8860279293
0	3764	194142.841956848352	4556.0286373319
0	3770	194455.98885434392	4580.3663593367
0	3786	196247.147791205041	3411.2214079693
0	3791	196562.319110961708	6104.6238287681
0	3797	196852.093292711232	3744.883703922
0	3836	200807.16355317115	7445.5794530684
0	3879	202751.879430162525	5407.3393458018
0	3884	203075.383546115117	3752.8541352418
0	3893	204230.911234540151	4448.0380427428
0	3905	204756.588410650963	3582.4914348784
0	3913	205076.431434953816	4481.8355728585
0	3930	205678.619084689719	3902.7180672999
0	3954	208064.414284953858	5821.6817738912
0	3972	209820.285613828154	4785.6072109856
0	4004	211277.022346789066	5812.1524047397
0	4014	211900.436295753215	4423.6456945352
0	4027	213627.459677941084	5499.2408796944
0	4047	214608.826121361694	4235.7043042927
0	4058	215235.335954121152	4701.2732281861
0	4112	217394.266057119539	6219.8561406393
0	4117	217718.723436066023	4134.3008168596
0	4126	218645.064799549545	4303.2104496346
0	4208	221160.699991564974	5487.3029756278
0	4219	221747.13160115872	5603.2343838957
0	4227	221989.224535208587	6012.2458832231
0	4244	222512.156105248023	6268.4415257348
0	4252	222825.355202621114	6301.2408532807
0	4260	223129.985230052471	4423.4587137361
0	4277	223693.63721466313	4909.4621251264
0	4294	223951.150524596494	4901.5867881356
0	4341	225782.116748932495	6669.9032600321
0	4355	226343.016696287609	6652.3975020092
0	4361	226678.041952429364	6475.2029747207
0	4372	227008.651175158476	7120.1434363406
0	4395	227547.376672978117	6459.292030376
0	4408	228193.19009303131	6339.1619932822
0	4420	228461.66793218601	5415.3485400161
0	4430	229077.809178427495	5198.9460131879
0	4439	229429.405528554517	5080.9409567696
0	4449	230023.192029716355	6147.3326148457
0	4458	230331.109456817105	5896.9896943901
0	4466	230633.044349154401	5506.4343496432
0	4471	230890.81309692684	5234.8249906978
0	4477	231168.008702080207	4365.7962625291
0	4485	231747.063815080196	4397.5203594654
0	4503	232765.794456446268	4513.8686175803
0	4530	235249.424808875912	6122.8443438363
0	4572	237522.40494398989	5288.3166095833
0	4581	238007.399759848559	3697.4508297045
0	4593	238723.148824061067	4171.0428184819
0	4601	239034.004782776818	3455.3180108674
0	4618	239665.795630478273	3630.3856881942
0	4623	240000.207571185096	3693.1306014632
0	4677	242416.903850653803	6004.1095498096
0	4700	243784.940425123436	5048.1851082809
0	4711	244215.385431845543	3459.5763858831
0	4719	244553.375737443012	4111.4302150337
0	4739	245155.721995267666	3979.6193477987
0	4744	245447.410907615957	4304.9365473426
0	4750	245777.986518498467	4051.3562649232
0	4767	246978.05666821567	4563.9140381656
0	4810	248944.240653075305	5783.8058982669
0	4821	249568.988203566107	5261.1190620996
0	4877	251296.137344438605	5005.476584946
0	4883	251570.562182545227	4004.6395535304
0	4891	251829.681931088901	4357.5116162934
0	4902	252424.352821279838	4397.9767690032
0	4913	252711.532774583803	4524.4242356031
0	4924	253014.934677332489	3474.2659162773
0	4941	253550.528505428726	3837.0678162294
0	4955	254097.428694854137	3660.980263273
0	4960	254396.575311147389	4511.8031894166
0	4972	255746.890798659288	5088.0068301307
0	4998	256697.456383416396	3938.0553251147
0	5009	257017.263451270274	5363.2248459175
0	5049	259477.555710456275	3742.739620837
0	5057	259731.27692848234	6338.3474678162
0	5085	260566.190439388595	4664.3828346208
0	5102	261177.456528591888	4312.157355198
0	5107	261429.325533816142	4540.707218538
0	5116	261771.246230203851	4590.2657552291
0	5129	262360.163242372845	4099.2051870247
0	5138	263144.959255758465	3498.4220857091
0	5147	263754.902321503162	3882.918962919
0	5156	264552.067782747533	4086.4747293289
0	5221	269523.568048619225	8076.4321824161
0	5229	269777.216436160967	3503.3931356806
0	5234	270073.800655181894	4290.5821127672
0	5260	271530.573412003995	4916.4672019456
0	5268	271937.653274895536	3614.2761174649
0	5280	272346.426946891789	3995.1447502683
0	5310	273541.801415857144	5085.5200432363
0	5322	274068.753026562634	3870.6939041236
0	5348	275996.456213567381	5607.1535715079
0	5357	276302.216029673738	4003.6696691584
0	5365	276571.366970622177	3954.3342895537
0	5379	277497.477320468475	4604.0000314299
0	5399	278495.894894604466	4652.7033426782
0	5422	279833.083122153638	4866.7439567117
0	5431	280861.198482887673	4377.8709820885
0	5440	281670.34400413633	4017.8327607157
0	5449	282292.627930917703	3861.1204874888
0	5492	285589.733124993045	6246.9211741637
0	5510	286557.858726336448	4234.93580108
0	5518	286871.73111258264	3533.754835633
0	5535	287674.413022628725	3871.3051318942
0	5552	289060.45726812626	4575.4751218199
0	5570	290565.838964061215	4584.0040051013
0	5588	291922.319194146825	4874.0920334809
0	5606	293620.363743801329	5470.7419209007
0	5615	294588.027519870192	4925.0921170942
0	5624	295242.488408029786	4380.9850158606
0	5659	298203.659264277063	6174.9265961242
0	5683	299724.685539014935	3060.1627476589
0	5702	300717.228401027602	5391.3199935382
0	5711	301716.792185901499	5009.0069903979
0	5740	303212.350143219104	4929.2629039519
0	5745	303539.662998903386	3981.8956771739
0	5808	306848.115426869958	4688.3417317314
0	5817	307162.957335072381	7285.1603622932
0	5822	307466.709335573648	5086.4245162812
0	5834	308167.328772453947	4221.8848425153
0	5839	308487.405745842008	3609.6972516731
0	5882	309790.382940211706	4565.3030754288
0	5892	310396.314438215232	5290.9272991566
0	5901	310682.122760989684	5161.9228901294
0	5926	311774.058845504452	5779.7126396178
0	5962	312944.105450574547	4422.4194147645
0	5971	313211.447210314708	4671.6807338819
0	5976	313507.881263182187	4576.8190924765
0	5981	313796.250720609303	4211.6442484253
0	5993	314186.910823730342	3701.1672269571
0	6013	314908.837970074507	4141.0764954027
0	6018	315225.453570687064	3204.6816078593
0	6023	315530.935525298737	3925.7397713704
0	6041	316987.17994850701	4853.3900960756
0	6088	319990.950573829723	5813.199946306
0	6093	320263.614132261503	3919.4732150878
0	6105	320793.119288158949	3804.3107078072
0	6110	321078.007233181181	4023.7730529889
0	6122	321797.695936150458	4339.5830460662
0	6162	324930.619241591556	5838.8237676317
0	6181	326691.685919010149	3313.5188806638
0	6209	327960.027295153119	6348.0870601871
0	6214	328249.549287850209	4827.241268313
0	6232	329655.675936342973	5450.2393550857
0	6269	331460.730393152784	5087.6302384296
0	6277	331746.764896558836	5110.797030874
0	6317	332882.896573556212	6003.7348459105
0	6370	334689.567209551728	5789.7208212642
0	6381	335014.577905319357	4877.448165223
0	6406	335912.387574320195	5697.6448555511
0	6420	336542.922371603365	5800.8874626484
0	6428	336821.294628899259	5360.4139724712
0	6440	337070.941743707942	5308.898211783
0	6456	337656.149088340765	5803.517328287
0	6462	337947.955788081805	5357.7369518429
0	6470	338196.393040417047	5505.5480608412
0	6498	339075.239605719526	6308.4752876385
0	6517	339957.111988355808	6906.001692154
0	6522	340249.648803701046	6328.9677608042
0	6531	340514.963183161489	5776.8597913464
0	6542	340807.739558210001	5571.7966571781
0	6556	341361.890625857812	5558.6214655161
0	6575	341959.823295204763	4912.1781665824
0	6584	342249.474803034337	3361.8982145436
0	6594	342874.033420432179	4741.6797071627
0	6600	343124.498244230086	4820.9100782443
0	6620	344407.939110473165	3882.0670011967
0	6625	344662.040692975751	5430.8411281837
0	6640	345548.465627752231	4434.4967367937
0	6677	347583.734048962022	5468.1984918121
0	6689	348884.03073796041	3447.3353937505
0	6695	349165.396759848831	5377.3235812213
0	6704	349891.182071263844	4349.9742712253
0	6720	350588.437962971806	3844.2533598469
0	6750	353134.758049576257	6147.4010809492
0	6868	357217.235241933662	7296.551458296
0	6882	357507.381743866577	6213.9175171371
0	6888	357848.905321789721	5484.6092866799
0	6893	358135.398873530265	5124.1362044188
0	6907	358365.8336166034	4981.3700960792
0	6918	358906.643681128773	4909.0616960645
0	6926	359150.485407391678	5928.9996231402
0	6941	359475.363623584201	5587.6911080316
0	6946	359792.922450293034	5359.5537610307
0	6951	360086.433376981253	5592.3341976003
0	6957	360412.779448633086	5641.6021393168
0	6962	360707.383135145664	5739.1334405468
0	6971	360977.79698874841	5049.2875620279
0	6976	361285.550626312525	5489.0937323904
0	6981	361576.148482681711	5240.4582881532
0	7020	364884.011518508987	6679.7700090812
0	7034	365490.186445727875	3913.234999637
0	7051	366516.266336404676	4684.2768384386
0	7075	368230.350052918774	5211.7806700929
0	7094	369475.612055714695	4759.4694577361
0	7185	373245.783159474782	7338.3323084835
0	7196	373528.500677104606	5841.8973489833
0	7213	374115.056351268599	6135.0088806607
0	7227	374420.936916433714	4304.7729563276
0	7244	375041.918832082741	6948.4623700409
0	7249	375324.181404375649	5149.2121449239
0	7258	375665.918245970669	5474.7561934397
0	7266	375969.027576801884	4692.0524782392
0	7274	376278.230886609	5744.7603327224
0	7283	376640.055207292037	5399.0716291521
0	7297	377254.958606192187	5768.0435541131
0	7310	377806.15241829948	6345.4401690585
0	7316	378081.814190983863	6543.4283621501
0	7321	378377.695137031424	4861.4967658042
0	7333	379484.492173216937	5356.0848745458
0	7347	380176.587605263357	3748.6422277542
0	7390	382663.209644989629	5685.8988098385
0	7407	383622.895918602204	4471.5174962209
0	7415	384047.845868607799	3863.2183388907
0	7436	385258.262152048461	4561.48633456
0	7441	385578.472573535634	3989.791326635
0	7458	386424.564246625193	4529.0753977476
0	7500	388218.211933441041	5378.0752658742
0	7529	389611.345568427226	4949.5511711235
0	7552	390196.392865433003	4324.2542260947
0	7577	391106.408746524043	4466.9316424188
0	7590	391639.082185871006	4254.9083137655
0	7618	392540.795771514921	5775.6435772524
0	7627	392813.077743596303	4212.8472270693
0	7632	393143.437928826488	5696.1584445842
0	7638	393494.716862386233	4599.9159355163
0	7646	393811.714153621528	4312.0091456532
0	7657	394147.632309698792	4095.4793737261
0	7674	394719.619181281443	4606.1286449265
0	7679	394994.897588781199	4151.5707990004
0	7688	395295.537796298029	3958.2373733139
0	7727	396902.667635729449	5094.0466026844
0	7764	398619.853273456577	4711.6727608482
0	7772	398937.401839106322	3799.9502123284
0	7795	399755.782431767907	3473.9221715631
0	7825	400998.832529796767	4971.7994419508
0	7834	401254.48179018281	5768.4626772248
0	7839	401582.834514499643	4671.4727244076
0	7853	401877.539292947607	4886.706858208
0	7878	402815.190399405538	5171.9654035194
0	7909	404102.654924606997	5418.5850410724
0	7914	404391.994376534058	4853.966186156
0	7923	404657.328598185236	4995.9340383155
0	7928	404974.628775333519	4915.1560879978
0	7946	406047.146779502934	4337.6884963702
0	7968	407056.350144555651	5392.2406824481
0	7977	407407.14494129981	4804.3069262129
0	7996	408342.453694774207	5708.8076019642
0	8016	409372.417201074208	6248.899520626
0	8021	409647.834497794423	3696.2585712155
0	8050	411097.067328035252	4815.6831223927
0	8055	411397.866665203454	3992.1146507688
0	8064	411768.546842946019	4126.9586820891
0	8084	413109.202400033179	4711.5037524974
0	8106	413985.449592961645	3770.9244287309
0	8168	416402.386263813378	3930.2692550293
0	8174	416692.368103405047	6200.5235856564
0	8194	417437.758704817825	3215.2800640912
0	8202	417707.038227003145	4759.1271602606
0	8216	418044.63869318718	4823.9175621526
0	8306	421088.154428501976	6775.45233668
0	8326	421700.861437160675	7176.0910658929
0	8334	421962.562730901925	7006.361040019
0	8339	422210.033965152209	6831.2509275468
0	8353	422516.622328490569	6935.780553773
0	8378	423367.172876556254	6601.9959227451
0	8387	423627.363504182761	5663.8217581003
0	8395	423946.802118377518	6234.1603220659
0	8400	424230.28805223043	5716.3910208864
0	8406	424466.609756498417	5622.5617479091
0	8411	424738.398634785127	4936.091862508
0	8416	425065.466800169897	6341.7133152213
0	8422	425329.933987033729	6144.0081027283
0	8427	425602.319311607372	5680.1129147725
0	8444	425915.308281929194	5542.3619194492
0	8477	427394.39591290372	6378.9977471233
0	8486	427701.598067900882	5480.6026191055
0	8499	428333.869427424161	2689.8291548006
0	8553	430147.814012055919	7836.6632380092
0	8572	431044.972143774774	5411.4367974436
0	8578	431339.025358395744	5112.2616257025
0	8589	431604.537513325319	4841.7532976656
0	8603	432212.661134354796	4811.843412675
0	8611	432482.832956876302	3972.8502498419
0	8619	432801.414981219445	4171.3257458838
0	8628	433092.986637307727	3989.6967045169
0	8656	433939.416088419873	4765.9270097562
0	8670	434572.035696781198	4758.8128195553
0	8692	435497.768630875228	5535.9878285833
0	8715	436622.422154000871	5102.3729807192
0	8732	437314.586712305848	4272.0451905991
0	8740	437647.00599047365	4541.9907441794
0	8746	437952.302582133999	3557.6818862049
0	8751	438285.356249522057	4502.654270805
0	8760	439377.637210569507	4774.9593695359
0	8785	440413.81227078905	4464.2385243554
0	8820	442440.527936539915	5977.6132058819
0	8843	443220.041833866892	3342.4660632852
0	8853	443832.274331085435	4326.0322309638
0	8865	444466.913791781655	2971.0399900376
0	8870	444739.527914541895	4256.2435499621
0	8916	446987.002503270712	5115.0616753678
0	8924	447265.730911884948	4743.7194825971
0	8939	448440.804711868935	5308.7530367735
0	8947	448749.28831304535	3284.9553367035
0	8967	449597.556279594391	3930.4182842432
0	8973	449932.493013721759	4339.8425077549
0	8984	450701.547812323949	4912.5358194498
0	9019	452608.771876238716	5366.3364160011
0	9058	454400.39900340342	5364.7169747158
0	9069	454804.804412580808	4219.2149048057
0	9075	455094.832767719107	3462.4833730144
0	9091	455811.928842515499	3918.6709042633
0	9100	456071.175560275568	3691.3110766723
0	9111	456745.344369147244	3584.9411265221
0	9117	457075.107298001888	4256.3829100135
0	9135	459060.528290518033	5171.2871223666
0	9158	462115.338481708872	6865.1147124432
0	9190	464856.463304965076	6421.3883734962
0	9210	465758.010365974516	4705.2435321164
0	9232	466613.886258758663	4684.5388316277
0	9241	467595.088706691892	4341.3255699059
0	9250	468388.139526534428	4170.1982805063
0	9259	469163.696438093106	3668.789777919
0	9284	470240.649566126658	5082.905713917
0	9298	472614.745570336754	3257.3150933256
0	9312	473291.816209629716	7490.7581619325
0	9380	476445.629492574144	7079.3355748025
0	9394	477095.470365368741	4700.4557320397
0	9428	478312.77404316524	4733.4285625724
0	9436	478625.444608200299	4874.3071789508
0	9447	478954.620383972859	4282.7856385611
0	9453	479273.387202274212	4361.2734649246
0	9458	479544.213295029509	4389.2176012969
0	9463	479837.879532248378	5067.0385905198
0	9475	480432.609448425763	5223.5390071767
0	9500	481277.585474321723	4193.1994884719
0	9505	481546.886513802727	4651.4900650457
0	9527	483910.434301906124	6583.0258158345
0	9533	484255.247512541922	3898.6536962326
0	9541	484833.03348440925	4256.3806197039
0	9590	489634.326468422467	8040.4161736615
0	9598	489908.405535582639	3509.6801073641
0	9612	490520.555751618357	4111.6350208477
0	9633	492033.477978845675	4697.442954134
0	9656	493796.512824431921	5498.8869835766
0	9673	495055.762163344647	5288.8423132167
0	9688	495553.739292408779	3672.8700090699
0	9698	496080.517657004843	4675.8538456919
0	9708	497683.963315710032	5366.2391625954
0	9734	499400.857046460261	5124.8243802338
0	9760	500795.69974720513	5521.9104821617
0	9789	502834.316300810126	4881.6183023831
0	9795	503131.297699819211	4308.1536915619
0	9806	503598.137726079104	3899.0648625748
0	9820	504227.190168383973	3341.2975878039
0	9828	504578.969940837154	4362.8183228595
0	9855	506934.07269904596	5672.659753546
0	9865	508156.51425556103	4666.8059069185
0	9873	508723.763775227103	3919.9702176655
0	9897	512847.678719940377	7529.4425305375
0	9970	516250.055074172329	7004.3851281801
0	9988	516962.170893689817	4277.599313195
0	10024	518183.764446055611	4783.1179813116
0	10033	518494.778617430617	5268.6391779968
0	10049	519117.460757488093	5945.4850468675
0	10060	519786.915419686586	6416.9144865211
0	10068	520058.797875092445	5702.4403998759
0	10080	520414.660063688449	5721.7412652348
0	10085	520662.74077197356	4968.801302573
0	10094	520986.445048693956	4193.8756935707
0	10118	521745.059352700653	4560.8635435135
0	10132	522352.352111687157	4844.7059178913
0	10138	522651.57729864483	4263.562048881
0	10159	524415.34820444953	5393.769889753
0	10164	524720.56505498836	3836.9890482786
0	10195	525803.477734946308	4700.3630772991
0	10206	526359.74465481995	4677.9969771637
0	10224	528002.672471813084	5333.924829969
0	10233	528680.105836679156	3715.6961448018
0	10241	529156.209917759844	3968.9541172956
0	10253	530179.585267415994	4526.810251893
0	10303	534200.384011585128	7437.5186849612
0	10313	535498.464082758826	5537.3837094788
0	10324	535992.470447834346	4177.6249315421
0	10329	536269.866291522968	3539.0409704295
0	10338	536583.645600369618	3645.1059900159
0	10368	541778.148565450655	8170.2475304177
0	10377	542420.326211317437	4039.6454633417
0	10427	546276.000491881775	7258.2586982437
0	10441	546883.05279377644	3876.0872842667
0	10449	547228.082317045926	4053.7266631023
0	10468	549230.734867929605	5462.4106044407
0	10481	549886.428145111699	4336.4901758816
0	10499	550968.59602039266	4731.028988312
0	10528	552610.114462777475	5723.3002636888
0	10542	553483.603465082562	4463.1044136758
0	10559	554632.88666776327	4294.4888036462
0	10568	555314.569547930563	4060.4763619701
0	10616	556876.299833169643	4903.4307184555
0	10703	559722.420157317034	7314.6805128646
0	10717	560332.969704966454	6255.6514585177
0	10722	560608.384256734285	5184.3959066096
0	10736	560903.064878401078	5493.8269454087
0	10742	561182.623489113559	5473.1417587144
0	10756	561486.919084670637	5254.7991348534
0	10778	562474.958235151367	5807.3578543965
0	10783	562743.21234275648	5837.0971911196
0	10789	562996.408749345388	5720.3332332703
0	10794	563256.758306611538	6142.9989488357
0	10802	563564.015945286668	6574.0996186137
0	10808	563821.419304153679	5439.0246996456
0	10813	564133.576600648426	6345.0809419206
0	10821	564409.296614526819	5696.2648986025
0	10827	564745.118070725273	5231.7144457619
0	10835	565223.643990413057	3990.7409387123
0	10872	569252.41673014894	7794.3331593642
0	10891	571464.417466577968	5783.2079458926
0	10924	572839.44627202743	4518.4825879902
0	10961	574682.45682706939	6063.5295739299
0	10970	574989.038315241198	3389.957293184
0	10981	575275.910802022653	4435.7268818902
0	11023	576705.952186822456	5096.1898053654
0	11028	577077.45297132748	5125.6917454167
0	11034	577369.370072086623	3810.5867899038
0	11045	577795.321182187925	4092.4523359741
0	11065	578537.327444256977	4506.0850241723
0	11087	579427.099267778494	4339.365853252
0	11098	579792.964466042166	4544.0139937122
0	11109	580388.145159327214	4983.1604904408
0	11118	580924.973467200486	5509.020248705
0	11130	581977.477815984326	4217.1717572913
0	11141	582235.680507222213	3798.4364765962
0	11172	583412.08026707404	4605.9100157807
0	11190	585533.72772040306	6089.3774469855
0	11198	585827.576462666991	3607.5137302315
0	11210	586136.633209073405	4057.6466834836
0	11240	587319.922392911857	5082.1236947929
0	11278	589732.221449351987	6334.8046493854
0	11286	590043.570307487111	4012.6351566878
0	11295	590392.924680603041	4090.3989030367
0	11311	590931.808290418241	4337.4250726491
0	11345	592069.038424721469	4926.2392843152
0	11398	593994.16507329275	5864.1534136052
0	11406	594343.000217138577	5489.4334206196
0	11412	594620.680593517286	4343.7721672039
0	11417	594904.371424852605	4070.4706906361
0	11428	595202.742803257587	4192.5985627357
0	11453	596054.181129301725	4861.78020361
0	11462	596304.417232476628	4416.8309727437
0	11478	596992.91777904243	5071.1256013359
0	11487	597270.556328601587	4561.8062874585
0	11509	598205.503607906189	5418.1317301338
0	11514	598518.124034586683	5443.4876147229
0	11531	599265.70193726533	4301.4287806764
0	11548	599924.94913213976	4443.003063617
0	11560	600515.477600422775	4460.7350740635
0	11573	601100.72643037182	3893.3387951248
0	11590	601897.7743227587	4412.7666697486
0	11602	602477.063451536308	3883.7510500808
0	11632	603639.33422173971	4259.1207611402
0	11645	604863.204229808209	4597.2255953127
0	11664	605475.919277605255	3025.9447851238
0	11678	606062.409355213702	4744.9182374331
0	11683	606380.51927821997	3762.7796556086
0	11713	608520.057678652176	5581.2172859626
0	11718	608814.707578082462	3973.5600142744
0	11727	609309.23766045742	3936.8823836137
0	11739	610180.875552322983	3675.628890054
0	11799	613406.411351299719	6754.8577955972
0	11815	614029.762517165223	3942.7117198185
0	11832	614730.43431134212	4047.0555415823
0	11849	615617.73385965621	3420.7891075017
0	11858	615929.145783404213	5101.8599966903
0	11877	616523.468710193044	4082.5693186074
0	11891	617144.329450844096	4498.0872629577
0	11896	617446.128326025341	4134.3227035871
0	11905	618036.827218181903	4222.5067344693
0	11934	619557.725427771273	5035.5292477423
0	11948	620199.048670585905	4386.2192798533
0	11982	621806.556978609455	3704.5141272851
0	12002	622707.520772421866	6283.6843608153
0	12007	622980.992359691049	4741.4445566834
0	12027	624339.172835886533	3460.4128632548
0	12033	624652.875272807131	5353.5560157909
0	12041	625095.585239748406	4019.6407961299
0	12058	625730.939861531417	4171.6649370274
0	12076	627323.999823568498	5673.0207646876
0	12088	628221.535960715131	4447.3441479759
0	12122	629669.035872109523	4517.1909755789
0	12140	631522.643695331844	5645.8670366914
0	12148	631861.753909869458	3605.7821189658
0	12160	632189.128564028677	4206.183981089
0	12187	633434.56502223847	4992.8905058275
0	12209	635632.348298190925	3689.9347407499
0	12217	635949.234988369631	6472.2848981925
0	12231	636614.186753098525	4448.0248068222
0	12239	637081.616839274275	4573.5407604463
0	12253	639118.9266010712	5472.275552
0	12309	642124.919177091998	6194.5829184229
0	12324	642534.826820275638	3293.1713478872
0	12352	643447.120338395356	4487.6023239351
0	12365	644076.122533951972	4329.5222539272
0	12371	644415.017876020571	5096.677817642
0	12376	644736.169357437499	4079.2275899449
0	12394	645799.820612204664	4676.1173923615
0	12403	646877.861080686886	4363.7633846387
0	12414	647302.575209300293	4549.0921336433
0	12429	648646.017168559863	5389.0594017061
0	12447	650415.633665121623	5363.6803252504
0	12476	652251.81108485222	5130.2001316832
0	12494	654262.102578106913	5475.78591485
0	12528	655525.083073466995	4370.6698266956
0	12542	656132.964760059682	4973.0276675292
0	12562	657185.885512397125	5163.6019911744
0	12582	657788.243927581104	3423.181593364
0	12601	658718.548466896948	4511.5675802896
0	12612	658992.318725926874	4229.3375923197
0	12643	660146.785395443647	4810.2469987016
0	12662	661058.035670366981	4831.269444969
0	12671	661381.344914633178	3675.4697390056
0	12687	661918.739539180757	4840.1336810337
0	12702	662203.220529039654	4430.1737277235
0	12743	663726.03522081824	4875.5356030788
0	12754	664277.426658285929	4385.8196002707
0	12762	664580.709171834688	5070.4731890375
0	12771	664857.435625494005	4753.9802819995
0	12799	665848.013886478124	3821.0512937307
0	12804	666154.892197056678	4078.5565127782
0	12813	666433.855265641757	5153.8535755988
0	12821	666701.961515909522	4618.8212632377
0	12846	667719.014705601712	5433.9519347405
0	12851	668016.5616353161	4592.4094705983
0	12869	669174.672583427168	4509.8360327315
0	12886	670088.536627010892	3593.064978729
0	12903	670835.221876359012	5649.8164052554
0	12931	672140.172179310335	5370.5804499204
0	12965	673437.467793554256	4839.2688131615
0	12970	673754.832179194148	4244.4532101146
0	12997	675107.023026054834	4883.9739306055
0	13002	675376.834030576241	4497.6982063805
0	13010	675682.044218861668	3832.3545731585
0	13022	675971.431987106015	4423.0487309598
0	13041	676915.612580969606	4656.3723912403
0	13058	677562.676531816539	4979.1701733146
0	13084	679274.436112891623	3443.1601636695
0	13092	679491.094876952608	5232.032310959
0	13117	680458.108357515948	4545.5482300637
0	13145	681707.776511818196	4950.1536298243
0	13207	683794.291784297578	6288.9813682186
0	13212	684106.334667364622	5447.0764168075
0	13227	684404.314265898742	4994.8295266491
0	13240	685011.643589875898	5180.1689771057
0	13252	685318.00355905372	5147.5935742814
0	13268	685908.136192552705	4832.1157842568
0	13277	686235.0491745711	4689.2319460152
0	13285	686522.708080878242	4324.9435271101
0	13299	687094.849586577756	5472.5259912454
0	13310	687716.46044454098	5771.6309792546
0	13321	688030.465436336374	5542.1985911978
0	13343	688890.168364133947	6196.5782440098
0	13348	689167.713835676561	4813.5517551406
0	13357	690090.712676798257	4970.4387830344
0	13366	690578.885955432905	4331.0209962704
0	13374	691122.695567649471	4145.0548983168
0	13391	691955.446745319444	4017.0793592041
0	13438	695128.321408810646	6861.773598846
0	13460	695936.99458301564	4575.8861976677
0	13472	696545.730518618285	3824.4065469092
0	13480	696855.230946096933	4351.808894347
0	13497	697524.856938979047	4292.2973841176
0	13519	698383.406763137599	3896.3405767403
0	13536	699364.927076724751	4484.0666634756
0	13545	699849.755953826954	4706.7176854803
0	13554	700641.575803319638	3867.5482652361
0	13562	701177.799374007581	3770.4748859492
0	13579	702066.254545688591	4347.2280263815
0	13623	704897.038312836206	6161.4701745276
0	13634	705434.431715193946	3942.1991633657
0	13648	706291.994146969107	3966.3793948582
0	13657	707136.249621017317	4154.5283523391
0	13666	707869.533980044762	3904.8825955735
0	13683	708623.77651492955	4561.0045774949
0	13713	711415.182419280387	6000.8759229123
0	13727	712081.787159211576	4117.917286663
0	13736	712898.794886608219	4251.4233102839
0	13754	714651.52654360054	5497.2701712474
0	13789	717319.578178339615	6058.8776711521
0	13798	717966.244855804186	4846.9846132933
0	13816	719482.267647742248	4746.8580553257
0	13827	719856.242759174124	3393.698866368
0	13861	721655.375600392629	5168.4514789591
0	13907	724181.636744526828	5759.2484457704
0	13913	724492.598378931204	3765.8960963443
0	13918	724794.752896611415	5051.2828864556
0	13929	725148.571119618745	4211.1965940753
0	13935	725433.775202491652	4039.1365844164
0	13944	726471.83598866877	4691.3340678703
0	13955	726839.262114028389	3581.7651717836
0	13980	729881.158407073592	6358.5874870245
0	14039	732355.347483067524	5737.5489434323
0	14056	733259.464668398525	4834.8361636381
0	14064	733819.874255134181	3917.4517156709
0	14079	734155.351470099856	3557.012666273
0	14087	734459.490382463672	3692.0255575704
0	14095	734750.564988483345	4403.0332043877
0	14106	735389.162197513189	4176.3001581339
0	14118	736136.239373230463	4287.4475423671
0	14147	737938.273276966985	5266.8089301308
0	14193	740422.853337534369	4359.0968701197
0	14204	740984.042230322673	6387.3814044557
0	14212	741339.980593008162	4206.1452677315
0	14217	741586.288715753727	3776.9919101193
0	14235	742651.961357971113	4798.8014780103
0	14255	743428.790417843214	3968.4513869914
0	14268	744044.105114003965	4263.7463301575
0	14286	745490.126458495804	5192.5108349468
0	14306	746382.082007610082	4377.6821672214
0	14320	746904.871091236473	4065.258749777
0	14337	747930.484053250592	4525.1131005644
0	14430	751100.280628242275	5236.6444260175
0	14438	751428.862492453703	6685.3149059774
0	14443	751742.52306287981	5574.8472812777
0	14455	752049.083430038276	4709.275713475
0	14466	752369.029424607718	4202.9098306745
0	14486	753031.347955100683	4883.9967738676
0	14503	753644.276771675655	5157.4177601654
0	14508	753938.901821875364	5111.7836274061
0	14513	754258.337017990982	5298.4097687728
0	14519	754559.183377656268	5053.0412085528
0	14524	754877.617900411954	5499.8875144686
0	14532	755190.064627967811	5240.5698332364
0	14549	755824.774964537111	5385.7690407323
0	14563	756387.783425677741	4138.0806195786
0	14587	758605.770109907041	5776.2205151835
0	14601	759245.577416417223	4119.2261386462
0	14623	760322.650400924271	4770.352766405
0	14641	761996.821614875202	4898.3633029003
0	14653	762580.836104780052	3502.3493775375
0	14658	762866.977322428816	4521.5498287525
0	14684	764497.420092830714	4791.6803857173
0	14703	766484.396624101733	5113.0435183845
0	14711	766792.834497397094	3840.9512389545
0	14722	768982.160650256847	5493.2661507623
0	14814	774448.458439779133	9237.2954645819
0	14822	774759.941214438994	5090.6825351179
0	14834	775030.370635125177	4325.8979947548
0	14850	775883.639931717628	4883.7222208834
0	14858	776227.998391645139	4547.0923372447
0	14872	776592.472733799913	3493.4021376523
0	14878	776912.173061551603	3895.3332959842
0	14886	777180.850129182447	4469.0294887429
0	14891	777465.951278341065	4250.3249473533
0	14920	778447.335772836403	3632.2960293448
0	14928	778765.834707713892	5288.8004491018
0	14963	781045.438255423044	3451.7495649602
0	14968	781336.959784776136	6347.4915576832
0	14977	782382.104758432292	4497.7083295642
0	15023	784505.44048543078	5865.9440014828
0	15028	784762.57649356539	4651.127269526
0	15054	786263.209414312868	3219.4010673289
0	15065	786879.998153721557	6491.945633239
0	15071	787201.906817693684	4090.4902233724
0	15091	788130.305428151568	4610.6722530426
0	15116	789154.469637594002	5437.6933438764
0	15121	789435.071547552086	4199.6456965954
0	15175	791804.165016187708	6191.0574716663
0	15184	792149.129002762357	4662.4705697815
0	15189	792457.613507922093	4564.1642573087
0	15201	793115.56918339661	4955.3316369
0	15209	793452.98051769739	3318.3181989291
0	15217	793756.782514667331	3772.5768430633
0	15234	794368.863939546311	4038.4908700177
0	15240	794663.326736380659	4523.9753187957
0	15275	797388.528172810748	6431.1776098958
0	15287	798502.831159612789	3100.4875807353
0	15295	798801.625859613014	5302.3761568835
0	15304	799124.305004021335	3611.0038509216
0	15368	803195.234430199957	7080.7976131092
0	15381	803755.290915259395	4844.9593141881
0	15386	804035.320818595649	4381.2782482303
0	15405	805644.845347603302	4784.2653667052
0	15430	806528.909566301171	4439.1453838984
0	15441	807159.936595774774	4826.7252284056
0	15446	807429.669027344321	4942.4529990843
0	15472	808880.626658818647	5711.3255832666
0	15489	809739.560687764418	4375.5797949484
0	15498	810322.636799825718	4743.8090428172
0	15513	811456.777391256141	4934.1571051949
0	15527	811999.491747392478	4215.3752356408
0	15535	812278.907551618307	4256.2490509889
0	15559	815124.420408672246	6012.2733670587
0	15571	815553.352457646235	4261.7053008278
0	15585	816378.014448421319	4143.0738740164
0	15645	819070.079366305437	5801.4882214328
0	15689	820916.114912254664	5634.2407877327
0	15701	821175.175601539415	3839.6332765387
0	15706	821481.837924132261	4268.5559290142
0	15714	821812.151026586509	4458.7925096279
0	15726	822175.895746390795	4735.981205337
0	15739	822766.166185012268	5280.8592116364
0	15748	823008.791133705707	4194.1620337392
0	15756	823237.623516176157	4205.3949182391
0	15764	823523.218156275288	4640.0514244317
0	15778	824108.199448363572	4943.429937942
0	15795	825165.827953778536	4948.4360174344
0	15805	826728.764625915354	4718.3354901269
0	15814	827639.083727438583	4280.339052373
0	15873	831907.231982618009	3880.7474092588
0	15890	832563.437764936047	8060.4292245922
0	15898	832819.482026754071	3663.5797354204
0	15906	833045.842440742301	4471.5216876025
0	15917	833641.290399689309	4361.5709152986
0	15927	835204.136881390366	5644.2519655692
0	15945	836637.241744655727	4840.7251361794
0	15963	838827.917424900093	5953.2029323306
0	15981	840662.733508290877	5019.1838582765
0	16033	843540.84007799483	6289.3774239416
0	16050	844502.456767886379	4459.9686469899
0	16061	844879.605086996193	4100.1085534673
0	16084	845683.802969600817	4732.3849669386
0	16103	846552.739012625534	4486.0984563151
0	16115	846864.082794266967	4465.1526645146
0	16125	847490.399138084902	4626.9277580175
0	16140	848313.259162148771	4657.0415926696
0	16151	848920.855296519086	4213.9274802384
0	16159	849307.714382539905	3879.8510562139
0	16177	850828.294872286889	5195.8163001715
0	16194	851638.570163287945	5029.8281001215
0	16212	853602.835853905184	5417.9305794913
0	16241	854533.25394804778	4303.5340447752
0	16271	855730.8981732467	4651.3767651491
0	16300	857146.790318951582	4776.9329493162
0	16311	857394.771460784455	3762.7998222327
0	16359	859055.666409067763	5349.5911540666
0	16392	860292.844689773852	5866.2435608785
0	16412	860915.186352371204	6048.5458273093
0	16429	861539.327319285716	6369.0151647268
0	16437	861840.68046027435	5912.2963621637
0	16462	862764.74523071	5503.3654658364
0	16471	863063.390365354884	6583.4762130577
0	16476	863370.77262343347	5730.3077412313
0	16490	863650.9628964778	6266.644333403
0	16529	865046.281067085695	7119.5926383836
0	16537	865358.82959328482	6416.0045316709
0	16543	865641.238251818681	6279.8678700106
0	16548	865965.17903953017	6309.3312665175
0	16553	866238.35261255119	5999.1548053086
0	16559	866519.716686585199	5783.5750243258
0	16570	866813.941079348901	5043.3375001056
0	16631	868919.717137176772	7059.8854666662
0	16640	869269.425488531092	5684.5822785404
0	16656	869886.806195294674	5859.5471950191
0	16670	870467.913179330889	7038.0484117896
0	16685	870786.798218652467	4046.4154103247
0	16701	871466.338133130332	4312.7116951718
0	16707	871734.16137086794	4898.9955304117
0	16715	872011.488962166148	4706.2517432405
0	16723	872272.969620821352	7885.3959358693
0	16740	872900.579424589783	4975.2048267826
0	16759	873839.477658992223	5785.0685359848
0	16767	874155.949106006626	5056.7022701766
0	16781	874680.819030925312	5086.2515764698
0	16832	876521.676033711019	5804.7136658797
0	16843	877146.929234785753	4875.6825044446
0	16854	877414.124849316096	4659.7837825005
0	16888	878508.386308556964	5366.6832133348
0	16893	878804.102700844628	3727.7728155305
0	16904	879095.007763099466	4972.0604628166
0	16910	879422.013312263338	4048.6575137229
0	16924	879690.510683748813	4449.8223114747
0	16954	880838.242194782632	4925.7986479059
0	16969	881180.555932138026	3655.894861294
0	16988	882034.077325497241	4652.5878323575
0	17004	882675.759492115657	6452.5480365674
0	17024	883317.445613745936	5767.1657171655
0	17063	884831.979595774677	5231.6714037756
0	17074	885124.060564095738	5648.1106902873
0	17088	885659.013912571203	5585.595656003
0	17096	885948.968734590378	5042.8812387407
0	17102	886238.94072964407	5142.7133763114
0	17116	886483.907122018622	4049.0949122861
0	17132	886959.277884852457	4999.2599095475
0	17141	887245.829349846778	4026.9503216304
0	17157	887810.237813407079	4258.6273686543
0	17185	888998.598086111415	5283.6337028692
0	17190	889328.202747778109	5606.4719363742
0	17199	889613.904876805403	4678.7233885294
0	17208	890829.592933321419	4571.5313019199
0	17225	891258.020571796409	3646.8801203684
0	17236	891778.688262507046	3980.66370811
0	17241	892103.835597415988	4912.6699001631
0	17276	894465.502405723988	6410.4933077702
0	17297	895616.821401635428	4394.3388812992
0	17302	895912.807174225618	3402.2609844259
0	17319	896844.977224277675	3970.3978462427
0	17328	897834.7237463738	4744.2283241325
0	17354	899487.859921096727	4511.876456812
0	17372	901389.98999559564	5172.3544555093
0	17381	901791.575176764148	3315.7074377765
0	17427	904132.911155128429	5596.203460013
0	17449	905100.629753452469	4480.6722492852
0	17513	907443.914075413858	5255.8566583575
0	17525	907778.758554988695	5465.3031681848
0	17533	908068.703922817457	5372.8357678271
0	17547	908711.610443335376	5177.9772423283
0	17558	909049.00973617421	4961.4962750701
0	17567	909341.064859255249	5186.2613997054
0	17595	910325.15570788676	4896.9574203379
0	17600	910637.799003798817	5069.2510850291
0	17606	911005.975070380703	5460.3995270243
0	17614	911294.178213330188	5154.199437887
0	17619	911584.220904501223	5876.0476921773
0	17625	911944.315780165801	5516.2301542471
0	17641	912607.115944511404	4623.5127757131
0	17673	913550.4662409837	4366.5791354006
0	17704	915347.838891042806	5862.4524127106
0	17729	916553.909614044359	4531.5825178706
0	17740	916883.06812905046	3503.2203487597
0	17746	917225.077960773662	4217.4895630702
0	17757	917573.682504588045	4843.3649966408
0	17771	918182.808932909392	4761.4716406008
0	17785	918787.084935544041	4312.8059219976
0	17794	919570.314620862276	4444.4266157019
0	17806	921086.30528513747	5137.8356173087
0	17820	921653.138057217915	4360.6413406243
0	17855	924479.183618534946	6312.8907347724
0	17892	925659.426495757996	3601.7392866178
0	17897	925922.259942460643	4996.1924275235
0	17922	926828.176871378023	4630.0172400789
0	17937	927602.457465904394	4094.2500719722
0	17951	928191.039671313314	3691.2237413274
0	17973	928815.6404790924	4029.6910537279
0	18021	930684.47836319278	5758.001239412
0	18037	931236.306415053567	5290.0215318386
0	18060	931799.697335545166	5756.2916850913
0	18085	932677.650127329146	4660.9153999141
0	18093	932956.211855883078	5621.6998862718
0	18110	933631.105216394724	5086.3813429851
0	18115	933951.64628038732	5179.6084618435
0	18124	934259.653912345066	5224.8219834906
0	18132	934560.440734277318	4783.5505299703
0	18137	934871.613522663768	5617.4027447648
0	18143	935208.789923053407	4692.1377915063
0	18148	935411.040490952175	4345.926399676
0	18160	935784.766797051335	4201.021562505
0	18165	936152.252583212318	4619.5387503893
0	18248	940865.566421166646	8068.3500726225
0	18288	942093.37129009405	5172.6413399255
0	18336	943547.586241946701	5952.7290376936
0	18344	943805.939998774172	6074.1806962379
0	18358	944419.483833725623	5529.405042442
0	18366	944721.711708470378	5310.396376086
0	18386	945303.231823283802	5599.6688059996
0	18400	945594.179901185738	5914.7877505114
0	18419	946488.157087571832	6297.4493739244
0	18424	946829.191045510221	6022.7129486722
0	18433	947171.094500781356	6217.61117185
0	18438	947455.558259697062	5687.5430624343
0	18444	947741.36365934605	6738.1563532246
0	18449	947989.216603581521	5321.0993232428
0	18457	948310.363494119433	6481.4591505521
0	18465	948575.808613940901	5746.3092491849
0	18482	949114.771731221922	5477.6549388844
0	18488	949478.191991865568	3978.1954549776
0	18493	949792.294444467938	5350.8391893014
1	1071	51081.943262963196	211.7757360811
1	1105	52847.101415059579	0
1	1120	53120.619020584064	172.84599433699
1	1125	53481.170559513955	501.27585335159
1	1133	53808.267356588806	58.659283822638
1	1145	54120.730770617176	223.53343948117
1	1156	54374.430876934406	284.80405542982
1	1161	54693.339432993238	356.1526648648
1	1170	54968.314148351919	256.53177237493
1	1234	57578.796742936219	296.10370337085
1	1242	57853.060858789767	479.92585010139
1	1262	58414.643488487671	95.630182401685
1	1279	59026.920722321361	320.04615242234
1	1284	59335.514999356827	592.58659231665
1	1298	60020.253449024766	239.89335424686
1	1318	60887.56912855538	271.26402488117
1	1340	62092.740634539575	0
1	1354	62374.671553295523	82.868844275864
1	1368	62929.714230974472	204.60214952803
1	1390	63874.43793030674	110.51421190627
1	1433	66043.581495064341	54.989242285768
1	1441	66362.997108224495	144.02177375617
1	1459	67855.488131304282	0
1	1467	68260.320090580757	0
1	1476	68525.767550240489	85.187302999484
1	1493	68871.210093119371	264.02389041175
1	1498	69176.067518663776	426.34201897942
1	1530	71188.617831602909	230.41346277821
1	1546	71730.088150829538	28.942354906279
1	1569	72314.351922412503	22.483668605865
1	1574	72627.817343308097	328.80763636843
1	1591	73196.391243255213	99.808652287112
1	1596	73543.138620589214	401.70449731894
1	1627	75055.791825212996	205.45724707297
1	1639	75348.762600856048	43.50367008012
1	1667	76246.030656301839	50.849857290511
1	1686	77628.852383643478	0
1	1695	77940.668988861813	138.69955024691
1	1729	79938.157731490453	0
1	1737	80235.472715981551	16.705246880907
1	1763	81877.74263086475	0
1	1799	85044.69699553978	91.841479949371
1	1807	85425.551146786776	0
1	1816	86262.83639414205	0
1	1825	87171.613633069952	0
1	1834	87731.357368381693	0
1	1851	88643.453566626373	253.50527000472
1	1862	88930.005025665514	227.89265875365
1	1919	92173.353420436059	263.569973825
1	1940	95901.172049981942	0
1	1948	96451.797453575669	0
1	1957	97313.87571933029	0
1	1966	98180.428053417876	0
1	1986	99044.03743500607	193.2442111641
1	1995	99286.67264773449	257.33830654818
1	2017	100262.19644336393	0
1	2025	100609.300771868025	66.685055082588
1	2033	100912.543376200974	85.814694301451
1	2051	101249.268133232277	332.91022520353
1	2056	101547.622646321881	338.10287679036
1	2065	101874.170566698389	662.14394466244
1	2070	102231.033628870448	652.05753157112
1	2098	103117.354893221033	188.76421378962
1	2106	103434.702727386279	348.3843606577
1	2115	103762.575328273336	45.641568535455
1	2173	105858.819014898863	83.942793608224
1	2198	106785.904183857893	290.94970252985
1	2215	107372.432102058008	84.189029441432
1	2229	107931.112939845296	257.04197045923
1	2237	108192.665327263862	98.162035242614
1	2268	109574.229268767354	126.20770185551
1	2284	110283.315737472331	0
1	2305	111225.181689523066	334.90311127394
1	2327	112720.175704648633	121.16557900227
1	2354	115343.253398069349	0
1	2363	115675.01074187309	0
1	2381	117253.309373084932	0
1	2419	123040.834970166952	0
1	2428	123350.724143703121	105.23725204639
1	2438	125062.306917986782	0
1	2446	125636.586148734661	0
1	2473	127867.097650445648	0
1	2490	128480.230933951227	146.82661614271
1	2501	128776.153845946807	54.602843127395
1	2509	129047.358267943182	94.767756111412
1	2518	129346.794991212886	42.895881940605
1	2526	129661.946544440235	113.68966012572
1	2534	129956.384081143934	16.377320171227
1	2548	130518.067503430254	224.41571325339
1	2573	131630.123811473868	0
1	2593	132272.121270064511	78.279462853277
1	2604	132545.228800689232	274.33261056368
1	2627	133075.246912455383	237.33942941309
1	2632	133384.141911534594	337.37651784658
1	2641	133621.223134251139	149.00856463761
1	2657	134247.113862818538	36.597107073756
1	2674	134874.890757978676	88.849338381621
1	2705	135819.808342660311	101.81517722177
1	2779	142910.907224540875	0
1	2790	145778.622955276282	0
1	2807	146622.880846373593	0
1	2815	147058.221216327023	0
1	2825	148332.162650552506	0
1	2854	149964.816412933957	156.27770683378
1	2865	150278.153003780297	145.59165018954
1	2870	150491.148179822624	335.52705450325
1	2884	151276.250759613502	0
1	2907	152099.340214701008	210.20041436513
1	2913	152385.761584330208	483.64969310741
1	2918	152712.711764404444	651.98937176281
1	2964	154895.232583668874	296.02627649614
1	2975	155206.864271611853	516.92050645688
1	2992	155831.074050505983	148.93633258011
1	3003	156118.474840701972	310.50174422015
1	3014	156451.87629568934	473.24152928439
1	3023	156736.589460369901	735.30161714592
1	3028	157022.050851171476	781.01358668203
1	3033	157312.633545129618	814.40946656128
1	3055	158142.567118737584	234.90739272129
1	3094	159641.651652970482	72.034866957248
1	3111	159919.836620801137	248.76120778564
1	3144	161479.123754318383	0
1	3161	162193.761500059224	0
1	3196	165014.824265786364	0
1	3214	166136.695149888518	0
1	3224	168173.121237247364	0
1	3235	168454.906940643478	152.80096309827
1	3249	169102.382970977312	180.86128581008
1	3266	170161.622488785859	0
1	3276	171496.082880595309	0
1	3310	172960.429570935133	0
1	3327	173948.946363356415	0
1	3345	175890.006782738944	0
1	3363	177271.851873186927	0
1	3379	177861.787175206944	81.962280512477
1	3397	178872.717391963979	0
1	3405	179314.001355188864	0
1	3413	179615.836138419868	66.469198064866
1	3422	180112.564426813425	0
1	3439	180432.793387766625	151.01796686566
1	3445	180756.505298366855	396.20199827292
1	3453	181062.431944611419	654.54456897786
1	3462	181355.834499411134	237.17864238213
1	3501	183108.929136246205	213.94052030933
1	3551	184914.020215818376	68.537887348042
1	3573	185840.676642188889	115.460692952
1	3582	186580.08969613705	0
1	3590	186993.908782848816	0
1	3613	187835.100493182133	240.44180998021
1	3621	188106.981264699664	456.20815307124
1	3627	188449.403489080629	623.08715170304
1	3632	188732.774229325394	867.62819567726
1	3649	189586.813319516491	0
1	3669	190051.506631657279	175.88413665002
1	3685	190656.455846072218	198.7605638786
1	3736	192967.032061577417	131.10567834172
1	3744	193281.145545748558	173.93595695937
1	3756	193562.497262941514	200.91316283874
1	3802	197344.540084360745	0
1	3813	199322.529410873339	0
1	3821	199782.87319179733	0
1	3838	200807.16355317115	212.56769107587
1	3847	201174.096975772554	0
1	3855	201775.901017389824	0
1	3864	202242.732511062621	0
1	3915	205076.431434953816	41.753032111261
1	3932	205678.619084689719	213.74914264031
1	3942	207476.790601218016	0
1	3959	208128.21879824672	0
1	3977	210373.121817068987	0
1	3989	210679.023213956618	144.96048802152
1	4006	211277.022346789066	102.61243030882
1	4029	213627.459677941084	43.037058734659
1	4049	214608.826121361694	266.97177144673
1	4064	215673.397015937215	0
1	4072	215976.978651985486	0
1	4080	216241.715636792967	97.818419529961
1	4095	216544.71427133847	300.99969182527
1	4100	216820.246298477892	296.13194913751
1	4131	218706.526516316403	0
1	4140	219005.836426982927	221.66133744622
1	4157	219313.239518580624	263.67578211974
1	4168	219633.544961251907	521.33147235153
1	4180	219893.039503131171	202.42030885271
1	4185	220192.628054012868	304.12031519501
1	4193	220532.246181545232	329.4072038366
1	4210	221160.699991564974	72.615348962839
1	4229	221989.224535208587	135.19643545945
1	4262	223129.985230052471	83.665837882609
1	4296	223951.150524596494	75.291109725809
1	4302	224287.546009810156	408.68284457056
1	4313	224604.955477392728	256.49090560784
1	4318	224893.446787830467	459.32702540344
1	4330	225165.497781959412	38.887782448178
1	4343	225782.116748932495	126.12864270343
1	4374	227008.651175158476	206.43873560733
1	4397	227547.376672978117	197.83321736331
1	4422	228461.66793218601	209.74209332007
1	4441	229429.405528554517	302.82506351488
1	4491	232234.088334406561	0
1	4509	234309.948930144047	0
1	4518	234609.160748205944	57.054742626747
1	4535	235578.686771909411	0
1	4543	236035.409942284089	0
1	4552	236307.076969721901	0
1	4560	236582.757745292189	169.96344444801
1	4603	239034.004782776818	297.24946593425
1	4629	240441.945522409313	0
1	4637	240775.923886403692	20.114840441282
1	4645	241142.474360273374	0
1	4654	241426.148520455236	250.04587298624
1	4662	241726.630253575265	0
1	4679	242416.903850653803	2.761220603705
1	4688	243160.43475480839	0
1	4721	244553.375737443012	245.50659597649
1	4755	246290.660759492635	0
1	4773	247472.170314795454	0
1	4781	247787.795756038389	221.87312702355
1	4793	248057.57176996567	31.195717689078
1	4801	248339.474861820041	152.36632283933
1	4823	249568.988203566107	28.319442510937
1	4832	249849.428716449677	135.96802725037
1	4840	250142.442649091802	257.670527361
1	4848	250442.558261345997	6.109829764869
1	4860	250750.366556849011	91.482588320438
1	4893	251829.681931088901	175.64332573612
1	4926	253014.934677332489	255.5336190308
1	4943	253550.528505428726	157.59904476259
1	4974	255746.890798659288	12.074709040008
1	4983	256076.972769824193	175.16516505642
1	5011	257017.263451270274	151.9642778764
1	5019	257259.138595000072	370.5202797219
1	5025	257594.713743473266	413.73326849848
1	5033	258260.958055348121	0
1	5059	259731.27692848234	84.739758433022
1	5068	260032.79047398011	160.80711539592
1	5087	260566.190439388595	100.59738596998
1	5118	261771.246230203851	324.11036400071
1	5162	265783.218542414681	0
1	5171	266273.823300480379	0
1	5179	266614.106210058401	0
1	5189	268323.377157430602	0
1	5204	268638.214655131726	286.93245850826
1	5209	268897.154208719423	440.87283609855
1	5239	270198.059122439047	0
1	5248	270502.259888156461	112.95724609699
1	5282	272346.426946891789	47.880586376497
1	5290	272657.26296359257	40.230282524091
1	5299	272938.39770532135	44.920416282786
1	5324	274068.753026562634	225.56147463638
1	5333	274966.339165441906	0
1	5367	276571.366970622177	88.039469823046
1	5384	277652.511243420615	0
1	5401	278495.894894604466	64.387451175561
1	5410	279342.811950829351	0
1	5454	282322.922925256469	0
1	5463	283337.976276949631	0
1	5471	283803.107890734552	0
1	5480	284484.982146306395	0
1	5498	285981.834958959921	0
1	5523	287048.227160665913	0
1	5540	288149.621822900651	0
1	5558	289662.935402776007	0
1	5576	290861.503392169222	0
1	5593	292028.73266815283	0
1	5629	295325.908407489358	0
1	5638	296664.522791356004	0
1	5647	296952.730948926295	244.94575342267
1	5664	298283.087239267217	0
1	5685	299724.685539014935	166.91821728548
1	5693	300050.665555014722	172.86858223554
1	5717	302159.77369513855	0
1	5725	302494.995165084353	114.7103457919
1	5751	303945.443929938624	0
1	5760	304877.708494168887	0
1	5771	305209.059121494558	103.67198243594
1	5786	305595.544772458651	370.46490767577
1	5791	305912.979910677589	392.78003981726
1	5799	306166.092948863657	171.74674297699
1	5844	308521.686035810004	0
1	5859	308828.000420258809	288.233943826
1	5870	309148.324757615646	217.26258690995
1	5884	309790.382940211706	205.77646802769
1	5903	310682.122760989684	196.37916421642
1	5911	310944.197889733186	176.43641506134
1	5928	311774.058845504452	168.86309157613
1	5942	312096.639570823304	75.867607995563
1	5951	312357.294513755113	223.50466132375
1	5995	314186.910823730342	9.160196206656
1	6029	316344.14091717373	0
1	6046	316988.808580351795	0
1	6054	317297.289319121438	243.05513892917
1	6063	317560.995215880256	102.88232579599
1	6073	319091.795473959817	0
1	6124	321797.695936150458	185.75570118441
1	6134	323378.167038346347	0
1	6142	323689.970355448526	267.6623359113
1	6151	324205.436581257322	0
1	6183	326691.685919010149	318.585764287
1	6192	327005.862811340015	369.89494565521
1	6197	327303.24222650308	424.08049885736
1	6220	328899.846388287504	0
1	6237	330137.12974009632	0
1	6252	330468.093778933696	253.35106016456
1	6260	330817.015357467666	74.980448512739
1	6279	331746.764896558836	285.88424013073
1	6294	332025.801764337632	263.75823241267
1	6299	332321.012105953	468.38034589921
1	6319	332882.896573556212	292.67773731729
1	6327	333181.924279139274	491.07929956344
1	6335	333504.965856525522	738.20153844453
1	6347	333819.725468534747	768.61517233295
1	6355	334081.546362271733	160.86531937492
1	6383	335014.577905319357	276.47451350425
1	6392	335333.305286387978	97.362385356059
1	6408	335912.387574320195	109.11841397844
1	6442	337070.941743707942	23.296615085616
1	6472	338196.393040417047	64.039327147611
1	6483	338474.093314503702	170.50514851788
1	6500	339075.239605719526	187.66301722877
1	6508	339401.886009595083	170.68644480298
1	6544	340807.739558210001	281.86744893357
1	6558	341361.890625857812	247.92173489929
1	6586	342249.474803034337	133.93924588446
1	6605	343788.07317862758	0
1	6642	345548.465627752231	111.77028354231
1	6648	345822.864169998531	281.65636995998
1	6657	346744.18460312494	0
1	6665	347016.798758664096	29.441790037058
1	6709	349920.683783637682	0
1	6726	351293.464226729433	0
1	6735	352364.296035109847	0
1	6752	353134.758049576257	123.49538046482
1	6764	353474.122163296553	252.63637904511
1	6769	353804.046542707918	419.58302218375
1	6780	354078.610977929997	190.93846237739
1	6786	354392.614724428973	395.03273936467
1	6800	354715.983379647062	282.61469038476
1	6812	354984.968868089386	490.86968870846
1	6820	355359.835311412147	588.65800209586
1	6825	355684.636152665908	716.38645806708
1	6840	356024.341155378377	227.88426145622
1	6848	356341.102858517974	412.59343179744
1	6856	356611.666923392812	275.9767288643
1	6909	358365.8336166034	161.59210717566
1	6986	361576.951446090923	0
1	6995	361890.554149796948	58.564651830854
1	7004	363018.569382825907	0
1	7022	364884.011518508987	167.8689205304
1	7039	365907.450850991294	0
1	7057	367686.603328121326	0
1	7077	368230.350052918774	250.30258231092
1	7082	368588.350961061162	494.89449901928
1	7100	370116.163960106106	0
1	7112	370485.098105055175	310.12884560342
1	7123	370804.735596193205	613.57354366226
1	7131	371112.184576508399	578.71402262178
1	7143	371430.896716121592	189.91313798169
1	7157	371738.935821418215	461.96072285558
1	7162	372017.283327894705	556.57107865376
1	7171	372345.875110510113	858.96005843106
1	7176	372700.37046437654	1161.9846355428
1	7198	373528.500677104606	12.302305877346
1	7229	374420.936916433714	292.52961776261
1	7285	376640.055207292037	212.10982978286
1	7299	377254.958606192187	277.6477710411
1	7335	379484.492173216937	333.11375083567
1	7352	380184.627529717068	0
1	7361	380696.775817488446	0
1	7370	381588.681246900636	0
1	7378	381972.507305257071	77.018456379445
1	7395	382840.136667566817	0
1	7421	384661.794397303768	0
1	7447	385872.138639338277	0
1	7464	386639.477104105204	0
1	7472	387000.912651131505	235.76045686902
1	7480	387384.173872105532	0
1	7489	387676.450592724974	229.17110848264
1	7506	388600.230516527053	0
1	7514	388933.561058741481	38.760131871583
1	7531	389611.345568427226	111.64056045886
1	7554	390196.392865433003	144.23992946033
1	7559	390522.308213856546	408.81767750165
1	7579	391106.408746524043	263.08195674321
1	7592	391639.082185871006	301.78176288683
1	7604	391935.184312443597	126.5632793985
1	7659	394147.632309698792	239.45179709037
1	7690	395295.537796298029	158.08616952014
1	7698	395578.803741187505	92.784628229479
1	7706	396027.033087846004	0
1	7715	396316.173896029709	34.313635824895
1	7732	396911.36179009207	0
1	7740	397213.453960113565	222.621525374
1	7748	397643.22499588617	0
1	7774	398937.401839106322	253.33195557172
1	7797	399755.782431767907	217.75424138982
1	7805	400023.758404775114	362.36384490534
1	7814	400341.171344190482	281.69865685472
1	7855	401877.539292947607	213.42983084005
1	7861	402152.196825275333	442.7385421426
1	7880	402815.190399405538	212.3523843186
1	7895	403148.9995296953	515.35343688533
1	7900	403420.438188097193	296.92050764898
1	7948	406047.146779502934	95.570852923971
1	7960	406408.145458029652	126.76125238714
1	7979	407407.14494129981	1.392926865174
1	7987	407759.39301282413	117.80485196725
1	8001	408397.698647535747	0
1	8027	410214.525164230752	0
1	8035	410529.107271938051	37.26275418942
1	8070	412472.117008784051	0
1	8086	413109.202400033179	161.29133329065
1	8098	413402.479546549776	181.75841551523
1	8112	414222.478640726588	0
1	8123	414545.348394164657	232.64630234264
1	8129	414867.983311479507	343.21294021169
1	8137	415164.916469868792	208.71477898589
1	8145	415454.003142406973	75.220104801578
1	8154	415765.760820959946	184.91904624235
1	8179	416765.176953811105	0
1	8218	418044.63869318718	331.99689687558
1	8233	418417.667039238717	454.12529315629
1	8241	418715.910951357932	202.0139200139
1	8252	419046.369495250486	322.61601030187
1	8261	419393.139514302966	549.09150571364
1	8266	419706.36247722021	520.43659291478
1	8281	419993.707497207932	191.40072493079
1	8286	420291.253572757607	369.04717592272
1	8294	420580.720737414936	207.77437493491
1	8308	421088.154428501976	72.756262721578
1	8355	422516.622328490569	295.62687969522
1	8367	422796.52652692692	485.37575288018
1	8446	425915.308281929194	281.772935598
1	8452	426196.484261268779	552.4439886452
1	8460	426471.553981812405	244.79024911917
1	8468	426789.351944231551	26.567728571837
1	8488	427701.598067900882	300.7803462211
1	8504	428509.982707034435	0
1	8516	428832.794085938594	202.70485060298
1	8530	429192.924301012856	89.634368222073
1	8536	429515.920880754279	342.43180209065
1	8555	430147.814012055919	334.59113483005
1	8561	430467.885630082939	506.10482779098
1	8591	431604.537513325319	84.488340043613
1	8630	433092.986637307727	50.445115600954
1	8641	433383.618072477891	278.6028261836
1	8658	433939.416088419873	156.7141097028
1	8672	434572.035696781198	177.41500085212
1	8683	434867.526862441917	264.84902140832
1	8697	435949.573746433659	0
1	8717	436622.422154000871	159.50742334288
1	8765	439506.242100121629	0
1	8774	439877.575770581678	0
1	8790	440483.284364579753	0
1	8800	441495.873801744064	0
1	8808	441871.940827902926	0
1	8825	442522.011429287898	0
1	8845	443220.041833866892	87.990158771489
1	8876	445464.332976341873	0
1	8891	445816.421516604998	223.7710106381
1	8899	446105.249206724476	438.11121137324
1	8904	446411.051178979122	622.03918610492
1	8926	447265.730911884948	23.295451647284
1	8952	449035.682028687592	0
1	8986	450701.547812323949	115.95830454883
1	8996	451632.34939470467	0
1	9004	451956.027863327946	62.769925075761
1	9021	452608.771876238716	228.90739263548
1	9029	452905.380833887609	86.65644589922
1	9037	453169.75534070218	9.352098077002
1	9046	453889.241168151482	0
1	9080	455250.223769265638	0
1	9123	458435.074931468834	0
1	9143	461052.766833858143	0
1	9160	462115.338481708872	185.99105457789
1	9169	463253.763136786005	0
1	9178	464217.94124602812	0
1	9195	465157.743852209659	0
1	9212	465758.010365974516	263.10370580045
1	9223	466088.454114201565	287.39606650437
1	9264	469357.430477011197	0
1	9276	469634.759058962326	268.46514119072
1	9300	472614.745570336754	219.73093700769
1	9317	473579.345480592809	0
1	9326	473875.903763838372	124.76633458885
1	9334	474671.834745411803	0
1	9346	475005.944093256034	235.10315152746
1	9357	475282.159275076532	370.0455377269
1	9365	475552.324797783419	397.32910405077
1	9371	475857.837985098829	648.76754384972
1	9396	477095.470365368741	200.07391661175
1	9408	477375.568963898886	291.18297804902
1	9413	477718.1419979458	390.7335118742
1	9477	480432.609448425763	76.015632116452
1	9489	480716.663588931955	140.01072422656
1	9511	481593.910294761006	0
1	9548	486398.72542821854	0
1	9556	486689.899565410116	280.97883463944
1	9565	487336.035024711663	0
1	9574	488297.62584085535	0
1	9600	489908.405535582639	141.48568545472
1	9618	491404.663811312915	0
1	9635	492033.477978845675	152.60869550677
1	9643	492350.434573652691	32.710420538051
1	9661	494276.032666226462	0
1	9690	495553.739292408779	279.95002736535
1	9714	497952.69799842705	0
1	9723	498823.144008257272	0
1	9740	499699.072863504276	0
1	9748	500216.15161797764	0
1	9765	500885.892580580042	0
1	9774	501261.412945499977	0
1	9808	503598.137726079104	108.42937743652
1	9834	504803.7935575616	0
1	9842	505318.236189402903	0
1	9879	509245.669945992194	0
1	9899	512847.678719940377	163.10713944553
1	9907	513171.975710620634	0
1	9922	513464.481041974008	238.3416025402
1	9927	513798.474035108087	428.47310194262
1	9933	514084.159909623282	683.51344487929
1	9941	514381.904977367286	25.547502150694
1	9949	514697.790353952921	4.871555499264
1	9958	515693.939469400563	0
1	9990	516962.170893689817	169.60153856652
1	10001	517296.49297527	112.29716608285
1	10013	517613.327191947175	105.68099815135
1	10035	518494.778617430617	106.7633676668
1	10051	519117.460757488093	95.882442791585
1	10096	520986.445048693956	102.86904198422
1	10104	521222.550341972486	119.4356843253
1	10120	521745.059352700653	63.311675044378
1	10143	522668.747641844126	0
1	10169	524964.409691877337	0
1	10178	525204.695841914245	17.440041450044
1	10197	525803.477734946308	150.7027194233
1	10211	526762.865326623885	0
1	10255	530179.585267415994	218.50489413597
1	10265	531814.845516292252	0
1	10274	532730.82532109345	0
1	10283	533024.291507727987	85.751897374223
1	10291	533607.901035032931	0
1	10345	538380.680747975775	0
1	10354	539017.741793638121	0
1	10382	543006.96550950978	0
1	10391	543316.075850542412	141.72019659883
1	10399	543768.324263488922	0
1	10409	545549.937969230056	0
1	10429	546276.000491881775	38.433459801136
1	10451	547228.082317045926	341.26811795725
1	10470	549230.734867929605	210.23581652281
1	10487	550338.397864117036	0
1	10504	551254.093185960435	0
1	10513	551972.869114714129	0
1	10530	552610.114462777475	202.37481832509
1	10547	554077.318246448779	0
1	10573	555409.237932992344	0
1	10584	555684.990588568773	261.00223844407
1	10593	556016.208067036257	306.72633663714
1	10601	556298.666358782718	66.54640896547
1	10618	556876.299833169643	208.69945241482
1	10632	557174.120248734198	268.00509709731
1	10640	557495.903063729467	505.98673705655
1	10649	557805.768949015036	692.00959123923
1	10654	558113.52031029896	837.44479422391
1	10665	558415.584867173224	627.08920844536
1	10677	558788.14055303748	405.74594852939
1	10685	559076.684309335351	363.65259341107
1	10705	559722.420157317034	209.01653235361
1	10758	561486.919084670637	254.01603296988
1	10763	561825.412101058469	367.32853027377
1	10841	565681.209520685344	0
1	10852	568320.963684037263	0
1	10860	568636.517373829026	17.590120689557
1	10879	570840.18392013245	0
1	10896	571599.081022057242	0
1	10907	571935.495539516501	325.73315805949
1	10916	572242.237797702833	290.47657179209
1	10930	573558.78328218278	0
1	10941	573873.285531660799	170.41668544696
1	10950	574170.648695228656	139.40627514399
1	10983	575275.910802022653	188.17738749612
1	10994	575610.988357291227	362.0378849613
1	11003	575929.681772662619	524.69710377624
1	11008	576185.203868729751	769.25065023424
1	11047	577795.321182187925	35.015123494867
1	11067	578537.327444256977	100.08341363092
1	11075	578868.854632158063	62.684380864726
1	11100	579792.964466042166	348.61419262465
1	11143	582235.680507222213	156.69398163239
1	11152	582533.495066017507	313.43233358204
1	11157	582839.766588393733	601.96789027478
1	11174	583412.08026707404	14.663467107495
1	11212	586136.633209073405	105.69805827413
1	11220	586469.399651925314	166.87387435897
1	11228	586754.594150906727	160.21093313762
1	11242	587319.922392911857	177.12325250559
1	11251	588130.011659687597	0
1	11260	588853.566796519004	0
1	11297	590392.924680603041	116.01625428962
1	11313	590931.808290418241	97.907556201737
1	11325	591237.573302202702	227.42906168078
1	11330	591555.643798386825	363.24287269512
1	11347	592069.038424721469	181.45216498853
1	11352	592406.100813137044	484.30863543048
1	11363	592746.715287178666	37.965246035539
1	11375	593053.840369481345	266.46849170897
1	11383	593379.34048497123	304.70406510749
1	11430	595202.742803257587	238.46964666868
1	11439	595489.350826914137	7.404758391405
1	11464	596304.417232476628	249.67470611734
1	11489	597270.556328601587	63.16869335458
1	11497	597624.024001040918	139.01634803084
1	11519	598593.312401455512	0
1	11536	599380.213460599499	0
1	11562	600515.477600422775	249.49896592724
1	11578	601317.49111778058	0
1	11604	602477.063451536308	27.088959054823
1	11612	602711.075749076718	93.336126465343
1	11621	603034.599631961377	95.759239271802
1	11647	604863.204229808209	22.056666000141
1	11666	605475.919277605255	103.56400076156
1	11689	606505.246662268945	0
1	11697	606809.612818101082	158.05926239853
1	11741	610180.875552322983	93.824754976304
1	11749	610683.378769759869	0
1	11758	610965.858406821144	138.57262010726
1	11767	612196.944752154539	0
1	11776	612511.357025071912	70.457633486254
1	11787	612852.087440482578	205.84525259618
1	11801	613406.411351299719	94.605728861469
1	11817	614029.762517165223	215.44203345262
1	11834	614730.43431134212	208.23813131312
1	11860	615929.145783404213	116.31639267156
1	11879	616523.468710193044	99.63229858646
1	11910	618102.042851324313	0
1	11919	618426.027105152052	186.47930214445
1	11936	619557.725427771273	258.406170755
1	11953	620878.759972631775	0
1	11962	621173.185286288085	97.240842669546
1	11984	621806.556978609455	247.28205410549
1	11990	622097.873784939031	446.89472605812
1	12013	623774.191812739254	0
1	12046	625151.844896530668	0
1	12063	625876.776658640487	0
1	12090	628221.535960715131	238.59137777549
1	12101	628552.853085509234	296.88129460553
1	12107	628899.627660577109	457.95314416614
1	12124	629669.035872109523	192.0857819324
1	12162	632189.128564028677	246.7150065877
1	12170	632509.975113198933	343.81316692262
1	12178	632805.447581256563	297.37150242854
1	12192	633646.651049071247	0
1	12219	635949.234988369631	18.898729700489
1	12255	639118.9266010712	159.4085866109
1	12266	639397.292415646312	155.63694325784
1	12271	639696.414213954901	378.07415557631
1	12280	639977.492295644412	230.89201561963
1	12288	640656.94176749256	0
1	12297	641123.703219843202	0
1	12326	642534.826820275638	20.729124227403
1	12334	642850.490919000908	97.00784334389
1	12354	643447.120338395356	190.16257154157
1	12382	645051.953339871175	0
1	12416	647302.575209300293	180.96425613127
1	12434	648786.316663256917	0
1	12453	651154.413246771419	0
1	12461	651523.235783311823	363.29869078133
1	12478	652251.81108485222	229.52756362945
1	12496	654262.102578106913	55.12169149956
1	12508	654571.954073291601	206.89173907453
1	12516	654920.431167550456	157.45003394326
1	12530	655525.083073466995	188.54467672493
1	12547	656226.766225398012	0
1	12564	657185.885512397125	107.27965425003
1	12584	657788.243927581104	82.368751953512
1	12592	658109.951459952198	336.90465863603
1	12614	658992.318725926874	141.81910818742
1	12623	659510.235982797225	0
1	12645	660146.785395443647	255.17833742841
1	12651	660489.075535886209	385.62019239171
1	12673	661381.344914633178	101.34322459026
1	12704	662203.220529039654	176.25793629227
1	12712	662493.900619922221	417.56493564374
1	12717	662768.101793036615	684.96154036479
1	12726	663075.246352100147	790.18358123896
1	12745	663726.03522081824	301.88305610048
1	12773	664857.435625494005	192.59907479835
1	12781	665185.405471103583	0
1	12823	666701.961515909522	206.48986762761
1	12834	667051.043862905117	281.45213351513
1	12857	668598.198980392757	0
1	12874	669510.378969079498	0
1	12891	670223.049095449313	0
1	12908	670879.135824195765	0
1	12917	671548.383256146172	0
1	12933	672140.172179310335	290.48253360717
1	12942	672470.697585753855	211.45739602458
1	12953	672791.2861014562	207.77974295423
1	12976	674259.062565993603	0
1	13024	675971.431987106015	140.15603788391
1	13029	676217.164008683605	304.6038812314
1	13043	676915.612580969606	157.98969897566
1	13060	677562.676531816539	57.366115737524
1	13069	678659.258250557137	0
1	13094	679491.094876952608	81.610137702964
1	13102	679831.474612770187	0
1	13119	680458.108357515948	287.69837274359
1	13128	681076.020408295878	0
1	13147	681707.776511818196	161.9592832623
1	13156	682005.836253214775	383.51265788243
1	13170	682318.345095024534	373.51562973814
1	13182	682635.604485893934	437.83993212578
1	13190	682925.571203669696	437.30435853113
1	13195	683224.129961376405	530.53984125228
1	13229	684404.314265898742	50.152185362795
1	13254	685318.00355905372	197.72966528983
1	13287	686522.708080878242	274.84312171577
1	13301	687094.849586577756	117.20891724504
1	13323	688030.465436336374	92.098050220995
1	13331	688330.7744071992	64.226597234572
1	13380	691361.10838534798	0
1	13397	692503.422051749979	0
1	13405	692825.456029161648	104.13205745253
1	13414	693232.559554861397	0
1	13423	694487.066186397291	0
1	13440	695128.321408810646	247.46099556145
1	13452	695408.765958790669	265.72769044405
1	13482	696855.230946096933	81.203408013376
1	13499	697524.856938979047	117.53245092064
1	13507	697794.606125356437	75.579606049348
1	13524	698735.568138308633	0
1	13568	701492.232551828283	0
1	13585	702325.614752110864	0
1	13593	702981.721268678263	0
1	13603	703964.651384471293	0
1	13611	704284.049536925211	221.27759949057
1	13636	705434.431715193946	20.125218825896
1	13671	707963.869872548584	0
1	13688	708647.371576324348	0
1	13697	709154.256372353099	0
1	13715	711415.182419280387	154.48191209288
1	13741	713119.260242510869	0
1	13759	714735.409592416564	0
1	13769	716462.543892806092	0
1	13780	716739.269340643332	252.34521920976
1	13803	718422.388298756427	0
1	13829	719856.242759174124	112.77274901835
1	13838	720726.702282586908	0
1	13846	721044.596585345787	107.22205980233
1	13863	721655.375600392629	260.73698231734
1	13871	721906.727049228447	126.22512843002
1	13881	723257.496942244791	0
1	13892	723557.686586980888	35.115666931781
1	13957	726839.262114028389	221.4635743932
1	13967	728424.62850476044	0
1	13985	729902.422539463235	0
1	13993	730347.531784095609	0
1	14002	730670.849816200456	72.511012373574
1	14010	731026.906372004466	259.44154711124
1	14018	731311.567861889303	98.705822510048
1	14027	731848.791830863341	0
1	14044	732671.464346836194	0
1	14097	734750.564988483345	153.90416261641
1	14120	736136.239373230463	72.482905815751
1	14129	737133.835325276677	0
1	14149	737938.273276966985	128.97647133259
1	14155	738255.821860624697	402.66198066388
1	14164	739460.339030851796	0
1	14178	739783.005207685357	2.646423838925
1	14195	740422.853337534369	125.2377139854
1	14223	742004.399840388645	0
1	14240	742839.612341459468	0
1	14257	743428.790417843214	23.41946515702
1	14274	744743.547586476341	0
1	14291	745863.636202224823	0
1	14308	746382.082007610082	214.40622600798
1	14325	747339.807716563254	0
1	14342	748147.351181233094	0
1	14350	748425.197955786378	259.07836185317
1	14362	748738.292651011424	251.43363950116
1	14373	749090.3890312487	263.27083677947
1	14382	749346.528166434547	386.60091721637
1	14393	749631.096448497781	253.36606255445
1	14401	749951.644996033474	445.50282693005
1	14410	750246.491987404125	296.99719267268
1	14418	750515.345502204218	76.339578399369
1	14468	752369.029424607718	119.32661850854
1	14488	753031.347955100683	201.79836037713
1	14534	755190.064627967811	63.713350196762
1	14551	755824.774964537111	272.47733001787
1	14569	757098.458311974899	0
1	14589	758605.770109907041	260.3426162307
1	14603	759245.577416417223	167.09068917464
1	14612	759705.739707113456	0
1	14630	761371.353105717239	0
1	14663	762951.88325844262	0
1	14672	763488.8944994945	0
1	14690	765211.162975197211	0
1	14727	769669.258679321059	0
1	14737	770704.472640370375	0
1	14745	771048.761370749684	48.84365991541
1	14754	771680.90605440043	0
1	14763	772711.820640439513	0
1	14774	773017.681041439419	0.841275871986
1	14786	773378.220766538613	279.15017039101
1	14797	773624.210529128624	408.58419814083
1	14802	773905.317161706821	428.2829030947
1	14836	775030.370635125177	215.33089163355
1	14841	775323.965102980665	334.49687588775
1	14897	777593.688690462856	0
1	14905	777895.139338895403	10.742910027306
1	14930	778765.834707713892	126.33822376596
1	14940	780111.449224039342	0
1	14948	780452.526973049912	64.474452567356
1	14983	783043.808346983939	0
1	14997	783340.187044046462	228.77044972523
1	15006	783666.716321615031	147.0831465061
1	15014	783947.632236642011	230.85594292442
1	15034	785235.425850956684	0
1	15042	785613.107544521419	0
1	15076	787486.658432980831	0
1	15093	788130.305428151568	236.85617753822
1	15101	788506.128633456229	345.8910869596
1	15127	789984.205671604053	0
1	15138	790306.504701550725	171.84238278247
1	15147	790631.339633715293	491.98821613028
1	15158	790903.201010178898	572.82794065028
1	15167	791257.740893274059	300.39033035909
1	15219	793756.782514667331	257.53281193783
1	15245	795402.343578877454	0
1	15254	795698.922644727913	185.62149162819
1	15262	796114.436817090722	0
1	15306	799124.305004021335	213.97340295008
1	15314	799654.042570365324	0
1	15324	800860.579980898109	0
1	15333	802089.764182402748	0
1	15345	802383.561834511176	50.350467142038
1	15356	802633.48189232718	146.26586406721
1	15370	803195.234430199957	25.933354647936
1	15407	805644.845347603302	280.86445478728
1	15416	805911.559451899802	332.73169489131
1	15432	806528.909566301171	6.289280239889
1	15452	807784.116511751726	0
1	15460	808068.275294015649	45.616793386271
1	15477	809112.147041613518	0
1	15515	811456.777391256141	165.13023443766
1	15537	812278.907551618307	43.966977213398
1	15546	813268.591144872685	0
1	15573	815553.352457646235	271.47833312427
1	15591	817213.28199511804	0
1	15608	817499.276922201322	163.73459720065
1	15614	817749.444518147909	396.0860011893
1	15619	818082.272666991849	642.35812593805
1	15624	818420.392961468868	935.08598809295
1	15647	819070.079366305437	255.45026633893
1	15655	819384.841141940705	501.67441009716
1	15661	819686.192972531872	653.96437459482
1	15666	820028.374994153649	863.60548373206
1	15675	820342.3616155209	124.96967917681
1	15728	822175.895746390795	165.46661060231
1	15766	823523.218156275288	164.47348120975
1	15783	824503.008540343834	0
1	15820	828026.484573359172	0
1	15828	828574.320753139785	0
1	15837	829155.902291333637	0
1	15845	829477.982349411302	198.2628650206
1	15854	829773.47272286512	213.58780704394
1	15875	831907.231982618009	110.71537414166
1	15908	833045.842440742301	171.12794817281
1	15932	835643.549650014398	0
1	15950	837251.462654053203	0
1	15970	840042.48812089647	0
1	15986	840779.496533528847	0
1	15995	841072.605174955658	121.18717229345
1	16004	842066.640556310457	0
1	16012	842398.930129752364	0
1	16021	842863.471380067387	0
1	16038	843656.217569479157	0
1	16063	844879.605086996193	172.67727071548
1	16086	845683.802969600817	255.93964327477
1	16092	845983.007586581506	350.52901446612
1	16117	846864.082794266967	255.34073110051
1	16142	848313.259162148771	128.35388773491
1	16166	850229.719903272549	0
1	16182	851079.521408097557	0
1	16200	852369.857369635363	0
1	16217	853631.971638551719	0
[...]
7	12828	666790.328319842787	2
7	12832	667051.043862905117	3
7	12838	667375.317649327288	4
7	12842	667516.841738617092	3
7	12859	668734.840310080881	2
7	12863	668872.431934813657	3
7	12878	669797.720576441805	4
7	12880	669805.142347835027	3
7	12893	670234.106568752954	2
7	12897	670544.345041192905	3
7	12911	671149.431664368707	4
7	12919	671653.719343051049	3
7	12923	671846.890780230394	4
7	12940	672470.697585753855	5
7	12944	672555.487783027599	4
7	12951	672791.2861014562	5
7	12955	673050.089545740686	4
7	12959	673074.449632889709	5
7	12979	674574.418590847404	6
7	12981	674836.006996511612	5
7	12986	674876.764877438857	4
7	12990	674994.023040238329	3
7	12993	675035.789054881799	2
7	13006	675555.765772681313	1
7	13027	676217.164008683605	2
7	13032	676579.749454232975	3
7	13045	677143.507535985314	2
7	13049	677226.34097653031	3
7	13063	677861.69676042064	4
7	13071	678910.254745553402	3
7	13075	678963.513019177926	4
7	13080	679217.046915848505	3
7	13097	679788.103724218181	4
7	13104	679917.342485929062	3
7	13109	680168.502208961117	4
7	13122	680786.588316159778	5
7	13130	681127.960252972951	4
7	13134	681417.140182514141	5
7	13154	682005.836253214775	6
7	13158	682034.953778764209	5
7	13164	682289.888240627427	4
7	13168	682318.345095024534	5
7	13175	682520.298880467465	4
7	13180	682635.604485893934	5
7	13188	682925.571203669696	6
7	13193	683224.129961376405	7
7	13199	683495.137148550806	8
7	13203	683750.476691478631	7
7	13216	684190.9911235297	6
7	13223	684401.592329148727	5
7	13232	684690.098392675968	6
7	13236	684744.709844421509	5
7	13248	685272.681082407863	4
7	13256	685437.658889582191	3
7	13259	685623.673377125982	2
7	13263	685636.667119586929	3
7	13273	686117.689263403791	2
7	13290	686809.811842520788	3
7	13304	687417.615175411413	4
7	13314	687815.20025193213	3
7	13329	688330.7744071992	4
7	13333	688462.419948717806	3
7	13338	688606.371080426415	4
7	13351	689765.340049004974	3
7	13359	690267.047140281041	2
7	13368	690849.19993615637	1
7	13382	691576.072017029444	0
7	13386	691653.13993914803	1
7	13403	692825.456029161648	2
7	13409	693104.649047634322	3
7	13417	693484.956157055992	4
7	13425	694514.642713393308	3
7	13430	694813.692843194021	4
7	13445	695206.683152435073	3
7	13450	695408.765958790669	4
7	13455	695660.419593290206	5
7	13463	696322.105794366762	4
7	13468	696326.925669596926	3
7	13486	697145.808938283797	4
7	13488	697235.577811612853	3
7	13505	697794.606125356437	4
7	13509	697961.372467316299	3
7	13514	698043.313196199674	4
7	13527	698908.904381044969	3
7	13531	699030.963642918823	4
7	13538	699582.712051519678	3
7	13547	700306.342610145432	2
7	13556	700923.056545839576	1
7	13570	701701.797385081613	0
7	13574	701787.968498608618	1
7	13588	702597.384036008853	2
7	13597	703285.535008558713	3
7	13609	704284.049536925211	4
7	13613	704287.499781463962	3
7	13617	704592.068964701025	4
7	13625	705129.853216289611	3
7	13640	705734.610042287161	4
7	13642	705982.566941230408	3
7	13651	706871.435867225845	2
7	13660	707587.750165915805	1
7	13674	708332.050731415544	0
7	13678	708339.396049851014	1
7	13691	708922.497325631327	2
7	13700	709417.934648090548	3
7	13704	711148.235438932839	2
7	13717	711456.921514362057	1
7	13722	711732.779889063099	2
7	13730	712577.504295185262	1
7	13744	713356.497122570344	2
7	13748	714319.568005424815	1
7	13762	714995.401390324357	2
7	13774	716689.189024513594	1
7	13778	716739.269340643332	2
7	13784	717008.493911054233	3
7	13792	717691.370365794903	2
7	13807	718771.561558913277	3
7	13809	719203.562204903339	2
7	13818	719568.587918515377	1
7	13832	720173.897573676391	2
7	13844	721044.596585345787	3
7	13850	721317.32782808888	4
7	13852	721336.724906430612	3
7	13869	721906.727049228447	4
7	13875	722267.073555115506	5
7	13883	723387.436622404822	4
7	13890	723557.686586980888	5
7	13895	723767.652831002322	4
7	13899	723850.582345087137	5
7	13903	723973.81041489411	4
7	13920	724871.654514682876	3
7	13925	725036.417572557019	2
7	13937	726150.947937892022	1
7	13946	726496.926100034283	0
7	13961	727086.39728246366	1
7	13970	728744.179687878496	2
7	13973	729594.577616490212	1
7	13988	730236.762611053862	2
7	14000	730670.849816200456	3
7	14008	731026.906372004466	4
7	14016	731311.567861889303	5
7	14022	731603.490090862363	6
7	14029	731855.54592070974	5
7	14033	732092.91791720635	6
7	14046	732923.334384419625	5
7	14050	733024.047285151086	6
7	14058	733481.979494601425	5
7	14066	733871.735760538724	4
7	14072	733971.136489356901	3
7	14075	734025.056707943755	2
7	14083	734428.934720271795	1
7	14101	735047.867661288137	2
7	14109	735872.990986651641	1
7	14124	736516.546879189944	2
7	14133	737465.241145245512	3
7	14135	737690.777310692469	2
7	14153	738255.821860624697	3
7	14158	738571.010315404201	4
7	14166	739617.865409770897	3
7	14169	739618.472832932135	2
7	14176	739783.005207685357	3
7	14182	740093.694231702116	4
7	14189	740394.761724603884	3
7	14198	740713.940668412511	4
7	14208	741185.404922785622	3
7	14225	742320.749738110505	2
7	14229	742321.369092397408	3
7	14242	743087.942386428389	2
7	14246	743119.965880726771	3
7	14259	743467.522962722239	2
7	14263	743739.62823433421	3
7	14278	745020.569379184962	4
7	14280	745176.970638470018	3
7	14294	745992.517090096836	2
7	14298	746131.963098453069	3
7	14310	746473.917505519319	2
7	14314	746619.934819724052	3
7	14327	747355.075567097733	2
7	14332	747611.87274992821	3
7	14348	748425.197955786378	4
7	14356	748631.968700235598	3
7	14360	748738.292651011424	4
7	14371	749090.3890312487	5
7	14375	749127.877011584608	4
7	14380	749346.528166434547	5
7	14391	749631.096448497781	6
7	14399	749951.644996033474	7
7	14404	750203.79642551654	6
7	14408	750246.491987404125	7
7	14416	750515.345502204218	8
7	14421	750801.582320508695	9
7	14425	751005.093863072992	8
7	14434	751311.957980846835	7
7	14447	751859.712576063103	6
7	14451	751984.783678232421	5
7	14459	752150.883195226152	4
7	14471	752701.436229745006	5
7	14476	752722.084342661984	4
7	14482	752938.187312578107	3
7	14490	753063.905445566016	2
7	14494	753317.192076373604	3
7	14498	753512.901275802735	2
7	14537	755319.245646504393	1
7	14541	755468.735470314814	2
7	14553	755939.425047768358	1
7	14558	756139.921239247971	2
7	14572	757423.373814050715	3
7	14575	758302.025888113815	2
7	14583	758451.154472970875	1
7	14593	758936.774459087807	2
7	14606	759540.848120367154	3
7	14614	759766.717052662852	2
7	14618	760020.376988896012	3
7	14632	761611.931157615527	2
7	14636	761692.490013768927	3
7	14644	762281.018717488331	2
7	14649	762326.610818863662	1
7	14667	763265.734075760711	2
7	14675	763789.096480220153	3
7	14678	764260.570430802974	2
7	14693	765536.66447267796	3
7	14696	766190.784385957211	2
7	14705	766490.508799482713	1
7	14715	768693.075394572904	0
7	14731	769968.068392204314	1
7	14743	771048.761370749684	2
7	14748	771320.246421737588	3
7	14757	772003.870664968361	4
7	14765	772969.251027178009	3
7	14772	773017.681041439419	4
7	14784	773378.220766538613	5
7	14791	773494.707267208693	4
7	14795	773624.210529128624	5
7	14800	773905.317161706821	6
7	14806	774155.357345731643	7
7	14810	774339.696532348174	6
7	14818	774550.314507007302	5
7	14839	775323.965102980665	6
7	14844	775614.703280269039	7
7	14852	775908.816760908947	6
7	14860	776244.577908864918	5
7	14865	776326.519761053715	4
7	14868	776363.766017576887	3
7	14882	777081.745636333019	2
7	14903	777895.139338895403	3
7	14907	778116.035270266939	2
7	14910	778127.854876932511	1
7	14914	778166.144859147566	2
7	14933	779081.199597928831	3
7	14946	780452.526973049912	4
7	14950	780601.570795476551	3
7	14953	780634.648469715269	2
7	14957	780778.850801390559	3
7	14971	782080.739506806447	2
7	14985	783067.224360234082	1
7	14991	783224.023879154693	0
7	14995	783340.187044046462	1
7	15004	783666.716321615031	2
7	15012	783947.632236642011	3
7	15017	784189.758188809115	4
7	15037	785510.138799789072	5
7	15045	785879.573541067025	6
7	15047	785998.643685380083	5
7	15056	786575.822585067486	4
7	15061	786696.139634226551	3
7	15078	787496.334940881174	2
7	15082	787759.496588810658	3
7	15099	788506.128633456229	4
7	15103	788539.219341885254	3
7	15107	788748.648959602825	2
7	15111	788822.442579669664	3
7	15136	790306.504701550725	4
7	15145	790631.339633715293	5
7	15149	790760.328352039761	4
7	15152	790795.910676334323	3
7	15156	790903.201010178898	4
7	15165	791257.740893274059	5
7	15170	791523.980258303814	6
7	15179	791886.756774327363	5
7	15191	792821.989349820497	4
7	15197	793102.310860127354	3
7	15205	793346.906435996708	2
7	15222	793880.34369027156	1
7	15226	794058.383808499458	2
7	15230	794188.300378393839	1
7	15252	795698.922644727913	2
7	15257	795979.76369115887	3
7	15266	796389.904204569779	4
7	15268	797064.868460293604	3
7	15278	798221.605556269046	2
7	15283	798298.393344342358	1
7	15291	798762.932906942325	0
7	15309	799418.737995927869	1
7	15318	799961.826168987177	2
7	15327	801137.177653822094	3
7	15335	802097.192384530944	2
7	15343	802383.561834511176	3
7	15350	802525.738638715556	2
7	15354	802633.48189232718	3
7	15359	802900.412217215127	4
7	15373	803487.283743591859	5
7	15377	803497.955208809544	4
7	15390	805361.553598982795	3
7	15398	805500.885184849955	2
7	15410	805779.376489921629	1
7	15414	805911.559451899802	2
7	15419	806283.613410544075	3
7	15423	806453.069234857057	2
7	15436	806828.988268257418	3
7	15458	808068.275294015649	4
7	15464	808417.209678854252	5
7	15466	808536.52561115764	4
7	15480	809188.10081513821	3
7	15484	809453.514951441001	4
7	15491	810019.056655757159	3
7	15501	811178.960303925599	2
7	15506	811189.803222304467	1
7	15519	811759.117560833967	2
7	15523	811807.720950015508	1
7	15540	812499.943385209386	2
7	15550	813597.247831145024	3
7	15553	814853.754027163958	2
7	15562	815281.514328244211	1
7	15576	815838.264193100232	2
7	15579	816097.522625593367	1
7	15606	817499.276922201322	2
7	15612	817749.444518147909	3
7	15617	818082.272666991849	4
7	15622	818420.392961468868	5
7	15626	818485.035681518544	4
7	15631	818752.580517750935	5
7	15653	819384.841141940705	6
7	15659	819686.192972531872	7
7	15664	820028.374994153649	8
7	15673	820342.3616155209	9
7	15677	820364.534324422498	8
7	15681	820642.423558511912	9
7	15685	820877.012616935125	8
7	15693	820970.745123076559	7
7	15696	821007.288756991719	6
7	15710	821577.499519819797	5
7	15718	821993.204291839454	4
7	15731	822491.418793458137	5
7	15735	822634.30506422243	4
7	15744	822934.379978941404	3
7	15752	823059.085692625076	2
7	15768	823667.794909463415	1
7	15773	823817.619140327023	2
7	15787	824848.128077916969	3
7	15789	824894.561253190528	2
7	15799	826475.365049460697	1
7	15808	827366.428077440451	0
7	15823	828309.821862530865	1
7	15832	828854.742862802936	2
7	15843	829477.982349411302	3
7	15852	829773.47272286512	4
7	15857	830016.376899369187	5
7	15861	831629.818922987987	4
7	15866	831699.206181881243	3
7	15878	832249.203760868827	4
7	15883	832280.765728538468	3
7	15886	832335.780335587995	2
7	15894	832628.880603359956	1
7	15912	833342.481804771828	2
7	15921	834859.359464412527	1
7	15936	835954.440050674306	2
7	15938	836292.685975825816	1
7	15954	837585.250899862419	2
7	15957	838435.493549859625	1
7	15972	840057.88935443584	0
7	15976	840381.16470995901	1
7	15993	841072.605174955658	2
7	15998	841356.32461695313	3
7	16007	842339.712438510206	4
7	16016	842702.463733476588	5
7	16024	843145.525771445822	6
7	16026	843241.109823203989	5
7	16041	843967.018164671406	6
7	16043	844206.98084255543	5
7	16052	844531.908501775373	4
7	16067	845191.739803516806	5
7	16069	845355.588026806662	4
7	16074	845394.406535453128	3
7	16090	845983.007586581506	4
7	16094	845989.5020642281	3
7	16098	846285.796825822199	4
7	16110	846790.316091423655	3
7	16120	847185.082066651647	4
7	16128	848034.219234533567	3
7	16136	848239.736754317207	2
7	16146	848608.137404116238	3
7	16153	849016.853203541283	2
7	16168	850259.70659786796	1
7	16172	850525.570433611292	2
7	16185	851121.338061318824	1
7	16189	851352.125432457325	2
7	16203	852659.446353654704	3
7	16206	853289.194410704805	2
7	16224	853872.982410196148	3
7	16229	854236.689851115875	4
7	16231	854241.529971180126	3
7	16246	854812.330024917784	4
7	16254	855149.369325259039	5
7	16262	855462.323651057041	4
7	16266	855475.324595934534	5
7	16280	856258.68361965153	6
7	16287	856804.571821980593	5
7	16291	856806.520196092878	6
7	16296	857131.569905909519	5
7	16315	857425.161329166215	4
7	16322	857672.698220238399	5
7	16330	857960.9227005915	4
7	16334	857992.525700587802	5
7	16339	858321.349617284045	6
7	16343	858457.917215708408	5
7	16346	858467.703435847612	4
7	16350	858687.365658933639	5
7	16367	859394.405763110478	6
7	16371	859631.61186088354	5
7	16379	859678.538367426025	6
7	16384	859950.975228121906	7
7	16396	860486.571124308827	6
7	16401	860609.850901921258	7
7	16405	860651.873260985355	6
7	16416	860946.998709860201	5
7	16419	861024.683982177454	4
7	16423	861253.201396403873	5
7	16444	861968.651800026942	4
7	16448	862098.74516531572	5
7	16454	862446.579870693083	6
7	16458	862759.785626986243	5
7	16466	863010.135365283238	4
7	16480	863398.188105845951	3
7	16496	863936.897158389399	4
7	16500	864013.500368793422	3
7	16507	864215.704937392498	4
7	16515	864503.644651093322	5
7	16520	864753.227178126993	6
7	16525	865014.67391026863	5
7	16533	865124.117868236644	4
7	16563	866589.018145188967	3
7	16577	866936.557648957848	2
7	16581	867111.668544693418	3
7	16585	867117.921806243552	2
7	16588	867127.561985022437	1
7	16599	867399.640339799022	2
7	16604	867660.625563611831	3
7	16612	867961.976679977324	4
7	16621	868324.576919726096	5
7	16626	868580.163782812416	6
7	16644	869530.122027760238	5
7	16648	869548.840983551007	6
7	16662	870193.583028370566	7
7	16666	870341.659603457922	6
7	16674	870511.400029696418	5
7	16677	870575.191844878485	4
7	16689	870812.043197323511	3
7	16692	870969.774320377565	2
7	16696	871137.591276993842	3
7	16711	871926.030916905587	2
7	16729	872561.94377336488	3
7	16736	872828.861494219091	2
7	16748	873219.781257118485	3
7	16754	873510.250593355514	4
7	16771	874161.689434620946	3
7	16776	874444.527195037986	4
7	16789	875130.355805200146	3
7	16799	875374.496367621639	4
7	16804	875707.009521238761	5
7	16813	875962.092627307329	6
7	16817	876186.94958387523	5
7	16821	876211.917501489949	6
7	16828	876478.684422182116	5
7	16838	876789.704906481926	6
7	16847	877284.432806455503	5
7	16866	877690.346306761876	6
7	16870	877964.912580193672	5
7	16874	877989.84671448121	6
7	16878	878255.180583379529	5
7	16882	878274.445090946107	6
7	16897	878839.473594877735	5
7	16900	878921.750223350653	4
7	16917	879477.835945354146	3
7	16929	880015.690359345393	4
7	16937	880242.574502398024	3
7	16941	880309.991852027755	4
7	16946	880588.731341715257	5
7	16950	880642.381035712871	4
7	16965	881150.525854956679	3
7	16974	881470.857939951683	4
7	16979	881746.330095314538	5
7	16992	882261.750791888195	4
7	16996	882342.396828468249	5
7	17010	882983.335558871399	6
7	17014	883032.790526819068	5
7	17020	883299.769731483875	4
7	17033	883616.663809989926	5
7	17044	883943.707677482565	6
7	17049	884207.774773295055	7
7	17053	884224.661240167372	6
7	17058	884507.750199639258	7
7	17070	884982.018476700478	6
7	17078	885260.610868151904	5
7	17083	885376.088878668384	6
7	17092	885831.230088560329	5
7	17109	886288.321271225085	4
7	17112	886334.693309896956	3
7	17120	886545.336447022441	2
7	17124	886744.903575111117	3
7	17128	886829.82206185719	2
7	17146	887538.272313996431	3
7	17162	888038.271298572725	2
7	17169	888126.602353975521	3
7	17174	888404.125958202843	4
7	17179	888666.623409740766	5
7	17192	889344.391122813225	4
7	17202	890547.725622351	3
7	17210	891024.338321772263	2
7	17215	891192.307508066675	1
7	17221	891234.516163255015	0
7	17231	891510.073961345875	1
7	17250	892829.312593831074	2
7	17262	893159.490541029458	3
7	17267	893490.112009496152	4
7	17270	894141.216642806657	3
7	17284	895122.211194155248	2
7	17287	895269.81786360025	1
7	17291	895320.085256009505	2
7	17309	896222.213982818954	1
7	17314	896522.114383842516	2
7	17322	897529.476594115281	1
7	17340	898784.41699631776	2
7	17346	899104.306308079241	3
7	17348	899195.157915085589	2
7	17364	900889.793052218366	3
7	17366	901114.67173560724	2
7	17374	901512.107201303452	1
7	17393	902465.772028339049	2
7	17401	902764.609568297943	3
7	17406	903100.12785380008	4
7	17415	903819.441206120762	5
7	17417	903869.562372607573	4
7	17435	904403.413174669169	5
7	17440	904702.244031230066	6
7	17442	904813.811946776456	5
7	17456	905521.534818251992	4
7	17466	905674.338348983682	5
7	17473	905786.640656594937	4
7	17478	905989.809191730622	5
7	17486	906289.006413411412	6
7	17494	906587.900746824537	7
7	17499	906727.904970128432	6
7	17503	906826.249276919982	7
7	17508	907141.950196568934	8
7	17518	907587.916768668066	7
7	17521	907716.295836908928	6
7	17538	908377.357835504797	7
7	17543	908544.647833573347	6
7	17551	908786.475902237304	5
7	17554	908919.715027276821	4
7	17571	909352.583929284215	3
7	17578	909646.89854224267	4
7	17582	909714.641780166078	3
7	17585	909762.925470965369	2
7	17589	909998.281832080034	3
7	17610	911052.496096961021	2
7	17632	912202.54231763929	1
7	17636	912316.50312691238	2
7	17650	912968.877511497507	3
7	17657	913059.8722155084	2
7	17661	913277.114976613253	3
7	17678	913838.433421553487	4
7	17683	914127.693441600087	5
7	17692	914725.277690835722	6
7	17694	915001.225784349457	5
7	17709	915638.511741509964	6
7	17716	916053.153837319813	5
7	17721	916277.989690981198	6
7	17725	916399.684400777125	5
7	17733	916576.726033328209	4
7	17736	916824.957726014615	3
7	17753	917389.585582410786	2
7	17763	917899.821477521256	3
7	17776	918459.350380838424	4
7	17778	918477.806401457285	3
7	17787	919292.833141879684	2
7	17797	920791.944171965586	1
7	17810	921155.763921384025	0
7	17815	921345.988150308174	1
7	17832	922336.609777012104	2
7	17837	922704.292218881929	3
7	17847	923792.066758451744	4
7	17849	924199.055092112891	3
7	17864	924759.823949775524	4
7	17875	925099.229329710024	5
7	17879	925112.916274805918	4
7	17882	925297.787473573986	3
7	17886	925406.798143447369	4
7	17907	926226.760948654358	3
7	17911	926233.487767477462	4
7	17917	926490.501330675843	5
7	17925	927318.727341403456	4
7	17933	927571.77447822915	3
7	17942	927885.400247861028	4
7	17955	928298.87994979615	3
7	17959	928527.703456183526	4
7	17966	928736.275113573291	3
7	17982	929128.64280478342	4
7	17986	929209.657116418808	3
7	17993	929465.005854485066	4
7	17998	929721.210720895428	5
7	18007	930078.921277962181	6
7	18012	930398.802935243035	7
7	18025	930722.257535297538	6
7	18029	930911.716972691322	7
7	18041	931381.666363679581	6
7	18046	931499.0524260997	7
7	18050	931509.351823106863	6
7	18065	932094.420244950093	7
7	18069	932189.838012885705	6
7	18073	932378.148645223042	5
7	18077	932405.216590074528	6
7	18081	932669.037565283712	5
7	18097	933012.559487425503	4
7	18102	933267.162347576447	5
7	18106	933553.428165225101	4
7	18119	934015.948367020281	3
7	18128	934550.144340040181	2
7	18150	935495.087715068761	1
7	18155	935668.349442642025	0
7	18174	937188.377734407072	1
7	18186	937889.484083296634	2
7	18191	938230.993744966344	3
7	18201	939225.709587104541	4
7	18212	939687.469401122602	5
7	18220	939997.946142038064	6
7	18224	940036.4679964654	5
7	18232	940277.394251100037	6
7	18237	940564.430408126517	7
7	18244	940821.472679973559	6
7	18260	941134.374387445784	7
7	18265	941444.070695900815	8
7	18269	941504.397781088148	7
7	18274	941757.048605574446	8
7	18284	941872.042242041663	7
7	18293	942416.014890027903	8
7	18297	942549.124130930217	7
7	18305	942671.588534186526	8
7	18309	942728.747294174086	7
7	18315	942855.046147082703	6
7	18319	942964.590262487575	7
7	18323	943074.442016886528	6
7	18327	943219.504084856918	7
7	18331	943370.542027179951	6
7	18349	944133.0318586011	7
7	18354	944331.600565753123	6
7	18370	944742.797478683767	5
7	18373	944817.383271389471	4
7	18376	944921.387797187797	3
7	18380	945012.529185686801	4
7	18390	945446.175898510888	3
7	18404	945848.305385512476	2
7	18408	945942.532455469634	3
7	18414	946226.516879343544	4
7	18428	946881.391890778369	3
7	18453	948068.952163038985	2
7	18471	948863.530873567231	3
7	18475	948928.983173996299	2
7	18478	948985.524159828278	1
