version 2
run QueueMeasurement-44-20170109-13:52:54-3398
attr configname QueueMeasurement
attr datetime 20170109-13:52:54
attr experiment QueueMeasurement
attr inifile queueStudy.ini
attr iterationvars ""
attr iterationvars2 $repetition=44
attr measurement ""
attr network controltower.SimNetwork
attr processid 3398
attr repetition 44
attr replication #44
attr resultdir results
attr runnumber 44
attr seedset 44
param SimNetwork.a.parkingLot.parkingDelay "truncnormal(45min, 5 min)"
param SimNetwork.a.runway.landingTime "truncnormal(5min, 0.5min)"
param SimNetwork.a.runway.takeoffTime "truncnormal(5min, 0.5min)"
param SimNetwork.a.runway.throughputCheckInterval 14.256min
param SimNetwork.wg.interArrivalTime exponential(14.256min)

vector 5  SimNetwork.a.runway  landedThroughput:vector  ETV
attr source  landedThroughputSignal
vector 6  SimNetwork.a.runway  tookoffThroughput:vector  ETV
attr source  tookoffThroughputSignal
vector 7  SimNetwork.a.parkingLot  parkingOccupancy:vector  ETV
attr source  parkingOccupancy
vector 4  SimNetwork.a.takeoffQueue  queueLength:vector  ETV
attr source  queueLengthSignal
vector 2  SimNetwork.a.landingQueue  queueLength:vector  ETV
attr source  queueLengthSignal
vector 1  SimNetwork.a.landingQueue  queueTime:vector  ETV
attr source  queueTimeSignal
vector 3  SimNetwork.a.takeoffQueue  queueTime:vector  ETV
attr source  queueTimeSignal
vector 0  SimNetwork.wg  responseTime:vector  ETV
attr source  responseTimeSignal
0	1005	51540.786108369969	6672.2262405218
0	1010	51842.136610579779	5925.5776670308
0	1015	52118.836928901214	5165.9615332677
0	1021	52434.780109532297	5242.8248771664
0	1026	52732.743403684415	5490.4630610719
0	1034	53026.493852676719	5759.4422961299
0	1040	53311.360436363411	5487.9231586491
0	1051	53593.621440129218	5474.8249943138
0	1071	54139.350847389166	4298.8013456843
0	1098	55329.026321966104	5369.4222156296
0	1107	55655.803315368944	4987.3727228883
0	1124	57163.22705673051	6342.2622182494
0	1133	57457.106929614416	3371.7684883589
0	1138	57699.577665074808	4248.396562659
0	1146	58049.005577902147	3833.9292234966
0	1155	58874.754636728924	4504.7564250064
0	1191	62277.465126635052	6833.246001578
0	1220	63668.131379049342	4518.6893385123
0	1225	64034.291944655712	4128.4073213927
0	1255	65877.234265026585	3561.8140153488
0	1263	66194.287831262094	5536.2262070393
0	1298	68471.033586837294	3436.6216471672
0	1303	68749.907911263573	6246.0151379592
0	1326	70112.841885623227	4950.5599271531
0	1332	70455.404054950624	4291.5054281235
0	1337	70743.184734352427	4054.5110250982
0	1375	73264.758649181106	6518.7837513551
0	1465	76445.065263094568	7017.200818057
0	1473	76760.334565163557	5779.578238115
0	1488	77056.211971189408	5931.8490855826
0	1498	77569.402963372411	4932.9623578727
0	1503	77831.041184953105	4859.4394367032
0	1515	78168.196762407457	4339.35206433
0	1523	78520.630643414551	4868.5616081517
0	1529	78810.624658286571	4535.0265312095
0	1540	79053.178879927205	4956.8643207862
0	1557	79626.469387468863	4923.852631282
0	1570	80247.164030970408	5475.449309262
0	1576	80561.491396345659	5758.8375315735
0	1581	80866.406131981188	5299.5691869296
0	1654	83752.614332814638	6903.4815497674
0	1665	84291.415226694915	5310.0901593244
0	1677	84783.713694249321	5315.418645054
0	1682	85073.404364995852	3671.6135095235
0	1693	85405.152369655412	3649.9171122509
0	1708	85649.138975623682	4267.8823452461
0	1736	86612.084514462014	4790.0279135751
0	1755	87522.633812214571	5694.1231300947
0	1760	87808.428467106642	5382.7370543511
0	1769	88124.540074595776	5362.5685885772
0	1782	88811.080078112181	5122.3456690489
0	1791	89325.728784631551	3719.5022330619
0	1799	89685.850080614686	4067.706086753
0	1816	90428.907396033334	3870.6199898745
0	1842	91547.812853806671	4852.9060337557
0	1863	93521.840370416132	5457.4679312835
0	1868	93829.996018125706	3935.6701586507
0	1877	94206.469177806159	3574.2193585808
0	1927	96365.588427472767	5530.6564219349
0	1948	98119.290995266553	3420.2253957629
0	1957	98424.791942877097	5835.9511066121
0	1962	98731.048026084674	3824.3307379321
0	1973	99211.415588271304	4051.1751227771
0	1979	99518.181308296156	4523.126098544
0	2016	101487.722665239812	5953.7172777427
0	2055	103427.918864292411	6382.5744710999
0	2064	103879.809244609813	3672.2957659302
0	2078	104211.297056889739	4007.2514231404
0	2109	105055.135280358812	4598.044705827
0	2123	105608.75972469424	4314.8730514537
0	2150	106891.681063248266	4749.5408910557
0	2156	107178.887181204929	5560.6938034733
0	2167	107508.090714719122	5241.6535300807
0	2175	107752.982163458515	3574.2507236085
0	2181	108079.361333223998	4001.0930458577
0	2201	108911.618339579412	3971.0962568984
0	2209	109231.281288832427	3915.6551363027
0	2215	109560.81330234802	3811.692299585
0	2244	111576.074852382919	5455.3525024718
0	2291	113462.002126312006	5130.5296026781
0	2334	115108.683858229286	5540.43422399
0	2339	115358.250785077624	4358.7811327152
0	2348	115647.273301362394	3758.6059438393
0	2356	115964.833281112243	4582.0006224007
0	2367	116274.537718494049	4362.906538598
0	2474	119830.465509289931	7631.4746647813
0	2488	120188.662061471192	7370.4216418999
0	2502	120826.311515660498	6906.6476669199
0	2513	121115.505128240614	6933.9563696893
0	2518	121399.651012339279	5180.6209499144
0	2527	121731.00743763737	5588.4079006917
0	2538	122019.33697662288	7539.8485983763
0	2547	122339.950584148712	5878.898259735
0	2560	123035.777810491282	6564.6710949224
0	2572	123332.966436780074	6785.2168292506
0	2582	123941.080614843033	6556.5365417735
0	2591	124260.084996381772	6974.8801771742
0	2604	124846.174663270312	6939.5462603212
0	2618	125494.156503897524	7582.4576352335
0	2624	125787.157642246994	6859.7725391394
0	2632	126090.63770421757	7352.6331881109
0	2654	126884.556886855675	6853.5336207207
0	2662	127229.627344867065	5095.1640316009
0	2696	128382.507784958306	5099.6736901672
0	2701	128719.753387634733	4460.2094048001
0	2710	129503.216013424561	4740.637457507
0	2719	130095.343193022907	4207.0927054103
0	2730	130486.794657080219	4280.3389034466
0	2741	130747.305112638047	3802.3156121539
0	2752	131388.008130719737	4093.0640603336
0	2771	134045.078607515213	6312.0566006147
0	2797	135149.892583242033	4602.7124734838
0	2846	137782.481757566308	3623.8254299087
0	2862	138424.815311209014	6598.5515998916
0	2868	138711.904819187206	3546.8151304928
0	2876	139000.781460975118	4422.8645370311
0	2904	139957.528732496162	3513.8270665474
0	2926	140871.650802632982	5597.7177061158
0	2932	141142.502608366447	4439.2447514878
0	2944	142314.78673840446	4692.2737415333
0	2969	143427.379406108787	4456.1296549892
0	2981	143718.301335593709	4555.2165034832
0	3003	144746.636925016361	5028.5655578722
0	3017	145619.511127396117	5337.9758859633
0	3025	145928.221929566016	3636.9632148457
0	3034	146676.546008176096	3862.4144302268
0	3042	147082.345327888525	3503.0040435929
0	3051	147531.57666955918	3825.5864319984
0	3073	152941.867734956544	8392.2422008772
0	3122	158165.128265977821	8552.8705082218
0	3144	160342.511728780852	5749.1026668604
0	3161	160978.264914048994	4412.7207510197
0	3186	161873.804695200233	4639.4083513489
0	3196	162425.043026313545	5016.7923401701
0	3233	164133.23746392241	6024.4526227861
0	3245	164450.299138438259	3677.0023783317
0	3250	164702.46730968624	4366.4653250821
0	3258	165037.697390369992	3795.9637001401
0	3292	166482.871533422979	4840.2318863246
0	3301	166812.073706981367	3870.3378091676
0	3309	167129.538842339763	4272.8110340941
0	3331	168267.857977879598	4792.0309508958
0	3343	168883.400361666487	3947.3710019362
0	3348	169164.363848205115	3582.6969559588
0	3374	170235.141417119452	4299.1007828671
0	3399	171254.872162146358	4133.3337605027
0	3464	173795.391434773833	4598.0445867714
0	3472	174116.296577214293	6645.1728537982
0	3480	174470.803115298367	4932.6125224318
0	3489	174824.063504869256	4391.5169227194
0	3502	175339.988624958908	4997.2798725226
0	3508	175641.767580154588	4039.4694029826
0	3525	175972.669765346202	4003.2103896499
0	3539	176650.522361296903	4675.7119568846
0	3544	176947.307773683968	4506.6353643378
0	3553	177217.936992251029	4713.0264084299
0	3583	178536.773931458453	5932.1022653272
0	3617	180411.667213481304	5692.8396139279
0	3632	180807.699225872056	5099.5496739672
0	3646	181393.929971622017	4197.3670382989
0	3654	181697.795877006042	4449.3558016338
0	3659	181987.041467399502	4568.8423810334
0	3680	183113.352758357431	3597.9300505054
0	3691	183450.205853169271	4520.1466770309
0	3702	183995.82468622322	4476.1789757628
0	3722	185552.293332208404	4909.53349076
0	3789	187981.367556694032	5754.5383336378
0	3795	188294.422182003198	4921.8563511914
0	3857	190146.567904617683	5543.6130970352
0	3862	190438.199118667703	4845.5155680518
0	3883	190788.789499317793	5000.6488779898
0	3952	193309.490976826142	7897.8154944398
0	3958	193560.42935480397	7767.5233913431
0	3969	193896.56111782624	7848.8857993624
0	3986	194530.157317990414	8150.6059324893
0	4017	195363.951234025994	8585.3437905325
0	4031	195696.809767165884	7389.9945857358
0	4050	196624.776714755515	8282.4183040335
0	4067	197262.783656021959	8622.2151612533
0	4075	197539.89751008517	8635.2673910956
0	4086	198121.26371857019	8685.7314124804
0	4097	198424.582395272878	7958.6145239228
0	4106	198715.197655344745	7949.4275408124
0	4123	199334.959477595936	8773.71765537
0	4139	199939.525621119154	8368.1930688383
0	4153	200611.154498537773	9605.6480985726
0	4178	201480.393046280206	9827.3106994292
0	4192	202043.234416403174	9798.235564562
0	4200	202380.83570044337	8649.9595478698
0	4217	202991.436265929881	8595.7755172476
0	4225	203301.810552058504	8725.0138905361
0	4242	203845.38579455754	8409.6223513775
0	4247	204117.384383408278	8560.7954083046
0	4256	204449.813554315616	7934.3548028206
0	4261	204731.449625694615	7258.1039321735
0	4266	205050.336296042942	6608.0685233051
0	4272	205335.75225288809	6096.4729732607
0	4277	205599.054963501812	5760.0498331021
0	4285	205898.112342650961	5376.6930552966
0	4291	206206.58123507398	5570.926168064
0	4299	206480.903814274711	5212.7714755837
0	4304	206711.136223535412	4566.8902604689
0	4344	210973.255708489088	3468.718757365
0	4355	211224.082687747523	8215.3848777549
0	4392	213577.600308649848	5907.0064565011
0	4401	214420.588489875672	4053.1862843646
0	4410	214810.199498220795	3704.4777995461
0	4418	215541.398850213504	4317.3529987597
0	4427	216174.87890056501	3594.7133474481
0	4496	220062.296452702543	7126.3635415089
0	4504	220503.876586824739	4204.5749456473
0	4521	221251.567735928921	3118.7109718953
0	4544	222026.263940502379	5138.3288632646
0	4569	222952.18213923887	4491.1090653157
0	4574	223206.083461212083	4598.8105401847
0	4580	223508.526698682199	4710.7354949764
0	4588	224057.70839993269	4997.2111911042
0	4600	224574.684709692529	3921.4342122851
0	4625	225774.363328660465	4304.3038278457
0	4631	226062.046574532332	4084.2458730636
0	4671	227896.707231008251	5655.0761429467
0	4685	228452.335337374977	3919.7711122824
0	4702	229514.137840675399	4412.5026615475
0	4719	230287.143944216863	3651.0890943104
0	4724	230611.729589696852	4149.4846711644
0	4736	230986.647058040096	4149.6599809833
0	4758	231866.298756145958	4102.4571730848
0	4767	233212.457641664837	4876.4232957627
0	4804	234534.445974907216	5216.589587454
0	4809	234818.510359297249	3978.0020103543
0	4841	236525.934418374742	5403.3312032834
0	4855	237104.958590986332	3767.735118826
0	4868	237718.599026965976	4166.8012493562
0	4877	238116.823259859807	4435.4667512446
0	4885	238585.020348863649	3682.4324961575
0	4894	239012.409959457867	3384.5879159658
0	4910	240680.990671395248	4344.8606221727
0	4959	243993.509567089213	7047.540558663
0	4964	244278.214531692311	3753.9025519854
0	4976	244701.172120103783	4119.0184792578
0	4981	244971.425249728894	3903.8839828439
0	4989	245428.020923014629	4433.25226608
0	5056	251639.708004297886	9716.3930978593
0	5061	251950.103960780166	4201.0110442623
0	5079	253200.447142882145	4130.0332324059
0	5093	253681.483781153423	3704.6999513053
0	5107	254286.056501995293	4070.0781742143
0	5112	254603.005652737069	4529.5520166834
0	5141	255867.783095864128	5492.5499629148
0	5155	256787.692169420829	4431.5901238883
0	5172	257988.054535945295	4309.8780657621
0	5184	258420.209823583753	3754.4875745737
0	5200	259035.814745281163	4311.93506357
0	5231	260759.951520628753	4941.4849222345
0	5257	261833.599396121437	4934.64210073
0	5268	262196.455040012538	4069.0968394902
0	5282	262833.043218510711	3867.7875223011
0	5291	263473.281781953891	4358.6777555298
0	5328	265448.185429023797	5327.210752269
0	5336	265764.074287444105	4769.9853143991
0	5345	266037.769892561441	5036.5244115001
0	5375	267353.123901097262	5169.6963039812
0	5390	268160.02310764074	4164.869595526
0	5401	268765.708273744042	4246.7868568583
0	5511	272300.556243120455	7622.985080732
0	5516	272564.932678685467	6229.9751078823
0	5524	272831.857340660197	7062.8277239266
0	5553	273774.870896910684	7416.981937983
0	5564	274087.100215380121	6253.4593342932
0	5575	274375.789654530139	5359.9715074375
0	5589	274921.55396841084	5728.3018191655
0	5597	275254.185087062098	5663.9470389778
0	5608	275847.242427701616	6225.5822995876
0	5616	276118.248721366545	6178.9026435455
0	5625	276430.358741922265	6280.5054676653
0	5630	276747.763269315755	6719.6404377863
0	5638	277000.587440769567	6228.2067278234
0	5652	277619.593965544874	6764.1607800057
0	5657	277918.956897289304	6595.075726127
0	5666	278194.410578276985	5572.5418414779
0	5671	278518.975141779434	5563.0919682216
0	5676	278823.754123930877	4599.5704548937
0	5719	281214.05171330342	6002.2421377249
0	5764	283022.753923715651	6251.9885985293
0	5773	283355.653358559271	4529.2503827314
0	5778	283596.766694143588	3674.4653198372
0	5786	283937.278307207126	4005.4145753751
0	5806	284730.499618240071	4316.7202843735
0	5815	285016.202633258503	3536.2332431714
0	5826	285305.922134152999	3735.3144316134
0	5840	285949.044886285566	4398.1629275115
0	5857	287279.591025441747	5301.1554325983
0	5888	288892.41883557779	4772.060838483
0	5897	289240.958190219164	4052.2074555696
0	5921	291251.453879986635	4158.6538153901
0	5946	292178.583837700957	6457.6964159624
0	5977	293425.732189464861	5430.5042400364
0	5982	293792.272645780272	5701.0630229728
0	5991	294469.31009416946	4696.4385118579
0	6002	294853.702651866405	3916.9260567663
0	6016	295554.677378664938	4281.1874463222
0	6034	295973.623497095989	4021.7577158507
0	6078	297756.646950955614	5275.6580216045
0	6100	298838.513154120837	6091.7362386438
0	6108	299255.065411924927	4536.0094186592
0	6120	299907.505908545911	4098.9552414002
0	6132	300270.325825652207	4339.2174112007
0	6140	300550.597009794001	4513.503769128
0	6168	301493.753715697811	5026.2973626298
0	6187	302353.754731096074	5455.3526095218
0	6192	302600.549530641778	4885.3247508091
0	6213	304044.71087505682	5829.8813129937
0	6227	304372.825065208992	4020.4955555234
0	6258	305550.325115496837	4758.671963813
0	6271	306167.216882321165	4868.4239811978
0	6277	306490.649090185825	4806.3410042227
0	6309	308072.441801566081	3979.941513973
0	6317	308363.294063728481	5629.5408892874
0	6325	308668.180436189741	4367.48816808
0	6336	309286.457292439253	4664.6764141708
0	6356	310152.771331811997	4635.2379365723
0	6381	311060.482637391606	4202.5367058647
0	6412	312242.142237793857	4770.4902641441
0	6451	313903.884312758926	5329.0109219611
0	6466	314182.322787887375	4654.1722625008
0	6496	315346.482652111384	5249.7859013311
0	6505	315643.858940621469	5398.6017772619
0	6513	315971.501579046045	4929.1544693335
0	6524	316223.471620478916	4967.5015515849
0	6552	317209.84924610053	5542.19464604
0	6574	318103.414932460626	5536.7322266226
0	6583	318383.544642730484	5707.5254183107
0	6593	319007.785663426672	6283.7344567272
0	6602	319334.032886683039	5192.0990772284
0	6630	320206.79882034924	5787.3792748691
0	6644	320488.858949745035	4505.0073713754
0	6663	321397.50338666137	6911.0616272895
0	6669	321742.523667087552	5269.0483257539
0	6677	322054.013299771398	5084.5325975137
0	6705	322874.048289542491	5816.7808603091
0	6716	323462.399120186253	4436.9532499294
0	6730	323740.440892116037	5589.8235552039
0	6749	324626.336376200337	4287.4497272641
0	6757	324912.080681597082	5343.0543536515
0	6763	325219.160043620571	4784.8321542063
0	6811	326910.634839637191	4723.8298088187
0	6822	327210.568250752778	5361.4140761815
0	6836	327849.420660517	4270.8653681889
0	6853	328479.667562644911	5828.6937742761
0	6909	330314.592034419943	6396.5072366983
0	6914	330611.362490256406	5157.1628959329
0	6928	330868.607517231597	5155.0669984689
0	6962	332142.437387124545	6726.7437071427
0	6970	332415.793476434621	6291.9494293661
0	6981	332722.006471119689	4892.4631613897
0	6995	333282.195899590528	6252.757338095
0	7017	334170.279376712732	5891.9906519518
0	7028	334436.836676687747	5934.3002955891
0	7042	335078.397463585681	6016.6661658415
0	7048	335394.039765025291	6730.4343292057
0	7056	335686.205366581883	4967.0831401973
0	7061	335967.149662252118	6620.3662631466
0	7067	336248.690984538638	5494.872551233
0	7078	336493.47673627717	5643.1300700371
0	7083	336770.822537834897	4254.564417874
0	7089	337141.935014827002	4022.2423529722
0	7100	337591.342353252685	4096.497558791
0	7133	340718.480398685525	6372.6610126728
0	7170	342376.357909747106	4785.6570119551
0	7175	342720.640368045668	3845.2634126404
0	7221	344952.771173232552	5885.4944053999
0	7229	345238.158353114895	4460.9710039918
0	7235	345573.110559041185	4297.4938454391
0	7247	346909.049572013478	5222.7536041595
0	7258	347178.653652821554	4454.260922482
0	7267	347471.876888341561	3726.0725093014
0	7300	348652.779281889566	4878.5249507582
0	7343	350804.180177251832	6808.5474096479
0	7390	352320.057990531251	4985.6934613042
0	7404	352886.613337070638	5174.5840045835
0	7409	353196.049380767261	5366.6416029484
0	7418	353415.569033919179	4788.1463558625
0	7446	354347.638166596602	5715.7798975501
0	7454	354639.30696441409	5055.1743215759
0	7465	354946.225569834112	4385.5072729382
0	7479	355568.781186098279	4738.3519174482
0	7484	355827.426581764338	5931.4793434004
0	7490	356084.509709317629	4680.6413776089
0	7495	356384.046320995598	5394.3351088695
0	7507	356708.243960168875	4577.9039778383
0	7512	356986.323495908745	3733.7555633334
0	7546	358459.501343208303	4788.6365494111
0	7567	360355.40253232511	3259.5574085764
0	7572	360669.827018525443	5775.0902313942
0	7591	361886.122445514803	4043.1797587938
0	7607	362699.399764362099	5452.0950267224
0	7637	365504.080467656386	6808.2214032958
0	7642	365862.097519078712	4236.6510350518
0	7676	367756.478313921115	6118.5641007443
0	7688	368231.530040276063	4205.6751226416
0	7731	370031.211332613939	3452.6102558738
0	7758	371214.097564955878	6292.4187321136
0	7764	371514.533375118145	4775.9554606965
0	7772	371809.043310025582	4859.4456496842
0	7778	372086.070386484078	3885.0031820273
0	7789	372793.398347298838	4354.5207206217
0	7801	373075.477577134665	3267.6913620873
0	7823	373986.842625488921	4612.3398729979
0	7831	374335.164680039663	4351.2879730956
0	7964	379259.859410677327	9070.4779250082
0	7969	379567.702596517469	6757.4775541817
0	7981	379883.350372227134	6667.8022314489
0	7986	380179.981320263322	6117.5718413711
0	7994	380413.504286594405	5994.737437563
0	8003	380680.247796616416	5970.4376829393
0	8011	380944.883160840031	5080.3798588767
0	8022	381212.126357640977	5268.2594651161
0	8028	381498.773430675681	5531.9607505493
0	8042	381811.588636225898	5361.8557358621
0	8058	382700.612968922729	6617.5822402543
0	8063	382985.110914544149	6228.9451772098
0	8072	383255.887456497669	6279.4291820273
0	8085	383792.698828086717	6136.8269878021
0	8096	384402.946021590942	6970.3050660654
0	8113	384811.174414259579	6456.8534815542
0	8149	386405.96004961489	4802.4813588959
0	8158	386716.853946598751	4960.0648620556
0	8163	387030.753245512421	3983.9150749494
0	8192	388334.814095804937	3763.5410133892
0	8203	388608.283794226743	4975.163478145
0	8220	389247.832394541091	4342.9264981165
0	8233	389800.82411716899	5093.3375301666
0	8258	390755.305658326276	5517.6524334568
0	8264	391061.900454152786	3617.5986692834
0	8273	391844.623690440939	4090.374108962
0	8281	392525.158452011606	3981.2166753742
0	8290	393095.827262587466	3980.1168763665
0	8298	393370.536436767777	3663.4434909862
0	8319	397581.981537387412	7431.3754099974
0	8372	401215.21922603896	7055.6582863364
0	8380	401644.414383265419	3589.8157052636
0	8389	402350.632784178246	3455.8995264718
0	8421	403766.987830812449	3674.4748061094
0	8431	404461.852460159023	5037.9403769949
0	8457	406175.458861835726	6058.766738923
0	8466	406937.690603089222	4028.040501124
0	8478	407690.749510693007	4496.8199146088
0	8489	407944.879051262252	4388.315870811
0	8503	408486.98567471806	4024.707494267
0	8545	412051.866651560387	7171.2875337243
0	8564	412914.795325003009	4536.711223845
0	8573	413179.283709859632	5329.1658536382
0	8593	414362.407736995068	5330.725412115
0	8618	415320.715342907661	4425.9111890742
0	8640	416258.778449901286	4237.9891306099
0	8645	416548.981429383094	4280.9751352971
0	8655	417775.214584782521	4627.7993771136
0	8670	418361.136423743649	4177.7003265316
0	8692	419357.291352507772	5071.808716815
0	8706	419641.92211290733	4448.0139913572
0	8740	421779.488149209888	6207.7744446322
0	8748	422539.756866836394	4453.3023547076
0	8757	423035.194793390492	4864.2385946668
0	8772	423537.986794800894	4123.0373812334
0	8777	423852.866110925322	4468.7360149253
0	8782	424108.356791904377	4563.4290203775
0	8812	428681.500594251535	8151.7332113802
0	8829	430103.146956424222	5019.4050793114
0	8857	432964.557912617389	5812.4848601887
0	8865	433399.911025993273	3828.3859045922
0	8894	435335.198765204901	4306.2732192447
0	8937	437859.050467691984	5982.8730462225
0	8943	438105.585882881122	3734.4992854841
0	8951	438386.739983565583	3795.3183201858
0	8974	439487.836582688858	4183.541075575
0	9030	441506.361866525405	5398.9161365267
0	9038	441810.472073100247	5091.7185761452
0	9066	442722.503197675112	5824.0452139751
0	9097	443674.78703296405	5121.2117028411
0	9106	444014.458949449035	4311.0679771231
0	9117	444306.045157082905	4260.4530992872
0	9131	444943.281643350847	4919.1274513269
0	9139	445265.214937118222	5875.4404005287
0	9156	445923.011966955434	5075.4019838402
0	9161	446251.671092622293	5957.9071218822
0	9170	446538.638833466342	4936.3571070202
0	9180	447101.869526252857	5284.374441268
0	9186	447407.594255822069	4953.9148958629
0	9197	448115.46244757532	5370.0001232433
0	9203	448452.867840609991	4203.3100799022
0	9229	450235.208487602357	5124.4095363294
0	9258	451911.299365017653	5615.0314364036
0	9278	452987.922458715044	4403.6988634506
0	9297	453944.600876975954	4784.0616403725
0	9328	455051.079197885251	3699.8771295286
0	9370	456413.500616540809	5910.9773893821
0	9378	456713.703255916149	3839.2406359367
0	9392	457414.320350823643	5673.7263264467
0	9401	457659.302371009902	4688.7718523362
0	9406	458010.05199154278	3840.6066420323
0	9418	458657.198416723379	3920.1688644539
0	9432	459041.315957881475	4616.9244601472
0	9443	459590.297212120928	4491.2489785876
0	9451	459873.87879132109	4597.4781933321
0	9459	460180.089865877716	4858.0025949371
0	9491	462488.469527370399	5889.1865635148
0	9500	463266.805606341598	4348.0168732383
0	9517	463997.175966791859	4009.8861986411
0	9537	465154.31832630923	4167.0615096967
0	9555	466960.883530385963	5127.8508350795
0	9564	467275.248133957661	3980.7506967673
0	9579	468965.793927854797	4831.6826004358
0	9622	471473.135801990807	6324.0218964714
0	9643	473568.045605141133	6351.6664054031
0	9655	473873.30607143148	4235.1272685488
0	9660	474194.303655974773	3989.5016974662
0	9668	474478.19214502783	4348.0411762771
0	9688	475393.586665540998	4587.5535711185
0	9717	477573.9058912684	5852.8129423687
0	9745	478800.665399711175	3486.4593483857
0	9754	479052.555916194519	4844.4771252417
0	9779	480052.691129896918	4685.5405296722
0	9815	481351.259782221522	4922.4877954787
0	9865	483208.322928348641	5397.0517958172
0	9883	483518.729815643942	5361.166370243
0	9905	484409.857977955009	5405.6093234929
0	9910	484716.371424478741	4691.7383063506
0	9915	484956.519300409812	5550.1660456433
0	9924	485250.997364167612	5164.7270424019
0	9938	485613.309784088045	5063.4542094836
0	9944	485886.482412580295	4487.089469618
0	9955	486164.022494710613	4825.9667926781
0	9985	487300.367108540524	6042.6841878066
0	9999	487901.506709466627	5890.1701685152
0	10010	488234.784565409103	5942.8865204841
0	10103	491132.623892664571	7822.4455099952
0	10116	491743.189547087236	8338.4259629251
0	10122	491980.752416224188	5747.8106425516
0	10133	492287.488106319014	6251.8157837365
0	10144	492586.517281515371	5929.9191904592
0	10150	492887.600566161	5773.1924744563
0	10158	493155.177095032306	5210.9274416694
0	10169	493455.160142322403	4997.128760814
0	10194	494361.144900179909	6416.3199316251
0	10200	494651.259335363812	6166.9438081098
0	10205	494919.140436889186	6313.395680925
0	10210	495212.845188958831	6580.6641755593
0	10216	495538.071930847682	6588.231435237
0	10224	495847.075594019325	6960.9421700751
0	10238	496523.328440560986	6811.6241653208
0	10255	497158.885314559736	6282.9035207825
0	10260	497428.379834391455	4057.0293758807
0	10285	498499.538206296558	5029.5473059371
0	10295	499640.55751904491	3924.4662456247
0	10310	500863.251867794779	3353.1957384972
0	10321	501477.063757960892	5288.7085695771
0	10356	504529.3575081168	6958.060659514
0	10374	505986.368446013185	5380.24532505
0	10410	507214.082187539221	3816.6617064301
0	10416	507553.430728723135	4014.5383705436
0	10425	508190.311931415433	4267.7378829931
0	10445	509193.026176138157	3176.6742057041
0	10456	509463.18799223039	4635.0889692865
0	10467	510023.547743007707	3795.5308901575
0	10493	512026.336070799148	5501.1349954354
0	10502	512611.460768217478	4038.0894244347
0	10540	514489.687443486659	5241.7535758474
0	10562	515832.249870737759	4689.3625362993
0	10573	516177.322713401178	3335.4779030398
0	10578	516454.546359527123	5217.2159089836
0	10594	517819.719281653626	3601.7795411257
0	10641	519602.966203575004	6303.6428452764
0	10646	519904.286537943732	5682.4211513021
0	10664	521023.887465986872	6792.0877173526
0	10675	521463.634353408958	3851.0655984803
0	10684	521771.739184855172	3805.4686622319
0	10703	522394.536048655438	4473.0861696305
0	10722	523305.700027948881	5045.0481629382
0	10731	523918.152783385363	5003.2551061158
0	10740	525039.714528895758	4575.8408177177
0	10756	526658.115893539721	5050.4205427159
0	10767	527245.171173410668	5123.1151541931
0	10805	530147.205769005546	7696.0953327277
0	10811	530499.584329160134	4051.1235183956
0	10819	530846.879397641421	3600.8074156465
0	10828	531234.973188365551	3658.0588310405
0	10856	535097.439884106525	7231.9269012186
0	10881	536161.057176400562	4544.5928857851
0	10928	538940.907601379364	5528.4368673012
0	10939	539257.671110388316	4043.6123916342
0	10953	539779.579659878707	4408.4334432929
0	10961	540120.406095046192	3755.3032483402
0	10975	540995.339906413553	4269.8198630375
0	10986	541412.847563781645	3767.4147886883
0	11012	543152.130696495358	4996.1486040688
0	11018	543435.688367372143	4242.6447774599
0	11042	545150.718841967964	5304.4056178922
0	11052	545714.210797271781	4469.1968932473
0	11078	547006.441534803916	5024.616925381
0	11095	548227.198999142209	4680.3114286738
0	11113	549441.579001381737	4557.270986727
0	11122	550207.032094669285	4271.4113069038
0	11133	550674.61139997957	4330.9350039342
0	11147	551330.198985589806	4291.6297361115
0	11185	554021.200711343276	5544.8829106904
0	11200	555235.026519473547	4630.7604742829
0	11212	556676.760635593495	4074.8458392547
0	11227	557018.193284260679	4034.011746944
0	11246	558001.517653289576	4588.0409044869
0	11278	560393.760106843893	6616.6383274018
0	11289	560915.126525507316	4131.2111375864
0	11298	561214.000387161681	4407.8417568159
0	11320	562065.389157429975	4321.4981490428
0	11337	563401.12588214792	5158.5157984797
0	11346	564242.596640802646	4406.1924341031
0	11355	564831.553537492952	3699.0569810033
0	11364	566088.874780573868	4863.5462689967
0	11412	570229.467363536723	7456.3016341093
0	11420	570518.348771321234	4042.0346090352
0	11434	571185.202975555497	3981.3636902688
0	11496	573908.08372917105	6499.2863669183
0	11502	574221.753434336401	4739.7430849856
0	11514	575560.988767104961	3698.2111755497
0	11529	575881.654259816848	5507.8233792145
0	11537	576154.930882833923	4100.2586035208
0	11584	578036.93993330623	5929.1993630568
0	11590	578320.99505276246	6185.9546511804
0	11595	578601.588394067866	6296.4594492574
0	11603	578906.508531174617	5695.5061287155
0	11615	579909.352041331772	3942.9790742058
0	11624	580174.664123811186	3847.2894920439
0	11629	580414.347217400842	3908.9528783947
0	11646	581054.185963676837	4537.8202934809
0	11682	584487.368296546233	7745.9699268322
0	11690	584904.256022531898	4455.1800238983
0	11708	586361.44203255817	4615.6950657719
0	11717	587061.614404326331	3465.4674264976
0	11751	589217.597273366573	5591.8430144379
0	11775	590792.088856602499	3373.9856208699
0	11789	591397.841550916429	5681.6689117205
0	11794	591764.628465567469	4275.040107999
0	11820	593482.514566783947	5872.8920471521
0	11829	593884.146892384662	3634.3078448843
0	11847	595593.819039572734	4943.9302247554
0	11864	596895.485575969643	4537.3449315567
0	11898	598285.958168384111	5337.1794797873
0	11933	600364.694366025066	6061.2390863457
0	11950	601009.038051967067	3894.2281607714
0	11955	601274.760624281331	5018.3685053034
0	11961	601549.171060179015	4360.9318850426
0	11969	601829.766814555174	4532.243456708
0	11983	602476.479433347536	4168.8004661863
0	11992	603446.098196754876	3938.8385490171
0	12021	604823.790565842431	4627.7199237074
0	12044	607252.803418674876	5602.7831235532
0	12056	607510.601292296036	3570.071521203
0	12064	607798.937058226334	3869.5509358041
0	12069	608071.782605311716	3255.2230009521
0	12105	611408.617715381357	6206.1345680643
0	12135	614022.569432806592	5812.4900323937
0	12147	614277.651934571768	3949.6429196076
0	12174	615517.050481567366	4666.0449994216
0	12183	616460.026444497964	4266.7834341083
0	12231	618055.472489488325	3813.0459857343
0	12236	618346.949064482869	4898.1227025271
0	12242	618657.844259066058	4381.004131235
0	12262	619767.871341361265	5391.2609105664
0	12267	620070.78797765478	3473.1406768082
0	12279	620421.354913095536	3234.299855157
0	12284	620671.923177039881	4046.1691865495
0	12313	622217.28514282166	5029.2668521176
0	12355	624078.548820141529	5230.9168076526
0	12369	624644.231563634924	3535.4423238106
0	12380	625255.307335716433	3035.755892064
0	12389	625515.486630112803	4231.699654401
0	12394	625797.017696314724	3710.5102860034
0	12406	626816.626074460667	3765.035369397
0	12412	627189.272045292025	4613.4336131845
0	12467	630566.369074497421	3327.4700360886
0	12475	630867.176491849325	6805.7966870179
0	12497	631828.708998127611	4391.6489065707
0	12525	632932.651192456677	5109.5257121442
0	12531	633239.936977921084	3686.7080319454
0	12539	633646.75205515788	3716.363809535
0	12556	634456.054575315996	3790.8044534021
0	12568	635294.77102409844	3271.8546573503
0	12585	635898.391346473466	4616.5458304539
0	12600	637537.154944537612	5405.1073357851
0	12612	638569.805103990925	4730.1766499899
0	12635	639237.017751593206	3948.6068742353
0	12685	641634.467524388975	5742.980779899
0	12705	642683.080456517252	4346.8175633073
0	12713	642967.347301081059	4059.3196884822
0	12722	643290.27225155525	4077.0671860313
0	12733	643582.573118493402	4089.962695833
0	12741	643919.838781961651	5006.2357070373
0	12755	644546.544042770513	4793.2678798931
0	12766	644853.18131430809	4120.0813821152
0	12812	647586.310989675342	5818.4351765882
0	12831	648221.299954551696	4404.832823364
0	12849	648510.062738380738	3923.4019695597
0	12873	649784.777870043199	5086.906168701
0	12881	650032.885361351142	5046.4913397714
0	12890	650370.249433449471	4542.0542131984
0	12895	650658.03067062327	3834.614016502
0	12908	651860.104134277076	3442.3973579713
0	12919	652199.996637632525	4568.6254203148
0	12936	652780.771084891602	4518.4818322947
0	12984	655353.420949003181	6334.5271525624
0	13012	656482.737376063306	3875.1584595734
0	13023	656781.472476188074	4755.6047801586
0	13054	657946.24728485307	5241.6822555324
0	13062	658223.086254947864	5250.8800835371
0	13076	658825.84874171989	5144.4246787984
0	13084	659123.245022817742	3873.46904715
0	13095	659452.644112168176	4815.8402832318
0	13140	660985.195433237143	4459.4468933992
0	13157	661533.818143488555	5720.4061376599
0	13187	662669.624909200471	5893.7739672333
0	13196	662923.378083437885	5900.773656519
0	13207	663191.872501288896	4041.2449593787
0	13215	663517.811770482497	5386.1601746925
0	13232	664032.599221712685	4788.0917581514
0	13249	664707.934768880358	4945.7411029588
0	13274	665506.18076785314	5545.6909318553
0	13285	665791.375520600388	4353.1386260459
0	13363	668603.202455736689	7762.5265876461
0	13372	668916.771459912623	7209.8813743705
0	13380	669197.923526618007	7285.545891041
0	13391	669486.053470933267	6173.0457046355
0	13402	670028.554521859955	6090.3263631302
0	13410	670317.378467498949	5652.520219683
0	13421	670590.06473086979	5692.8916563234
0	13433	670829.994643627339	5303.5693764217
0	13441	671077.337428638751	5362.246413829
0	13460	672040.246758820987	6149.6567783113
0	13466	672352.978133995282	6461.7055189508
0	13474	672678.451744791426	6224.0203606826
0	13502	673562.735046928329	7493.2564680202
0	13550	675033.939992747206	7735.8641574007
0	13569	675916.746294660738	8548.1548703247
0	13574	676192.712231010851	6737.7995199524
0	13585	676466.940946302883	5507.1414244713
0	13599	677041.061396649311	4571.4764574266
0	13604	677366.963089279765	6095.9649084095
0	13619	677657.500462190349	4747.7087010964
0	13630	677957.604849894467	4639.7070098182
0	13644	678519.617422336729	3715.1371700984
0	13655	679181.993796558801	5226.8774027048
0	13660	679493.158512311262	5929.3144808108
0	13668	679773.150683055406	6349.9234897335
0	13674	680058.879297225911	5158.5683286464
0	13686	681278.57813134315	4973.2424605269
0	13691	681647.289311954345	3979.7770250972
0	13755	685183.172698776116	6668.7617601039
0	13772	686218.286858754254	4231.3227545443
0	13780	686448.755756492165	3553.7281697689
0	13806	687071.257586486301	3753.0528941752
0	13850	688978.419929862734	5491.971576543
0	13861	689267.688868498081	5712.9059076499
0	13872	689781.455510750077	5900.9039761134
0	13880	690099.678653675645	4939.2810570842
0	13886	690431.959836536857	4045.6670380723
0	13900	691003.757376326813	3748.1282662529
0	13906	691350.808322080994	4295.3560276424
0	13911	691691.074030575779	4630.3600175252
0	13923	691987.835844875525	3841.2532921657
0	13928	692258.551823228238	4372.43259107
0	13987	695360.297259360334	6367.0877130137
0	14002	696139.463437940524	3419.9476586412
0	14008	696398.887902485642	3948.0430959019
0	14013	696720.355194262146	4097.369119119
0	14041	697684.771947247198	4476.8524480006
0	14046	697929.998881705698	3850.4992397976
0	14065	699825.109976346998	5633.1940523932
0	14076	700492.476644463379	3637.6067104565
0	14091	701512.191691106273	4529.4273525084
0	14117	703883.055381253772	5611.1331026127
0	14127	705342.526569090304	5066.1103170307
0	14135	705626.05117775069	3917.7278172315
0	14188	709835.808322786454	8058.8328815345
0	14197	710261.375473224131	3887.3615052172
0	14214	711204.565840042319	4511.3474975096
0	14225	711567.827792537874	3896.0773851547
0	14259	712961.417952120239	4532.2083334176
0	14264	713252.933319884551	4052.2135201731
0	14277	715057.647781655899	4769.8804280495
0	14289	715371.338837547398	3313.4409147477
0	14300	715995.540265620037	4482.4388436684
0	14351	718750.834555643666	6402.9414611309
0	14359	719170.793897002914	4037.2856891555
0	14379	719806.356791048325	3745.3851716641
0	14410	720646.581803624357	4032.1887956287
0	14429	721537.106382052306	5133.1669155213
0	14440	721840.710736594705	5029.0615556737
0	14468	722922.231205499214	4796.197133735
0	14479	723239.295245786856	3442.7325838138
0	14484	723505.112112509315	4305.4861428225
0	14527	724951.132109655767	5114.9940975787
0	14541	725547.531023666853	5130.6460147228
0	14549	725826.224481353323	4266.7532692929
0	14554	726068.35916985065	5444.9053015572
0	14560	726349.632685643522	4578.8056740425
0	14572	727231.186886919127	4947.8624505745
0	14577	727533.825460248624	3831.5698187435
0	14586	727992.984411535055	4106.2131651034
0	14594	728372.388258228305	4450.5332486882
0	14656	733203.248510829993	3146.2157204858
0	14695	734442.2535398439	4265.3855762581
0	14704	734771.92071733319	10042.646338331
0	14709	735070.055804922636	4645.990963673
0	14717	735400.690372060863	4036.0309920281
0	14726	735712.653261128133	4232.9471736221
0	14739	736322.107829303941	4367.3870419706
0	14762	737264.911079095767	3985.1234402868
0	14784	738171.344529795405	4787.687747501
0	14805	739097.185029509824	5551.1798906218
0	14858	740939.792081623346	5424.0140471029
0	14866	741256.014083632419	4143.5897326386
0	14888	742200.238008362125	5500.3452210115
0	14900	742489.367179438356	5151.3830058894
0	14925	743434.337995580698	5479.1621329648
0	14933	743752.444077210711	4682.0270418398
0	14938	744039.921884904085	5030.5996611762
0	14944	744317.442393108326	5104.750161046
0	14958	744682.898233694128	5268.2539921698
0	14969	745302.252921819154	4240.4608281586
0	14974	745605.127448082521	5510.7806098896
0	14986	746103.336338971847	4704.0174985776
0	14994	746401.231654062595	4103.8685021117
0	15012	747671.90193105475	5140.0589276976
0	15043	749423.861991590198	4979.4440289228
0	15064	751263.010262066684	4926.6669148069
0	15072	751577.58151346813	3994.9958435137
0	15086	752326.746219770661	4126.9544467973
0	15104	753784.147171145684	5043.7660558701
0	15124	755110.212253873266	4416.6966165572
0	15153	756779.991202278196	5467.2683400185
0	15184	758024.23352558376	3474.7110441558
0	15192	758364.838751932702	5131.1300804377
0	15197	758659.265802218541	3558.6895010302
0	15207	759819.448978795668	4373.6216400522
0	15215	760121.270723269589	3606.4125703428
0	15227	761069.814486633938	4457.0662684763
0	15268	764450.779791955713	7509.7233324567
0	15277	764751.386512292443	3930.8693357145
0	15286	765702.208949295971	4135.6479255791
0	15320	767355.721809330605	4353.5568802792
0	15333	769062.358956524509	5399.3765598228
0	15338	769372.179738401702	3573.4086089057
0	15347	769850.691579405875	3658.3821983792
0	15407	773565.292216954386	7353.1449101499
0	15427	774345.47443444283	3975.9908594517
0	15432	774679.012922372004	4443.3582619242
0	15444	775106.514266521116	3027.3016621217
0	15455	775399.965277730591	3756.4534250958
0	15474	776334.516836986897	3911.2853658656
0	15486	776850.299378032483	3963.0302048917
0	15518	778787.912864281645	3603.4986955502
0	15542	779886.553179020222	6189.2757059631
0	15554	780505.464970101832	5276.6489001468
0	15568	781037.884878996926	4203.2077142821
0	15594	782227.436081240246	4738.6452208508
0	15621	783420.589133456936	4886.3494862285
0	15630	783709.159562521906	4954.1324834971
0	15641	784019.843087907798	4736.9702619446
0	15671	785209.680842525196	4813.816716332
0	15683	785536.678851114522	4382.3360926649
0	15691	785806.668387217611	3877.3118921392
0	15702	786303.518642289822	4272.9133069243
0	15745	788165.213364016307	5460.147630277
0	15756	788769.007249885299	4695.0464130395
0	15767	789060.586632978162	5270.8100601376
0	15789	789926.166530346443	5657.9133697091
0	15797	790175.724820498013	4558.4605311817
0	15803	790442.356747537071	3530.0037868315
0	15811	790888.809132071697	3857.5527154296
0	15823	792001.722248779081	4754.5742644838
0	15837	792624.462095940068	4546.6033976826
0	15846	792954.993921651828	3952.3120917163
0	15890	795554.499830551618	6495.8865650297
0	15922	797083.730503170853	5226.5782891801
0	15934	797723.236420821776	2973.5377735695
0	15942	798049.765815959007	4991.7978417113
0	15999	799801.791320305451	4368.1714716417
0	16004	800093.26557585951	5156.4287433511
0	16015	800386.741530571635	4947.0857114409
0	16037	801369.226996731055	5817.8824291853
0	16046	801661.767691700161	5739.2014167434
0	16074	802498.169792316219	4766.5406631578
0	16079	802802.040612067101	4503.0033749084
0	16084	803077.117523716378	4768.5065176302
0	16090	803358.658787937727	4816.5829797805
0	16101	803723.50119463334	3536.141563954
0	16106	804026.711451675012	5366.7552637618
0	16119	805291.148534263118	5005.3065577574
0	16124	805636.387623894797	4236.0470870264
0	16181	810112.192239043256	3284.2712265131
0	16186	810407.228946395137	8637.8464512704
0	16201	811072.904100764578	4150.3683435155
0	16214	811642.526069340794	4692.7781507881
0	16220	811943.738013031412	4781.5576024765
0	16262	814279.766815185089	5712.7710399627
0	16272	815378.520441819946	4383.0099839771
0	16283	815952.229906845294	3647.1899516935
0	16289	816257.918003067946	3653.4105563258
0	16298	816892.298946150292	4162.628914821
0	16380	820417.952390414629	7446.8596621803
0	16385	820664.38478412044	3597.0989695254
0	16390	820995.703162806631	3698.5643251132
0	16441	822640.604805617242	4916.685555929
0	16447	822991.214962820477	4739.1549533073
0	16455	823326.834629452617	5057.003841796
0	16460	823599.319702973603	4841.4764464619
0	16469	823891.980022110116	4860.3793856878
0	16486	824597.406388101958	5252.9803672699
0	16491	824896.533562459957	3771.3063746923
0	16502	825202.205147760789	3656.1752691317
0	16508	825484.309779738021	4329.0690723509
0	16534	827275.135587327831	5683.5422397071
0	16547	829255.138663565534	5460.0804554782
0	16561	830034.97690236438	3945.7616638571
0	16604	832875.599716279943	6576.067083417
0	16616	833318.068660764457	4285.1237499612
0	16627	833599.528323341367	3300.129336638
0	16638	834177.674716730266	4027.7296969059
0	16664	835714.182613294577	5146.2258471638
0	16672	836363.215750303356	4118.6250721391
0	16701	837803.395129857518	4360.3686055918
0	16718	838510.109222938638	4080.0611527508
0	16740	839395.643899660007	4314.7645904923
0	16765	840530.730057622939	4025.5626830383
0	16785	841411.238045388127	3646.7655081079
0	16791	841754.068407719197	5085.7576766383
0	16799	842162.463634293004	3890.3742750129
0	16811	843016.940780153478	4228.4951732736
0	16816	843297.057268882606	3590.6911819722
0	16826	844329.459405335109	4556.1439824019
0	16905	848353.396427722714	7573.8357985048
0	16914	848671.120751470293	4201.4596864239
0	16919	849004.632576951932	4408.6261811748
0	16931	849598.384496154686	3511.6854875123
0	16951	850244.156342759721	3729.3695994657
0	16967	850905.332291211912	3519.9006279188
0	16973	851217.295518552018	4695.1925798006
0	16978	851496.563195096249	4326.280725079
0	16996	853337.31588162378	5652.086689817
0	17005	853875.607363224575	4538.8173713713
0	17033	855273.996872048097	5243.0778571271
0	17088	857936.399200537548	6282.2885509997
0	17096	858162.057379263417	3804.2918145669
0	17101	858470.650804489162	3808.3764211358
0	17107	858797.999804077652	3631.0940162378
0	17123	859458.766560442786	4129.6130051725
0	17138	860072.948569707822	4204.071952904
0	17149	860662.52503764308	3578.1193503188
0	17158	861523.633027072326	4198.3192129235
0	17176	863545.970217219894	4710.7929925551
0	17212	866801.093307502832	6961.3697928537
0	17238	868684.602357738343	6257.5640410278
0	17247	869349.318812576602	4230.9626771229
0	17255	869778.404768643935	3915.5141171842
0	17273	870852.135029235878	4814.7732067982
0	17290	871902.740856646974	4603.0640532319
0	17332	873891.41123639767	5878.0008335518
0	17341	874527.876319467068	4533.219262463
0	17361	875376.8388741978	4283.329176326
0	17369	875689.036364636477	3774.8798246054
0	17383	876243.687787381968	3878.8233992137
0	17391	876688.160496081725	3705.5229501597
0	17401	877938.031769011785	4611.6627576045
0	17410	878828.470425834196	4094.1838827199
0	17446	882307.488705258104	6925.314265261
0	17492	885043.911014282876	5484.7666387397
0	17498	885353.153484088348	4138.5751696227
0	17509	885934.878660327804	4678.65068364
0	17527	887363.249941974287	3550.2189008408
0	17532	887681.689834164147	4988.8219643904
0	17541	887954.758731457434	3939.6886574854
0	17558	889370.785698004007	4958.0812409703
0	17601	892011.267988108589	6392.3565319416
0	17610	892439.97089876717	3922.6359529634
0	17631	893893.028782035502	4461.1597445611
0	17650	894521.712955066978	3880.5761440976
0	17667	895098.841303782658	4739.6224983188
0	17695	896497.743629431729	5671.7008130569
0	17712	897485.567652539367	4673.6372685755
0	17726	897933.910078204202	3613.2554738347
0	17737	898459.499503575384	4797.9854384278
0	17757	899230.520647064267	4259.1610252286
0	17762	899496.817849334617	4462.1285984356
0	17774	900577.448546243089	5148.6669456582
0	17788	901233.136692613319	4324.784015734
0	17797	901777.622293207215	4112.4267913628
0	17824	904185.412058581578	5651.7745619156
0	17858	906088.492511874636	5859.8758656825
0	17866	906610.254566673252	4449.3554463946
0	17883	907321.843604158996	3807.394951608
0	17893	908462.111813958594	4083.4137176287
0	17921	909370.951677488089	4853.3592409462
0	17951	910585.402049749925	5154.9857282185
0	18014	913407.732008146149	6743.1793281584
0	18020	913696.950962035259	5181.9634467786
0	18025	913955.142944057889	4825.6281673757
0	18036	914294.314066660065	5546.4750672549
0	18056	914878.656288214717	5283.8706977652
0	18070	915516.20788696899	3908.8511576972
0	18093	916116.708118710234	6509.7998965439
0	18131	917576.109882897256	5872.1113021041
0	18148	918151.545846610746	6357.1836900482
0	18162	918731.848981667992	6792.4846350743
0	18167	919019.940572968657	6525.4081046743
0	18172	919312.619396275249	5301.8664924724
0	18187	919598.602939083923	4721.7518084273
0	18195	919918.393581049567	3939.0590891564
0	18209	920195.226440141173	4223.3647064024
0	18234	921387.600641205653	6162.4991227837
0	18242	921638.267126225161	5485.0890817036
0	18247	921957.815728949817	5029.340571234
0	18253	922268.64018177804	4719.6905492447
0	18309	924362.602370955839	4377.5321457808
0	18315	924667.296477503199	6573.4779850668
0	18320	925033.207309200152	4973.1615606908
0	18337	925926.652013869433	5807.1846786591
0	18360	926700.902464351937	4239.1424403575
0	18371	927009.426976160247	4325.0040140617
0	18385	927707.260246240672	4899.3526635952
0	18393	928007.459992247439	4928.437638608
0	18412	928886.513876282947	5467.6196612209
0	18424	929291.169446057413	4120.6470777885
0	18469	931375.116145625093	5326.9318420774
0	18486	931930.566173435073	4935.0144288331
0	18500	932507.986021908467	4715.7763550189
0	18505	932793.635229910049	4677.7498221296
0	18528	933750.433856211706	4678.753001533
0	18536	934036.185582615548	3939.2044313832
0	18562	934937.450617472496	4715.2348936111
0	18575	935504.23680795863	4812.7432847726
0	18584	935825.705197327995	4560.8519223541
0	18589	936105.008634376237	4354.5686088418
0	18626	937558.098248647238	4432.0807372318
0	18631	937887.278895168776	4122.7363908063
0	18642	938251.140493309766	4184.073578938
0	18676	939998.622043223057	5280.8488265095
0	18688	940246.220085406922	3932.5128927249
0	18713	941196.486728943073	4240.9595961971
0	18730	941865.175418939374	5470.6420458457
0	18735	942187.539824922591	4097.2678071754
0	18740	942502.189733782009	4029.8815209326
0	18750	943464.058839932676	4472.5190277491
0	18761	943839.870893047611	3712.9905275236
0	18766	944155.851184547291	3950.2336838545
0	18803	947820.241912262766	6923.1183571361
0	18820	949086.916556160589	4660.1158264129
0	18832	949705.929888554895	3796.3406380498
1	979	50718.332150809549	49.901558328861
1	987	50987.446009430588	166.48117094945
1	1053	53593.621440129218	142.44033771337
1	1073	54139.350847389166	54.012406133663
1	1084	54389.584732760962	174.5083783554
1	1089	54660.444730860619	290.44651913814
1	1109	55655.803315368944	211.58419031194
1	1161	59149.442040537064	0
1	1170	59905.884623263002	0
1	1178	60658.061624222785	0
1	1196	62315.420249677798	0
1	1205	62627.439018221704	123.54624491737
1	1232	65034.411939670081	0
1	1240	65340.731771889074	178.44981341894
1	1265	66194.287831262094	30.389204434928
1	1273	66688.673709254273	0
1	1282	67046.393760828846	300.41886300283
1	1309	69427.864445037567	0
1	1342	70980.75632704853	0
1	1351	71284.878136871762	160.51525126497
1	1360	72636.440605499734	0
1	1377	73264.758649181106	293.15690093121
1	1386	73652.06903526282	0
1	1397	73971.148862985794	142.30416490833
1	1411	74291.796333842619	195.4817747016
1	1417	74644.207534806236	368.60940772917
1	1431	74991.638600155639	289.02184396874
1	1437	75355.492357715957	583.77763600751
1	1445	75677.785127205382	875.13126243325
1	1453	75908.174518868645	341.33757381707
1	1490	77056.211971189408	207.07918814215
1	1542	79053.178879927205	71.853812556695
1	1559	79626.469387468863	158.17433827355
1	1587	81381.256630377595	0
1	1595	81661.97934148811	260.18848601575
1	1609	81956.494900033295	201.25964262875
1	1618	82238.698191305704	416.6415904188
1	1626	82559.552111700183	731.04142958029
1	1634	82837.432536783283	411.74112402775
1	1640	83108.506669225649	346.53518320712
1	1656	83752.614332814638	63.879923751404
1	1710	85649.138975623682	42.912424054029
1	1718	85929.937216364601	311.79322250294
1	1738	86612.084514462014	53.797108303199
1	1746	86890.890041805184	195.98322175419
1	1771	88124.540074595776	60.167635463102
1	1805	89894.325859475011	0
1	1821	90632.24981922536	0
1	1830	90960.271476010368	125.33947047252
1	1848	92588.840836265018	0
1	1882	94699.065599503666	0
1	1891	94960.766713239666	54.04942508713
1	1902	95249.547567872878	254.49235812077
1	1907	95485.989047848702	325.74858235454
1	1918	95791.71007587923	257.7046883821
1	1933	97045.344393192466	0
1	1985	100204.045633749388	0
1	1999	100536.511447680316	328.99796900072
1	2004	100837.27490777655	380.18433324478
1	2018	101487.722665239812	193.83599199926
1	2027	101796.930739322948	178.73736159133
1	2035	102142.140172192547	0
1	2043	102411.00664593	144.56946129163
1	2080	104211.297056889739	133.02876952346
1	2089	104483.539004413953	304.80756456395
1	2111	105055.135280358812	114.61319767782
1	2125	105608.75972469424	293.13357216455
1	2133	105959.695385607746	210.57438284476
1	2142	106258.140607413122	137.41825750199
1	2186	108331.472523633927	0
1	2220	109568.249634239332	0
1	2229	110999.469652362446	0
1	2246	111576.074852382919	193.24219367139
1	2254	111889.192675200444	0.52531767732
1	2266	112199.053460125828	287.42228022974
1	2271	112519.001312858309	320.01046834966
1	2282	112848.598118565733	30.357698994482
1	2297	113919.663848740616	0
1	2308	114260.047717902643	78.498959351371
1	2319	114548.095869737344	68.607491490808
1	2369	116274.537718494049	131.93818154836
1	2384	116572.334452685901	353.304390261
1	2392	116897.814433592404	436.7621091787
1	2400	117164.207852652075	693.10113708323
1	2415	117475.624244168658	927.87463663923
1	2420	117763.016568956878	477.81174974935
1	2432	118091.587685188384	707.04361211882
1	2437	118383.843445120916	477.21504217181
1	2442	118674.014800114373	762.31593145035
1	2454	118956.733531676476	218.72901556985
1	2462	119242.260532880275	314.87542977264
1	2490	120188.662061471192	157.63879533624
1	2549	122339.950584148712	205.48727088253
1	2574	123332.966436780074	50.132341988927
1	2593	124260.084996381772	0.54101354709
1	2606	124846.174663270312	83.596107352777
1	2634	126090.63770421757	202.38721660498
1	2642	126352.239353802731	145.78360016908
1	2664	127229.627344867065	284.63784438292
1	2673	127562.318352438942	267.37428205285
1	2684	127814.075591126436	81.053584225934
1	2743	130747.305112638047	200.12500287984
1	2758	131826.26371131744	0
1	2776	134158.656327657637	0
1	2785	134577.916923944021	0
1	2802	135165.089688694421	0
1	2810	135461.341001554524	187.40790503734
1	2819	136443.701665948812	0
1	2827	136810.819506739533	107.5616498609
1	2848	137782.481757566308	159.9687606952
1	2878	139000.781460975118	29.531709855493
1	2886	139328.754179492042	165.66934738149
1	2906	139957.528732496162	239.45736535204
1	2915	140303.236269183851	21.701027751015
1	2946	142314.78673840446	23.528023684128
1	2954	142814.131577949263	0
1	2983	143718.301335593709	138.96005129805
1	2991	144090.720569343427	384.7303317826
1	3005	144746.636925016361	197.01139093698
1	3058	149612.257757756053	0
1	3080	154593.409061920425	0
1	3091	156565.544163029276	0
1	3099	157234.396343851365	0
1	3111	157554.92147911653	146.67079297313
1	3124	158165.128265977821	56.343424841472
1	3146	160342.511728780852	6.509744176752
1	3163	160978.264914048994	204.96815394246
1	3174	161245.319266493222	3.585576263306
1	3188	161873.804695200233	231.16504810185
1	3202	162856.727808245678	0
1	3210	163217.202761046862	275.46686323314
1	3222	163579.720784485971	103.89375750217
1	3260	165037.697390369992	101.66803063974
1	3269	165581.666892246336	0
1	3277	165936.040634252379	0
1	3311	167129.538842339763	8.000440696085
1	3319	167471.123723416081	0
1	3353	169197.346848002409	0
1	3362	169538.190592866543	0
1	3379	170342.708752436323	0
1	3387	170656.555813838429	224.0092316886
1	3404	171602.298177171939	0
1	3413	171969.459375696315	0
1	3427	172248.326662789701	273.51625837741
1	3438	172542.932153255316	102.2597439092
1	3447	172863.41427165969	358.50368783861
1	3452	173222.201479945921	617.52981381464
1	3491	174824.063504869256	105.2359053159
1	3527	175972.669765346202	264.5202134413
1	3555	177217.936992251029	21.374058927882
1	3566	177523.142006720404	274.70193134813
1	3571	177900.345341999013	482.1462556329
1	3589	178930.059176138372	0
1	3597	179515.422707852018	0
1	3609	179838.327332175484	318.68162171503
1	3634	180807.699225872056	164.93938442361
1	3665	182226.82922305626	0
1	3693	183450.205853169271	77.640022357425
1	3707	184602.95480758249	0
1	3724	185552.293332208404	140.6178498221
1	3739	185882.112624918148	289.42907430219
1	3747	186169.448663689308	381.30804236134
1	3759	186492.974228380145	700.06826491925
1	3767	186792.488048104593	744.81272964075
1	3772	187103.027355357992	723.47596985689
1	3778	187394.914758745595	616.30731525214
1	3800	188306.815181430086	0
1	3811	188638.364293814151	296.00588309215
1	3825	188995.271723026465	354.70322825782
1	3834	189293.978114219831	389.34799523025
1	3845	189571.745308371418	136.21300228165
1	3885	190788.789499317793	322.82162796772
1	3896	191144.610990679045	583.36916845313
1	3901	191469.072996551676	703.30288201931
1	3916	191780.32224848849	774.81584852329
1	3927	192101.824384409767	530.49183212894
1	3935	192448.98211368956	795.89976683855
1	3944	192731.632438742249	486.63358690107
1	3971	193896.56111782624	165.68496525264
1	3988	194530.157317990414	134.49656930813
1	3999	194801.410733176586	224.61407165418
1	4033	195696.809767165884	261.04632398581
1	4039	196019.143764563931	462.55478946028
1	4052	196624.776714755515	109.3179632605
1	4077	197539.89751008517	66.551816564078
1	4108	198715.197655344745	272.92988260693
1	4125	199334.959477595936	95.680197968496
1	4141	199939.525621119154	100.5204907194
1	4155	200611.154498537773	89.735211183363
1	4166	200921.572743705087	285.91767669506
1	4180	201480.393046280206	212.26070758918
1	4202	202380.83570044337	236.58973737688
1	4227	203301.810552058504	293.11274206591
1	4310	207504.536951124097	0
1	4318	207743.78611434453	73.192262195772
1	4329	210367.402205511079	0
1	4357	211224.082687747523	118.36098907284
1	4363	211551.64671494335	327.60086348954
1	4372	212580.165553116931	0
1	4380	212935.932911193619	0
1	4432	216299.301641177447	0
1	4441	216887.935077237745	0
1	4451	218132.856764033573	0
1	4459	218461.073073923195	0
1	4467	218786.235139952526	178.96221892515
1	4479	219134.80147374973	337.0102700439
1	4487	219493.380581100534	432.88337227207
1	4509	220653.250497407459	0
1	4526	221470.059500814767	0
1	4546	222026.263940502379	48.463239033602
1	4557	222329.075272178131	87.444184116611
1	4602	224574.684709692529	42.120484599904
1	4611	225101.635179127918	0
1	4636	226462.244918532465	0
1	4645	226736.87761559626	100.82276568977
1	4653	227023.247609251303	186.26053219447
1	4673	227896.707231008251	132.8656479471
1	4687	228452.335337374977	116.30099147287
1	4704	229514.137840675399	196.2814532222
1	4738	230986.647058040096	146.13870909716
1	4749	231282.297697576009	159.69448248466
1	4772	233337.223472160286	0
1	4781	233629.538811486377	77.74103387656
1	4789	233910.163586309623	228.80707769439
1	4814	234902.587852706177	0
1	4823	235627.822043492085	0
1	4843	236525.934418374742	189.80436915221
1	4857	237104.958590986332	158.98958256015
1	4912	240680.990671395248	156.6786916883
1	4920	241035.851146461967	453.69750561597
1	4929	241298.477114422551	303.70845748792
1	4934	241644.602771689587	577.06150480456
1	4942	241943.265417031982	19.950510593356
1	4997	247749.092916517858	0
1	5007	249070.413910476257	0
1	5016	249976.783829848151	0
1	5027	250217.662142832721	144.20850677906
1	5035	250498.496627158437	282.51829937747
1	5041	250796.953582491245	421.72044954195
1	5067	252356.102045532533	0
1	5095	253681.483781153423	3.307310970181
1	5117	254665.722249010072	0
1	5126	254967.628326812912	243.74864510173
1	5143	255867.783095864128	49.316497469891
1	5160	256898.957295391429	0
1	5186	258420.209823583753	292.85162306139
1	5202	259035.814745281163	70.559049071577
1	5211	259357.939891892327	243.3358654682
1	5220	260120.9746767548	0
1	5237	260994.088973044975	0
1	5245	261285.144937495973	283.89945643464
1	5270	262196.455040012538	13.027442896442
1	5296	263995.153512114789	0
1	5305	264518.921416885773	0
1	5319	264800.003291778841	122.43212939041
1	5347	266037.769892561441	268.74027582787
1	5355	266337.958921860576	3.00135105742
1	5363	266636.19822342431	278.30926449663
1	5392	268160.02310764074	326.38222655382
1	5406	269015.818147092667	0
1	5414	269339.238180005909	145.98603076057
1	5432	269631.831357246584	41.593309162258
1	5443	269984.00946636983	362.34933825584
1	5455	270303.984617311399	364.63853949035
1	5460	270622.840284687663	594.71745315824
1	5471	270929.032015439844	779.17874118283
1	5477	271236.843435522342	464.4627225762
1	5488	271506.979193732055	651.54600819291
1	5493	271729.114402967824	405.23323180554
1	5526	272831.857340660197	209.98860386108
1	5541	273118.896789900704	163.0136163429
1	5577	274375.789654530139	151.60598549293
1	5599	275254.185087062098	42.37551148356
1	5640	277000.587440769567	229.82211558322
1	5681	278826.402975827885	0
1	5691	279922.301374306405	0
1	5702	280236.813075742726	304.94934391066
1	5710	280550.402815673622	136.62348180707
1	5725	281479.969390087064	0
1	5736	281769.59079037268	218.70883159858
1	5744	282109.843692006621	539.23598946706
1	5750	282372.800183133182	394.36459028977
1	5792	284120.357997094811	0
1	5828	285305.922134152999	117.17139950343
1	5842	285949.044886285566	228.157464547
1	5859	287279.591025441747	186.79096084524
1	5868	287995.227949428497	0
1	5880	288314.43580623772	223.22618343027
1	5902	289772.871582311521	0
1	5923	291251.453879986635	314.67728488657
1	5931	291536.982070703643	263.4921383609
1	5948	292178.583837700957	226.71805645563
1	5956	292516.157586704855	35.168657353729
1	5968	292817.220028388696	70.443112911631
1	6004	294853.702651866405	134.64665860065
1	6036	295973.623497095989	165.07282995028
1	6044	296295.895166905215	364.78675245372
1	6052	296634.124768201584	597.03152753555
1	6061	296901.710320216907	434.25396714886
1	6066	297223.310050517718	324.90792894344
1	6080	297756.646950955614	41.422171122894
1	6088	298214.829562063108	0
1	6142	300550.597009794001	198.26750010839
1	6153	300884.858757470218	93.205605786347
1	6170	301493.753715697811	194.96081457443
1	6178	301795.411187090003	111.10310112685
1	6197	302733.753174441049	0
1	6229	304372.825065208992	280.32477761589
1	6238	304680.779212633362	380.08694452367
1	6246	304940.351194284496	318.57031601608
1	6260	305550.325115496837	32.791720257094
1	6282	306857.945931526882	0
1	6291	307471.651973649773	0
1	6327	308668.180436189741	93.307045391883
1	6341	309528.150525386586	0
1	6358	310152.771331811997	56.074581031749
1	6369	310440.649495529283	195.3923321697
1	6383	311060.482637391606	18.135527679103
1	6392	311371.131923857075	115.16185496305
1	6400	311667.654600060508	0
1	6417	312566.682705838031	0
1	6431	312943.600369603937	267.58114518415
1	6440	313260.089230163285	536.03802346384
1	6468	314182.322787887375	40.388978432774
1	6479	314488.541212817651	69.121667337493
1	6484	314744.515463371068	258.07370399925
1	6526	316223.471620478916	239.62004210928
1	6535	316618.130361230279	144.65501989664
1	6554	317209.84924610053	240.36854384279
1	6563	317535.779915003438	478.51248577003
1	6585	318383.544642730484	232.92730581835
1	6604	319334.032886683039	308.58701642619
1	6615	319593.266182630377	24.239854684788
1	6646	320488.858949745035	149.97230080876
1	6652	320790.793117727865	356.46522831361
1	6679	322054.013299771398	204.85912520007
1	6687	322337.041354252843	150.23632343437
1	6707	322874.048289542491	223.07450117369
1	6732	323740.440892116037	161.88559978793
1	6740	324043.701914282178	125.6171165605
1	6768	325415.693679981851	0
1	6779	325710.751566412527	256.55197208905
1	6791	326043.480934354595	329.94041559188
1	6799	326323.16683812352	199.32279105505
1	6824	327210.568250752778	181.12968925723
1	6838	327849.420660517	19.877350787047
1	6855	328479.667562644911	201.37883788398
1	6866	328770.354894030662	267.81851293201
1	6883	329120.052340280453	456.44690446091
1	6892	329479.931694902722	418.20039715853
1	6897	329752.883170218997	406.09977111348
1	6930	330868.607517231597	149.48529084704
1	6936	331214.066468784122	460.24803547849
1	6947	331537.077696914225	686.73103067419
1	6983	332722.006471119689	205.74835115878
1	6997	333282.195899590528	162.5032377357
1	7005	333531.285781960595	36.440987498907
1	7030	334436.836676687747	91.017290674982
1	7102	337591.342353252685	0.641455460638
1	7112	338875.376955405234	0
1	7120	339195.562622764601	128.28585493196
1	7138	340777.187349123117	0
1	7146	341275.616713602081	0
1	7155	341686.295967854008	0
1	7180	342724.392730339581	0
1	7189	343745.804379040143	0
1	7207	344116.30761856563	342.05328743429
1	7212	344351.956145069416	356.32337746551
1	7269	347471.876888341561	137.51235911449
1	7277	347722.593232139022	10.563899651904
1	7285	348034.050025842309	204.64224802347
1	7302	348652.779281889566	25.356603832838
1	7307	348928.794942109375	296.93667306284
1	7316	349584.132642838233	0
1	7325	349940.266214059644	44.318975695748
1	7345	350804.180177251832	243.46188035592
1	7359	351120.900461852427	290.4711932023
1	7370	351414.134558138969	424.4233460129
1	7376	351715.877740134747	312.00940842598
1	7392	352320.057990531251	189.71800820071
1	7420	353415.569033919179	163.00110134387
1	7431	353745.554106847149	74.689313049984
1	7467	354946.225569834112	51.488782702876
1	7517	357095.84512374876	0
1	7525	357416.039149748907	168.73441210921
1	7534	357842.942686721017	0
1	7551	358695.859064360536	0
1	7593	361886.122445514803	260.67596148786
1	7598	362131.333466809349	493.41925363256
1	7613	364025.854917634425	0
1	7622	364921.678832842253	0
1	7648	366578.601076740181	0
1	7656	366929.037468860373	190.45955443877
1	7668	367187.891803923789	238.29414358243
1	7690	368231.530040276063	30.46283581929
1	7698	368485.344951045096	46.46732436793
1	7707	369374.50275249101	0
1	7733	370031.211332613939	223.42511756662
1	7741	370358.145157613994	374.26845066993
1	7747	370662.657160029082	473.27567436
1	7803	373075.477577134665	265.25253479892
1	7811	373393.733382763791	178.18524198551
1	7833	374335.164680039663	272.75520114745
1	7842	374651.355651019085	232.58880198764
1	7850	374970.226080512458	260.41596683529
1	7859	375864.5033019633	0
1	7873	376226.190681572103	282.32378904722
1	7888	376608.022495886879	641.20981576046
1	7896	376869.328026533078	786.29729786466
1	7904	377164.753629513274	715.02072914944
1	7916	377500.491617844036	744.32588050972
1	7927	377786.841201703843	810.38292723346
1	7936	378075.049658922261	642.40870339675
1	7941	378340.423317801794	684.55147751719
1	7949	378629.817798588926	275.49686588358
1	8044	381811.588636225898	208.1099455069
1	8049	382100.434479172421	343.64539462928
1	8074	383255.887456497669	209.04928593467
1	8087	383792.698828086717	159.57851200498
1	8115	384811.174414259579	239.90133184388
1	8124	385154.441495315142	446.95490831275
1	8132	385450.135183955391	545.22928753077
1	8138	385803.746246564021	566.09302169453
1	8168	387444.301784869376	0
1	8177	387754.249581478899	0
1	8205	388608.283794226743	64.342017589319
1	8222	389247.832394541091	132.12200832016
1	8235	389800.82411716899	93.731171387428
1	8244	390176.191868202244	25.585740812219
1	8304	394159.560939702574	0
1	8325	398054.598678001834	0
1	8334	398894.733257706455	0
1	8342	399423.91208316415	0
1	8351	400092.513024703036	0
1	8360	400383.217797382295	266.52567446956
1	8395	402909.650101965198	0
1	8403	403193.929596084233	0
1	8423	403766.987830812449	210.42465036118
1	8436	404462.278180451092	0
1	8445	404880.579117836042	0
1	8491	407944.879051262252	94.761195040845
1	8505	408486.98567471806	108.90157356003
1	8514	409031.682324880053	0
1	8524	410894.804153833462	0
1	8547	412051.866651560387	31.077332268962
1	8556	412316.172780103935	48.166486017959
1	8575	413179.283709859632	31.868502190728
1	8595	414362.407736995068	178.97163978307
1	8600	414619.462589891999	333.97995419923
1	8620	415320.715342907661	126.80722135751
1	8628	415619.500618893768	47.786914316091
1	8672	418361.136423743649	274.68191161486
1	8683	418683.933320703217	512.97712197956
1	8708	419641.92211290733	257.79201690731
1	8713	419960.465536064157	545.51612249667
1	8719	420281.225759249506	736.29798772265
1	8727	420623.971482144604	94.20409927322
1	8788	425083.741877112856	0
1	8799	427152.073052428691	0
1	8818	429571.525121401045	0
1	8835	431028.925545960202	0
1	8844	431876.177421469518	0
1	8871	434371.086597396993	0
1	8880	434672.779664298703	81.358000918903
1	8896	435335.198765204901	30.903258091008
1	8905	436107.445729998684	0
1	8914	436718.753496955017	0
1	8922	437006.779949154968	108.32196545498
1	8956	438553.575330122973	0
1	8976	439487.836582688858	98.062046099325
1	8985	439785.472533227353	82.081560901434
1	8993	440037.58814788622	13.43395586225
1	9007	440307.138367816096	261.54631002043
1	9013	440613.172882614501	319.40891187437
1	9021	440906.726864441624	59.11688132635
1	9040	441810.472073100247	208.19034665412
1	9051	442067.844404708854	250.34931972403
1	9068	442722.503197675112	268.82383771595
1	9079	442996.865817081745	251.40349274969
1	9119	444306.045157082905	56.487396375094
1	9141	445265.214937118222	154.41598584523
1	9172	446538.638833466342	242.37090485228
1	9208	448584.223595264427	0
1	9217	449160.539236603445	0
1	9234	450502.523227158695	0
1	9243	451351.202068356639	0
1	9260	451911.299365017653	170.70534064068
1	9280	452987.922458715044	113.45983873561
1	9285	453322.424682714028	351.89416404033
1	9302	454169.445349510444	0
1	9311	454434.041597186295	9.650099452005
1	9330	455051.079197885251	314.04964561577
1	9345	455331.076073235958	232.02783970259
1	9350	455584.193773973726	307.7931759847
1	9355	455852.717918924687	530.63064798411
1	9380	456713.703255916149	114.42029206058
1	9434	459041.315957881475	122.52722477815
1	9461	460180.089865877716	192.80009772696
1	9470	460987.256816612528	0
1	9479	461833.032695306433	0
1	9505	463294.497437190349	0
1	9522	464134.111327418998	0
1	9539	465154.31832630923	5.20442078979
1	9566	467275.248133957661	58.868934219591
1	9585	469638.178802882728	0
1	9593	470130.150968750753	0
1	9605	470475.420243237327	270.61828472875
1	9613	470828.993170702653	22.960076280147
1	9627	471721.092948899651	0
1	9670	474478.19214502783	270.11335407504
1	9690	475393.586665540998	79.380614215512
1	9696	475697.903377856018	330.75277763128
1	9704	476428.771986742812	0
1	9722	477811.271132531416	0
1	9731	478157.563445400964	0
1	9756	479052.555916194519	48.307261732445
1	9764	479406.353254766545	0
1	9781	480052.691129896918	28.058011768796
1	9789	480360.621852794915	274.35153102917
1	9797	480636.718844535948	86.863269931551
1	9817	481351.259782221522	93.57686148758
1	9829	481646.588854569577	308.53315253706
1	9834	481938.769370746389	539.37642778405
1	9845	482262.229480948268	250.89293999685
1	9857	482550.009913764755	258.11186883971
1	9885	483518.729815643942	208.55143297461
1	9893	483796.962286325058	392.19870216289
1	9957	486164.022494710613	128.3501721281
1	9965	486454.563811933411	221.62203826086
1	9974	486733.334710846345	76.736619790151
1	9987	487300.367108540524	185.9590168358
1	10012	488234.784565409103	290.5349120462
1	10021	488479.968148506852	535.14317995201
1	10035	488767.761595928139	309.73021441978
1	10046	489054.854336094008	570.53880883999
1	10061	489381.735201651099	775.99044568693
1	10066	489628.015182279606	995.83416888004
1	10074	489900.123401162818	1013.9899772186
1	10080	490167.413975432574	1217.5734798219
1	10088	490479.219489340737	767.51521410055
1	10105	491132.623892664571	256.64209888737
1	10171	493455.160142322403	83.809683811695
1	10183	493758.479410975051	288.48851061559
1	10226	495847.075594019325	130.98432059911
1	10240	496523.328440560986	334.97325217723
1	10265	497510.056129297585	0
1	10273	497755.146937443181	183.85008884041
1	10312	500863.251867794779	257.12874683154
1	10328	503397.420481109161	0
1	10339	503654.777034078252	115.88467589872
1	10348	503950.266781266255	27.692732843919
1	10362	504828.099022943841	0
1	10379	506016.351970434107	0
1	10387	506300.762676912684	72.745824062437
1	10399	506619.829476667017	94.628401303247
1	10430	508573.37134378273	0
1	10458	509463.18799223039	215.25412459115
1	10473	511142.887334438439	0
1	10481	511427.468435204388	190.13798466082
1	10507	512841.844810361421	0
1	10516	513299.323358298606	0
1	10542	514489.687443486659	271.7477029587
1	10547	514862.726089664398	640.86070302279
1	10553	515238.161417593364	1006.3616689591
1	10596	517819.719281653626	207.15052672493
1	10610	518155.432179411941	233.98230038705
1	10619	518426.165848222597	459.89532559934
1	10624	518753.0289230011	492.37705799042
1	10632	519021.593369366095	106.69569209654
1	10652	520463.873711178048	0
1	10686	521771.739184855172	164.04383403136
1	10705	522394.536048655438	272.48002943784
1	10714	522666.515247864607	215.40481158679
1	10758	526658.115893539721	209.65508277522
1	10772	527246.071981994887	0
1	10780	527576.914357325046	0
1	10789	527872.844407694074	7.331424806102
1	10833	531616.464290615509	0
1	10843	533412.470734078167	0
1	10861	535214.058718754145	0
1	10870	535533.492085713927	162.34586912816
1	10887	536365.102846706037	0
1	10895	536725.520043376015	0
1	10904	537645.432775093327	0
1	10913	538155.982092426544	0
1	10941	539257.671110388316	64.627520476074
1	10963	540120.406095046192	274.09287097043
1	10988	541412.847563781645	167.83365975716
1	10997	541981.82460942291	0
1	11023	543546.887570468389	0
1	11044	545150.718841967964	266.41082731324
1	11058	545935.620787765523	0
1	11066	546343.676396045358	0
1	11083	547038.569249478335	0
1	11101	548476.317800652832	0
1	11135	550674.61139997957	70.345354788898
1	11154	552601.914796338825	0
1	11162	552984.181537316652	0
1	11170	553413.476748802724	0
1	11187	554021.200711343276	244.07893190116
1	11229	557018.193284260679	234.2778963398
1	11234	557325.44234117507	519.28371082929
1	11248	558001.517653289576	257.62664490237
1	11256	558314.3956122691	71.785528600913
1	11266	559836.404206699548	0
1	11300	561214.000387161681	81.503830672
1	11311	561489.030429352723	263.7019177756
1	11325	562773.165729427456	0
1	11370	566476.314162286018	0
1	11379	567203.839285286723	0
1	11387	567516.166980707314	107.36961845455
1	11397	569482.010349350826	0
1	11422	570518.348771321234	144.51789071886
1	11440	571862.777591555305	0
1	11451	572115.018465971655	60.346186658554
1	11463	572428.617192931702	320.87662268232
1	11471	572702.331079073722	567.29067749161
1	11476	572959.281612821972	654.1526680115
1	11485	573294.515225055596	83.512822596457
1	11539	576154.930882833923	188.55791570793
1	11550	576481.819030307245	154.44439853999
1	11565	576784.195950689351	278.80161168316
1	11570	577063.574209916792	547.20853972087
1	11576	577382.65864959264	641.2602798786
1	11634	580449.075998633619	0
1	11652	581745.74696678626	0
1	11662	583596.146977828698	0
1	11673	583888.051003565633	262.29674463695
1	11696	585716.172639195906	0
1	11722	587418.103235732573	0
1	11734	587741.628479270792	252.04012170235
1	11739	588060.194926691459	450.57240705963
1	11758	590249.839047500383	0
1	11777	590792.088856602499	142.20004178519
1	11800	592358.140644412893	0
1	11809	592948.778688596854	0
1	11834	594303.455279679318	0
1	11853	596256.392118977912	0
1	11870	597114.809891195663	0
1	11884	597430.577341627065	242.33816649063
1	11889	597731.245570735618	433.72221288848
1	11903	598307.678967161244	0
1	11912	599507.259647737806	0
1	11935	600364.694366025066	168.62372389002
1	11971	601829.766814555174	179.74651943345
1	11998	603929.386122422264	0
1	12009	604174.753946190155	234.22417509716
1	12023	604823.790565842431	7.230961482811
1	12031	605202.483147317064	0
1	12075	608210.079400412911	0
1	12085	610328.009014964209	0
1	12094	610851.005482145725	0
1	12111	612193.243010389619	0
1	12121	613448.826361955803	0
1	12149	614277.651934571768	35.225430817694
1	12157	614609.869618756755	333.02949092568
1	12162	614930.256483290567	553.64605249571
1	12188	616597.647300846569	0
1	12197	616934.990877326892	309.23688683656
1	12208	617249.622100203345	62.567042264767
1	12220	617589.739568330132	401.72127762602
1	12247	618847.632012488909	0
1	12290	621108.789239824335	0
1	12298	621367.169727216797	83.382751504976
1	12315	622217.28514282166	130.77773251033
1	12323	622501.062900291857	281.51145663943
1	12332	622799.082580459286	223.24414835178
1	12340	623116.819668467227	65.228963403531
1	12357	624078.548820141529	17.169015310143
1	12417	627238.899038408792	0
1	12425	627468.769113279942	31.709021723002
1	12433	627823.125480312435	0
1	12444	629553.228945975644	0
1	12452	629930.388245622861	0
1	12477	630867.176491849325	201.9263699354
1	12486	631281.845516019527	0
1	12502	632022.916366748186	0
1	12511	632348.864116668757	216.81650791623
1	12545	633839.628454001002	0
1	12570	635294.77102409844	6.360146740583
1	12587	635898.391346473466	6.904601983454
1	12614	638569.805103990925	233.54221078096
1	12637	639237.017751593206	328.99013899436
1	12645	639499.100651771488	585.49757684718
1	12654	639818.009741136072	604.80467561208
1	12659	640139.650575390672	647.04015273024
1	12664	640451.414105310308	698.1379424329
1	12673	640740.940970679198	7.841038486336
1	12690	641767.875813087134	0
1	12743	643919.838781961651	103.37165077393
1	12768	644853.18131430809	266.52054548708
1	12777	645156.023005381425	458.1513040392
1	12782	645459.307336348059	472.91331476828
1	12791	645828.195220251059	0
1	12800	646823.416654121263	0
1	12817	647631.371217317693	0
1	12851	648510.062738380738	247.77348578383
1	12856	648815.805817293964	398.0990409882
1	12864	649166.90889597649	148.01509953572
1	12921	652199.996637632525	174.12894160303
1	12938	652780.771084891602	173.1921684017
1	12946	653083.121804447997	378.5567751273
1	12951	653431.138258053209	458.93208664247
1	12960	653752.220138973695	70.796076052208
1	12969	654636.803828936385	0
1	12986	655353.420949003181	103.64497333542
1	12994	655813.412005828639	0
1	13025	656781.472476188074	255.72393635016
1	13037	657069.861901962361	294.01095999517
1	13045	657392.530061721411	369.92563480252
1	13064	658223.086254947864	91.43465915782
1	13097	659452.644112168176	302.01657025802
1	13112	659771.81441702057	527.30695345926
1	13120	660027.679948676234	265.48628275472
1	13126	660342.620225829342	382.1303898315
1	13142	660985.195433237143	144.51956514658
1	13159	661533.818143488555	95.58124893404
1	13167	661837.90600756058	131.01592201842
1	13176	662100.738417200643	188.36078162366
1	13217	663517.811770482497	204.8040041847
1	13234	664032.599221712685	94.371062982978
1	13251	664707.934768880358	43.076521064444
1	13262	664968.206434736091	71.033360189742
1	13287	665791.375520600388	264.95025339477
1	13301	666167.56876636362	452.47775155385
1	13310	666413.86081027201	523.27082976228
1	13318	666721.624439226337	830.3518241819
1	13326	667040.589033117277	971.11045420911
1	13335	667356.724355975943	902.29297186708
1	13346	667643.241696868074	345.16586152159
1	13354	667937.302635590679	568.71121125461
1	13393	669486.053470933267	31.140759874781
1	13443	671077.337428638751	117.53790680717
1	13451	671391.106544505233	120.10836363494
1	13476	672678.451744791426	208.86680556875
1	13487	672961.589016318789	51.797255224854
1	13504	673562.735046928329	244.83720685206
1	13515	673888.003599957722	464.77640663582
1	13524	674155.583048936024	591.73901743557
1	13529	674413.087638559404	457.97124470537
1	13552	675033.939992747206	229.45974050885
1	13557	675373.653700067592	473.34273148808
1	13587	676466.940946302883	161.60527548662
1	13632	677957.604849894467	290.09256303736
1	13646	678519.617422336729	5.206483664468
1	13697	681986.964104209928	0
1	13706	682895.027586723281	0
1	13714	683318.204692311077	0
1	13726	683624.398531294102	137.95017797433
1	13734	683930.255422866427	375.47246201826
1	13739	684260.011174262205	379.45963962553
1	13757	685183.172698776116	22.77510218468
1	13782	686448.755756492165	62.462958027583
1	13808	687071.257586486301	15.805292047682
1	13816	687385.367727987889	324.65371493732
1	13824	687699.065521983169	443.43641190923
1	13833	687980.709289046954	94.59005688874
1	13841	688273.456162623133	126.87360991328
1	13863	689267.688868498081	274.47932215149
1	13933	692450.844806583708	0
1	13941	692698.268356361098	75.282281217943
1	13950	692973.415228494532	253.8994491952
1	13958	693247.150175133841	39.230675887273
1	13967	694079.499641908116	0
1	13975	694363.649568358009	171.73364440424
1	14018	696854.869934006851	0
1	14027	697143.714671715746	160.95033311792
1	14052	698271.922278641083	0
1	14078	700492.476644463379	216.0603924038
1	14096	701708.323360519223	0
1	14104	702015.651373399635	238.67593214768
1	14141	706374.013968006934	0
1	14150	706693.218342532702	0
1	14159	707671.750407383128	0
1	14168	708429.209618702601	0
1	14177	709200.719799711424	0
1	14202	710287.767353606441	0
1	14227	711567.827792537874	54.726370586266
1	14236	712057.89792279971	0
1	14247	712434.318648185659	86.425553672872
1	14291	715371.338837547398	237.83062970003
1	14305	716060.971619384244	0
1	14313	716403.939466531014	0
1	14321	716674.417396773318	60.024388777647
1	14330	717010.758119190332	199.10893826933
1	14339	718126.034071764166	0
1	14364	719199.625969686859	0
1	14381	719806.356791048325	9.794129075288
1	14395	720057.146407554132	221.00839547704
1	14412	720646.581803624357	229.69679468031
1	14420	720928.647004344485	305.19313605102
1	14442	721840.710736594705	281.23952453423
1	14451	722132.839613757561	362.01260215653
1	14459	722399.767157221692	116.44272087705
1	14490	723702.255641505159	0
1	14504	724063.827239284629	177.05599285294
1	14512	724364.875589127459	443.02057958735
1	14529	724951.132109655767	221.85773065314
1	14601	730057.032790344237	0
1	14609	730306.222840169123	129.3548765833
1	14618	730601.629274111031	177.56443286135
1	14627	731364.6593800328	0
1	14635	731677.146086644798	197.43999913873
1	14643	731971.801505350035	17.080718016741
1	14661	733279.787638808923	0
1	14672	733566.10922456851	182.45244227407
1	14683	733840.379599789706	294.3744609017
1	14728	735712.653261128133	196.87522660768
1	14745	736699.892787350599	0
1	14764	737264.911079095767	152.4867281019
1	14773	737538.881665955509	200.89749240656
1	14786	738171.344529795405	216.16866717952
1	14807	739097.185029509824	87.86280578193
1	14821	739418.27880720634	347.86177183539
1	14826	739692.3114479617	479.61921589941
1	14832	740034.164279966384	619.52003844201
1	14840	740371.331761759635	276.9849235667
1	14868	741256.014083632419	194.22198997189
1	14876	741566.528132212193	167.20929181799
1	14902	742489.367179438356	192.00402748746
1	14916	742770.13372079432	238.29071743713
1	14960	744682.898233694128	238.4802710267
1	14996	746401.231654062595	64.888306802788
1	15014	747671.90193105475	89.316261100288
1	15022	748199.791772973349	0
1	15031	748740.381115275594	0
1	15049	750693.515637316043	0
1	15074	751577.58151346813	264.85865120842
1	15092	753233.708671495046	0
1	15110	754549.522481427997	0
1	15126	755110.212253873266	9.635952684935
1	15135	755445.827338743482	0
1	15155	756779.991202278196	265.13304935138
1	15164	757089.000826857774	476.25260870015
1	15169	757416.93943941297	475.88297991392
1	15229	761069.814486633938	249.29731005598
1	15238	761566.561023716884	0
1	15248	763002.164929051438	0
1	15256	763662.982396701687	0
1	15291	765798.771129495972	0
1	15299	766192.309381026692	0
1	15308	766495.663746606319	283.5164398018
1	15352	770235.654660447853	0
[...]
7	13146	661255.049069377108	6
7	13150	661326.868128163236	5
7	13165	661837.90600756058	6
7	13174	662100.738417200643	7
7	13178	662240.587114776033	6
7	13182	662388.839077837783	7
7	13191	662711.030679998908	6
7	13200	663036.828444165183	5
7	13203	663158.28206900828	4
7	13219	663725.180858193123	3
7	13223	663733.746952337674	4
7	13237	664372.883017544511	5
7	13241	664560.2159844689	4
7	13253	664749.22238958983	3
7	13260	664968.206434736091	4
7	13264	665132.496208905466	3
7	13268	665258.769595588042	4
7	13299	666167.56876636362	5
7	13303	666269.035994790089	4
7	13308	666413.86081027201	5
7	13316	666721.624439226337	6
7	13320	666969.523739608733	5
7	13324	667040.589033117277	6
7	13333	667356.724355975943	7
7	13340	667561.473690858823	6
7	13344	667643.241696868074	7
7	13348	667808.254133962386	6
7	13352	667937.302635590679	7
7	13358	668308.681435856954	8
7	13367	668781.213593862316	7
7	13376	669154.426450398358	6
7	13384	669351.677482867832	5
7	13396	669702.551720370183	6
7	13406	670105.40581649465	5
7	13414	670391.051068029996	4
7	13417	670571.844602110036	3
7	13426	670715.119319826547	2
7	13429	670750.612160530489	1
7	13449	671391.106544505233	2
7	13455	671734.872876084355	3
7	13478	672843.398027471288	2
7	13485	672961.589016318789	3
7	13491	673285.911284322966	4
7	13509	673656.337317233698	3
7	13513	673888.003599957722	4
7	13522	674155.583048936024	5
7	13527	674413.087638559404	6
7	13531	674423.077480818829	5
7	13535	674700.993874611221	6
7	13546	674982.338175049061	5
7	13555	675373.653700067592	6
7	13560	675651.524937069895	7
7	13564	675663.909183957948	6
7	13581	676408.175469738646	5
7	13591	676740.089509438318	6
7	13595	676952.046521627362	5
7	13609	677491.326909148206	4
7	13612	677525.392814412181	3
7	13615	677637.340722181182	2
7	13623	677659.733596732078	1
7	13635	678207.734826538187	2
7	13649	678825.702273434537	3
7	13664	679719.628047258324	2
7	13677	680979.017064647103	1
7	13682	681097.911745178142	0
7	13700	682268.337249219874	1
7	13709	683225.137058850176	2
7	13724	683624.398531294102	3
7	13732	683930.255422866427	4
7	13737	684260.011174262205	5
7	13743	684528.546176770199	6
7	13745	684895.256690747382	5
7	13760	685531.233826428777	6
7	13762	685880.773609487419	5
7	13768	686149.72161205591	4
7	13785	686780.238475265343	5
7	13787	686782.779659992743	4
7	13793	686861.218329703329	3
7	13796	687025.207716795519	2
7	13814	687385.367727987889	3
7	13818	687673.611281714588	2
7	13822	687699.065521983169	3
7	13831	687980.709289046954	4
7	13839	688273.456162623133	5
7	13845	688628.949722115415	6
7	13857	689215.018810826691	5
7	13867	689502.256439648591	6
7	13876	689897.381684757667	5
7	13888	690710.908120078877	4
7	13893	690912.807545578953	3
7	13896	690986.831285888457	2
7	13913	691692.439405567598	1
7	13918	691883.379503564337	0
7	13939	692698.268356361098	1
7	13948	692973.415228494532	2
7	13956	693247.150175133841	3
7	13961	693538.058848696031	4
7	13973	694363.649568358009	5
7	13979	694737.834411365255	6
7	13981	695081.098113029088	5
7	13990	695855.162519271712	4
7	13995	695939.079079331639	3
7	13998	696107.657445071646	2
7	14025	697143.714671715746	3
7	14030	697390.00670360043	4
7	14032	697401.139769311353	3
7	14037	697608.580224041124	2
7	14055	698545.584692379121	3
7	14058	699519.466099055323	2
7	14067	700165.698741829289	1
7	14082	700827.205259581553	2
7	14084	701259.130311867756	1
7	14102	702015.651373399635	2
7	14108	702347.05916047406	3
7	14111	703588.716151988252	2
7	14121	704981.374929105305	1
7	14129	705342.543473947926	0
7	14145	706688.730952618514	1
7	14153	707038.444514704915	2
7	14162	707943.752086677814	3
7	14171	708730.811920679389	4
7	14179	709381.729794955295	3
7	14183	709503.40406704448	4
7	14191	709964.019758630754	3
7	14205	710573.867270324971	4
7	14208	710921.561390608643	3
7	14216	711257.024833774823	2
7	14231	711866.7149911921	3
7	14238	712129.972275938373	2
7	14245	712434.318648185659	3
7	14250	712666.700517540187	2
7	14254	712680.868500165243	3
7	14268	714757.550726079136	2
7	14273	714849.3387747894	1
7	14285	715302.899760213837	0
7	14294	715660.534520370002	1
7	14308	716363.168707875457	2
7	14319	716674.417396773318	3
7	14328	717010.758119190332	4
7	14333	717267.401740547296	5
7	14341	718138.341569186685	4
7	14345	718467.21210448809	5
7	14353	718899.308238727987	4
7	14366	719232.732702973033	3
7	14371	719502.108363862556	4
7	14386	719894.577064743005	3
7	14389	719897.13558996268	2
7	14393	720057.146407554132	3
7	14399	720332.592243968323	4
7	14414	720912.356867825202	3
7	14418	720928.647004344485	4
7	14424	721216.83957807419	5
7	14444	721877.690566733037	4
7	14449	722132.839613757561	5
7	14457	722399.767157221692	6
7	14462	722648.841309536016	7
7	14470	722990.672721458639	6
7	14475	723045.837869497824	5
7	14492	723734.948489203907	4
7	14502	724063.827239284629	5
7	14506	724226.31736744717	4
7	14510	724364.875589127459	5
7	14516	724669.323395390792	6
7	14520	724701.494101271467	5
7	14531	725195.279596163337	4
7	14535	725268.096759041278	5
7	14545	725596.976939918549	4
7	14562	726928.828628449678	3
7	14568	727102.608099330079	2
7	14579	727704.774581595893	1
7	14588	728035.705863527396	0
7	14607	730306.222840169123	1
7	14616	730601.629274111031	2
7	14621	730932.167176000568	3
7	14633	731677.146086644798	4
7	14641	731971.801505350035	5
7	14647	732307.195276230131	6
7	14649	732888.026572322681	5
7	14670	733566.10922456851	6
7	14674	733670.17045983178	5
7	14677	733670.63061760247	4
7	14681	733840.379599789706	5
7	14687	734103.265265959869	6
7	14691	734333.91329985685	5
7	14699	734603.443193728448	4
7	14713	735344.57341766345	3
7	14731	735995.088908649494	4
7	14733	736029.236660160807	3
7	14747	736835.041216038788	2
7	14751	736969.93155171513	3
7	14755	737062.239656722617	2
7	14771	737538.881665955509	3
7	14776	737842.133426402834	4
7	14790	738417.44148222761	5
7	14792	738786.513642399362	4
7	14812	739397.054495827207	3
7	14819	739418.27880720634	4
7	14824	739692.3114479617	5
7	14830	740034.164279966384	6
7	14838	740371.331761759635	7
7	14842	740443.100966365344	6
7	14845	740535.24006204503	5
7	14849	740700.06374429801	6
7	14853	740717.07885373177	5
7	14874	741566.528132212193	6
7	14880	741873.284951541518	7
7	14884	741975.604103084533	6
7	14895	742387.596896700328	5
7	14907	742643.881929523931	4
7	14910	742699.430501149514	3
7	14914	742770.13372079432	4
7	14919	743126.814560453195	5
7	14929	743529.616647660475	4
7	14951	744486.25283185968	3
7	14954	744616.094217677159	2
7	14964	745020.053142747569	3
7	14976	745803.233156020055	2
7	14982	745997.857873490002	1
7	14999	746696.220947168068	2
7	15002	747371.028838698489	1
7	15017	747954.984119230559	2
7	15026	748534.728046703321	3
7	15034	749070.472248932729	4
7	15036	749180.76485092599	3
7	15051	750703.548716887044	2
7	15055	750984.503733344627	3
7	15060	751199.354343835197	2
7	15078	751905.149236995962	3
7	15080	751992.961487401302	2
7	15094	753445.294395048718	1
7	15098	753467.270164075914	2
7	15112	754711.461038894796	1
7	15116	754843.674015353639	2
7	15130	755388.160389050225	3
7	15138	755717.278854073647	4
7	15141	756511.251610715722	3
7	15162	757089.000826857774	4
7	15167	757416.93943941297	5
7	15171	757719.5740619351	4
7	15175	757725.075985233222	5
7	15179	757772.502487487456	4
7	15188	758292.092004996137	3
7	15200	759491.948020042626	2
7	15209	759854.573270499412	1
7	15218	760785.118551284255	0
7	15233	761295.736425851729	1
7	15241	761839.608991994902	2
7	15251	763287.917709932447	3
7	15260	763987.745962135685	4
7	15262	764164.02000440939	3
7	15270	764464.582252831976	2
7	15279	765396.658593564456	1
7	15294	766130.631798202514	2
7	15306	766495.663746606319	3
7	15311	766768.20692821945	4
7	15313	767042.656105667856	3
7	15323	768736.697568033706	2
7	15328	768889.693587188398	1
7	15340	769511.411250342322	0
7	15358	770538.219528647692	1
7	15364	770827.700947326361	2
7	15373	771951.926113309454	3
7	15381	772326.430069699286	4
7	15390	772623.498253062418	5
7	15398	773136.884469606742	6
7	15401	773339.61560475109	5
7	15414	773732.552671571486	4
7	15417	773806.161749237419	3
7	15421	773996.997233665414	4
7	15434	774793.230304106082	3
7	15440	775059.507883978129	2
7	15460	775694.973447648734	3
7	15465	775817.347383619686	2
7	15469	776019.579902939497	3
7	15476	776581.167744662242	2
7	15491	777116.003812252827	3
7	15500	777779.111316741372	4
7	15503	778500.939046029109	3
7	15511	778644.278252347405	2
7	15523	779049.982891904627	3
7	15532	779340.742002529315	4
7	15537	779587.121151821638	5
7	15545	780267.272578258013	4
7	15558	780755.061310666286	3
7	15562	780768.596000853337	4
7	15576	781459.213032844574	5
7	15579	781915.479989541752	4
7	15587	781953.585077561964	3
7	15598	782270.57014055908	2
7	15602	782556.783335417029	3
7	15611	782828.218272425769	4
7	15616	783132.569817787003	5
7	15625	783439.577219134747	4
7	15637	783888.157885209643	3
7	15652	784347.016152269836	4
7	15658	784596.937096079554	5
7	15663	784925.054112371582	6
7	15667	784935.669128859727	5
7	15676	785450.383213537869	4
7	15679	785474.347461552196	3
7	15696	786050.204940419588	4
7	15713	787193.534533805121	3
7	15717	787211.288551083576	4
7	15724	787525.707556389429	3
7	15728	787537.381000926811	4
7	15732	787775.279003796507	3
7	15737	787861.873881368285	4
7	15750	788469.263235399484	5
7	15771	789076.30322609462	4
7	15775	789377.243863803519	5
7	15781	789671.840948195859	6
7	15785	789833.987976638194	5
7	15793	790134.495403670199	4
7	15805	790580.678037498268	3
7	15814	791609.980549948191	2
7	15827	792050.393496165154	1
7	15832	792305.089881587248	2
7	15839	792661.655397908126	1
7	15854	793311.525886664797	2
7	15867	795043.995117072376	3
7	15871	795151.402844063795	2
7	15875	795315.694854500347	3
7	15894	795805.270338237008	2
7	15901	795942.90724396699	3
7	15906	796217.519868958707	4
7	15912	796509.018359181765	5
7	15917	796821.265260322874	6
7	15925	797425.744568246571	5
7	15930	797602.873124574578	4
7	15954	798318.297309005985	5
7	15958	798329.729719677363	4
7	15962	798539.093885576714	5
7	15969	798635.704703113949	4
7	15976	798835.399597697023	5
7	15982	799168.308801678885	6
7	15986	799186.709062850753	5
7	15990	799501.420912244218	6
7	15994	799631.78273919574	5
7	16021	800699.599520636332	6
7	16025	800861.013602301724	5
7	16028	800955.694875426533	4
7	16032	801038.538887668467	5
7	16050	801692.498303712423	4
7	16057	801938.892818785055	5
7	16061	801953.176300265122	4
7	16064	802230.611088314208	3
7	16068	802243.288454424273	4
7	16092	803473.408704478822	3
7	16097	803645.459695371059	2
7	16110	804976.582388856265	1
7	16115	805263.163118284906	0
7	16140	807158.702259597721	1
7	16148	807453.020836803647	2
7	16154	807810.692747135381	3
7	16159	808113.721437268084	4
7	16168	808840.801362402608	5
7	16171	809783.161427761467	4
7	16176	809847.671698656851	3
7	16188	810786.775691073941	2
7	16197	811061.546027141864	1
7	16205	811306.499622590925	0
7	16209	811356.26507310838	1
7	16228	812546.922590431249	2
7	16240	812928.19642688083	3
7	16248	813259.907770754046	4
7	16254	813589.973872178235	5
7	16256	813980.755022165921	4
7	16265	815101.120392544596	3
7	16274	815665.842303641892	2
7	16279	815700.939200453312	1
7	16291	816601.613418201253	0
7	16309	817407.325556984566	1
7	16314	817701.196636315779	2
7	16323	817972.556751067691	3
7	16334	818562.423656724456	4
7	16343	818876.692993703073	5
7	16351	819185.052394528725	6
7	16360	819505.195380685443	7
7	16365	819835.586309716191	8
7	16367	820100.992297866527	7
7	16372	820227.245557847827	6
7	16376	820314.737610380917	5
7	16397	821138.081234994265	4
7	16405	821482.378503315034	5
7	16412	821582.321625220393	4
7	16418	821751.734330378775	3
7	16422	821766.858154194017	4
7	16428	822041.825698250468	5
7	16432	822153.695763217534	4
7	16436	822337.47609208836	5
7	16451	822998.676846785213	4
7	16474	824183.217136237275	5
7	16476	824341.06835934994	4
7	16481	824426.292084686028	3
7	16493	824908.755083617186	2
7	16498	825063.988594724327	1
7	16520	826426.588904277798	2
7	16525	826731.169982877231	3
7	16527	827013.300014080064	2
7	16538	828913.570846148589	1
7	16552	829566.634603431861	2
7	16555	829781.961026679605	1
7	16572	830432.114522335412	2
7	16581	830761.727679900133	3
7	16586	831024.798829248792	4
7	16595	832407.623258862352	3
7	16599	832552.872994019805	4
7	16606	833019.493812747772	3
7	16611	833084.363430508318	2
7	16623	833582.944279620904	1
7	16632	833883.5943745274	2
7	16646	834739.301213851956	3
7	16655	835358.114565235297	4
7	16657	835388.131804212141	3
7	16666	836077.157815636546	2
7	16684	836811.248094416738	3
7	16689	837142.244684131598	4
7	16692	837505.782215405621	3
7	16705	837987.689274172848	2
7	16709	838166.18493673526	3
7	16726	838794.364041720875	4
7	16731	839090.539518967778	5
7	16734	839128.313390642329	4
7	16750	839823.514931171114	3
7	16755	840011.259709099537	4
7	16760	840300.011572280627	5
7	16772	840808.352886669469	4
7	16776	840910.544401401865	3
7	16780	841094.25550254204	4
7	16793	841875.684035206981	3
7	16802	842738.250273738909	2
7	16807	842982.768320788422	1
7	16819	844045.260318794849	0
7	16837	844763.119654923265	1
7	16842	845051.969021464263	2
7	16852	846404.170566071512	3
7	16864	846876.583795554291	4
7	16869	847156.583435785938	5
7	16876	847317.801667211698	4
7	16879	847333.647671286283	3
7	16886	847475.928198719198	4
7	16895	847773.677760882483	5
7	16900	848057.29374783994	6
7	16910	848609.331880969514	5
7	16921	849320.246643112177	4
7	16935	849865.517256008399	3
7	16939	849940.787543385001	4
7	16946	850134.975143790492	3
7	16955	850312.275078742201	2
7	16959	850571.152529762586	3
7	16963	850714.102092991977	2
7	16987	851970.303379444732	3
7	16990	853064.39551946198	2
7	16998	853554.459057242025	1
7	17017	854689.01246862619	2
7	17021	854832.367344334528	1
7	17025	854985.989794708145	2
7	17042	855561.316920822904	3
7	17050	855893.369275967612	4
7	17056	856268.558928087805	5
7	17068	857385.40520270111	6
7	17072	857430.698847075514	5
7	17075	857531.740643859598	4
7	17078	857581.852518727725	3
7	17082	857633.676425328108	4
7	17092	857987.285545417541	3
7	17114	858839.076100632389	2
7	17118	859145.902392470767	3
7	17126	859779.505306788531	2
7	17134	860019.766940918802	1
7	17143	860373.370254637714	2
7	17151	861212.96022839518	1
7	17167	862746.230127248658	2
7	17170	863230.486381272743	1
7	17186	865458.605516040381	2
7	17194	866036.255279033264	1
7	17201	866215.440326365735	2
7	17207	866522.367370222395	3
7	17221	867550.844012200642	4
7	17229	868191.610716152653	3
7	17233	868346.511409120609	4
7	17241	869051.283524129086	3
7	17249	869464.347061911794	2
7	17264	870313.684326799528	3
7	17266	870548.035768453842	2
7	17281	871387.574828243156	3
7	17283	871568.723094485205	2
7	17298	872175.787833176491	3
7	17307	872646.845045376433	4
7	17314	873092.778418952612	3
7	17322	873329.785037090405	4
7	17327	873616.463322212319	5
7	17335	874253.516478753586	4
7	17348	875027.530595480094	3
7	17353	875068.247827351011	4
7	17357	875346.106321900853	3
7	17373	875878.349154388396	2
7	17378	875983.594492409399	3
7	17385	876371.217593840735	2
7	17395	877630.168535730831	1
7	17404	878485.642125619483	0
7	17419	879801.93588338771	1
7	17432	881446.695428174994	2
7	17437	881788.540065209676	3
7	17440	881974.512344846333	2
7	17455	883023.160382103995	3
7	17467	884138.004672072068	4
7	17471	884179.024518108182	3
7	17479	884450.990993334977	4
7	17483	884595.481227943725	3
7	17487	884725.662746553734	4
7	17500	885611.125210195748	3
7	17515	886252.316802316248	4
7	17518	887062.229700809866	3
7	17523	887249.976435369325	2
7	17534	887696.389400049296	1
7	17550	888791.424621438183	2
7	17552	889094.002046705039	1
7	17567	889722.943513998129	2
7	17579	890696.291790321192	3
7	17587	890976.745633441505	4
7	17592	891283.458651095113	5
7	17595	891711.582664723474	4
7	17604	892183.343740026658	3
7	17619	893096.65012082477	4
7	17621	893631.304710819394	3
7	17635	893903.463019707459	2
7	17638	893945.809343907326	1
7	17642	894198.435309140818	2
7	17656	894785.842038922432	3
7	17675	895428.815445880045	4
7	17681	895708.946342297556	5
7	17686	896003.708697154713	6
7	17688	896215.284201660049	5
7	17702	896915.759746083117	4
7	17706	897189.129871526461	5
7	17714	897580.781876908918	4
7	17722	897677.792666057185	3
7	17732	898171.507258768247	4
7	17744	898553.439821935286	3
7	17747	898649.154237956585	2
7	17751	898873.195438220585	3
7	17765	900208.161486484856	2
7	17779	900799.354174005332	1
7	17783	900859.908995964914	2
7	17790	901444.871516594381	1
7	17806	902528.941895843628	2
7	17814	903669.122656306097	1
7	17818	903884.597016743081	2
7	17835	904666.126260614414	3
7	17840	904956.552375749651	4
7	17848	905499.093374603665	3
7	17852	905799.289859669956	4
7	17860	906295.766544077841	3
7	17874	906943.795063798537	2
7	17878	906984.756357092437	3
7	17886	908168.725039678787	2
7	17904	908789.4088467085	3
7	17908	908945.179162705112	2
7	17912	909085.134655565277	3
7	17932	909715.865850422409	4
7	17937	909999.73191779564	5
7	17941	910001.600219907882	4
7	17946	910331.370980966927	5
7	17959	911646.27891021036	4
7	17970	911911.913993622299	5
7	17977	911948.426420353138	4
7	17981	912163.516874925695	5
7	17985	912387.540280104614	4
7	17992	912519.072932833298	5
7	17996	912668.046593311679	4
7	18001	912805.401825356134	5
7	18006	913098.522580336753	6
7	18010	913294.097176995008	5
7	18032	914165.239285499725	4
7	18041	914381.773988053158	3
7	18045	914603.906507435499	4
7	18049	914690.720490486582	3
7	18061	915189.74690947911	4
7	18074	915522.071781935378	3
7	18077	915777.45897301734	2
7	18081	915815.275743387453	3
7	18101	916364.815074613159	4
7	18106	916661.759838001397	5
7	18115	916948.496722605359	6
7	18119	917138.143140611681	5
7	18123	917276.221662073227	6
7	18137	917837.935050086915	7
7	18141	917919.436466128706	6
7	18153	918447.055256536983	7
7	18158	918720.535522410076	6
7	18176	919436.367701774409	5
7	18179	919441.442608466416	4
7	18182	919483.113696942277	3
7	18191	919843.431372485653	2
7	18215	920493.517766763773	3
7	18219	920623.996829219443	2
7	18223	920818.224920372674	3
7	18228	921136.071870899878	4
7	18238	921569.786386938855	3
7	18264	922800.324702524516	4
7	18276	923167.203537871271	5
7	18280	923385.404730007491	4
7	18287	923482.10139875526	5
7	18293	923792.040667441272	6
7	18297	923896.763446294441	5
7	18300	923978.406085563073	4
7	18304	924076.13454778125	5
7	18328	925497.402024876357	6
7	18331	925604.726593212625	5
7	18344	926060.435727765752	4
7	18347	926209.239767769699	3
7	18352	926364.75496092517	4
7	18356	926496.853129922112	3
7	18364	926760.481267515668	2
7	18377	927379.750447219873	3
7	18381	927650.108797949205	2
7	18402	928296.382225969448	3
7	18407	928565.180078710065	4
7	18415	928982.916886289642	3
7	18429	929559.430921070476	4
7	18440	930356.037000059782	3
7	18444	930422.770401370794	4
7	18453	930762.122473950432	5
7	18457	930950.685726662641	4
7	18461	931069.158056363594	5
7	18473	931404.772838599116	4
7	18478	931678.552189552975	5
7	18491	932229.059899324371	6
7	18496	932406.669309162753	5
7	18513	933272.766984556935	4
7	18517	933440.172485450579	5
7	18521	933559.183432384852	4
7	18524	933703.204690213872	3
7	18545	934330.283900415599	4
7	18550	934627.496096495457	5
7	18557	934807.148251513579	4
7	18566	934969.469024575935	3
7	18570	935191.753619994628	4
7	18579	935697.651401036726	3
7	18600	936616.095540725926	4
7	18606	936859.186132789581	5
7	18613	937034.389726613819	4
7	18617	937246.841383998206	5
7	18621	937452.336625220035	4
7	18633	937937.435197824281	3
7	18651	938556.964987338213	4
7	18656	938869.601968541649	5
7	18665	939258.784898349624	6
7	18667	939693.246315106947	5
7	18672	939721.573285292462	4
7	18693	940550.46515885604	5
7	18697	940762.924535880345	4
7	18700	940826.592438117024	3
7	18704	940855.621176992307	4
7	18717	941377.36915828739	3
7	18721	941582.848028335875	4
7	18726	941863.849187112987	3
7	18743	943164.81252709169	2
7	18752	943515.840570912301	1
7	18757	943653.256100797277	0
7	18775	944729.269380191435	1
7	18785	946228.429730049402	2
7	18793	946773.496624983592	3
7	18796	947510.421292070636	2
7	18811	948193.405580817558	3
7	18814	948779.490600668898	2
7	18822	949376.744687515901	1
7	18837	949982.907145505545	2
