file 329267 1483635563                                          
version 2
run QueueMeasurement-55-20170105-15:37:47-4770
attr configname QueueMeasurement
attr datetime 20170105-15:37:47
attr experiment QueueMeasurement
attr inifile queueStudy.ini
attr iterationvars ""
attr iterationvars2 $repetition=55
attr measurement ""
attr network SimNetwork
attr processid 4770
attr repetition 55
attr replication #55
attr resultdir results
attr runnumber 55
attr seedset 55
param SimNetwork.a.parkingLot.parkingDelay "truncnormal(45min, 5 min)"
param SimNetwork.a.runway.landingTime "truncnormal(5min, 0.5min)"
param SimNetwork.a.runway.takeoffTime "truncnormal(5min, 0.5min)"
param SimNetwork.a.runway.throughputCheckInterval 14.256min
param SimNetwork.wg.interArrivalTime exponential(14.256min)
vector 5  SimNetwork.a.runway  landedThroughput:vector  ETV
attr source landedThroughputSignal
5	232035 20093 896 17517 50466.24 950304.96 1053 0 3 977 1715
vector 6  SimNetwork.a.runway  tookoffThroughput:vector  ETV
attr source tookoffThroughputSignal
6	252128 20093 896 17517 50466.24 950304.96 1053 0 3 971 1653
vector 7  SimNetwork.a.parkingLot  parkingOccupancy:vector  ETV
attr source parkingOccupancy
7	272221 57046 897 17504 50534.153957147301 949797.627715675577 1948 0 10 6742 29766
vector 4  SimNetwork.a.takeoffQueue  queueLength:vector  ETV
attr source queueLengthSignal
4	175099 56936 898 17515 50534.153957147301 950223.988917136655 1943 0 14 2588 10608
vector 0  SimNetwork.wg  responseTime:vector  ETV
attr source responseTimeSignal
0	1455 41893 901 17513 50692.007686013375 950223.988917136655 970 3026.8846204336 10304.063747252 4836429.5152698 25546836146.418
vector 3  SimNetwork.a.takeoffQueue  queueTime:vector  ETV
attr source queueTimeSignal
3	137935 37164 903 17515 50692.007686013375 950223.988917136655 970 0 5674.6458821417 584786.12815064 1288325755.3138
vector 2  SimNetwork.a.landingQueue  queueLength:vector  ETV
attr source queueLengthSignal
2	80835 57100 919 17490 52602.873969276256 949313.390404744786 1950 0 5 1361 1959
vector 1  SimNetwork.a.landingQueue  queueTime:vector  ETV
attr source queueTimeSignal
1	43348 37487 921 17490 52602.873969276256 949313.390404744786 975 0 1420.8754284588 154450.07831413 61435603.449288
