version 2
run QueueMeasurement-108-20170109-13:53:30-3528
attr configname QueueMeasurement
attr datetime 20170109-13:53:30
attr experiment QueueMeasurement
attr inifile queueStudy.ini
attr iterationvars ""
attr iterationvars2 $repetition=108
attr measurement ""
attr network controltower.SimNetwork
attr processid 3528
attr repetition 108
attr replication #108
attr resultdir results
attr runnumber 108
attr seedset 108
param SimNetwork.a.parkingLot.parkingDelay "truncnormal(45min, 5 min)"
param SimNetwork.a.runway.landingTime "truncnormal(5min, 0.5min)"
param SimNetwork.a.runway.takeoffTime "truncnormal(5min, 0.5min)"
param SimNetwork.a.runway.throughputCheckInterval 14.256min
param SimNetwork.wg.interArrivalTime exponential(14.256min)

vector 5  SimNetwork.a.runway  landedThroughput:vector  ETV
attr source  landedThroughputSignal
vector 6  SimNetwork.a.runway  tookoffThroughput:vector  ETV
attr source  tookoffThroughputSignal
vector 7  SimNetwork.a.parkingLot  parkingOccupancy:vector  ETV
attr source  parkingOccupancy
vector 4  SimNetwork.a.takeoffQueue  queueLength:vector  ETV
attr source  queueLengthSignal
vector 3  SimNetwork.a.takeoffQueue  queueTime:vector  ETV
attr source  queueTimeSignal
vector 2  SimNetwork.a.landingQueue  queueLength:vector  ETV
attr source  queueLengthSignal
vector 0  SimNetwork.wg  responseTime:vector  ETV
attr source  responseTimeSignal
vector 1  SimNetwork.a.landingQueue  queueTime:vector  ETV
attr source  queueTimeSignal
0	939	50924.047629743386	4468.7005074857
0	1011	53715.510473551908	6594.8581987729
0	1026	53997.732077756276	6054.0756482813
0	1036	54621.572516433824	5791.7538745908
0	1045	54906.719519232952	4127.416143592
0	1056	55203.306689205109	6131.3657948731
0	1076	55830.624030778181	4997.7970723025
0	1081	56129.005532477611	5222.9048287871
0	1086	56376.598074426012	4902.3068562491
0	1095	56676.736669717481	4644.6601719874
0	1103	56969.696864955534	5365.9273650425
0	1125	57802.684531852139	5754.056238878
0	1133	58112.2755150013	5299.2968429217
0	1148	59092.748296175087	5311.3233229276
0	1157	60150.360257542148	3427.8634667999
0	1165	60660.266958506242	5585.2735874518
0	1185	61519.350821538386	4394.282331734
0	1237	64243.084071447261	6440.3711683389
0	1253	64769.395095154917	3992.6998228023
0	1298	66310.027636652179	5045.1667913679
0	1315	66841.09593315685	4947.9493953716
0	1320	67134.946919057736	3794.8711811027
0	1331	67411.99791670928	4654.5121635426
0	1342	67987.087069833717	4434.0501560325
0	1356	68367.397924759919	4401.1428635837
0	1373	68983.376948905604	4075.4840327735
0	1379	69303.803788055797	4556.2445262176
0	1387	69623.744472138752	4613.8023950882
0	1395	69922.777356927247	4848.3427584439
0	1417	70913.96748680142	4838.5591764823
0	1434	71811.660954030876	4573.2126682121
0	1452	73098.293677206526	3395.9081618601
0	1463	73396.17959422324	5066.7444595679
0	1469	73744.467113920108	3420.1261572087
0	1503	75886.40285570165	4971.9905547304
0	1515	76675.261902616726	4199.2094750198
0	1549	77862.798502807866	3979.1424202425
0	1554	78142.336494679873	3919.5365826573
0	1594	79880.844701502254	3006.4912074775
0	1599	80171.878391611266	5042.5872785921
0	1605	80454.870204534987	3914.9179960222
0	1633	81774.100078009762	4549.5394035649
0	1650	82576.49803581647	3495.0404048587
0	1661	82876.517720279325	4612.5813748775
0	1692	84053.861180817983	4925.7539053108
0	1700	84351.699281733637	3474.8817290921
0	1742	85769.917125620045	4699.51298237
0	1750	86077.280381551289	4535.0446425797
0	1767	86659.239822809321	3785.773844083
0	1778	86928.591555300681	4290.4045640694
0	1823	88423.380153268706	4982.6782777755
0	1828	88753.093705266473	4548.1417490168
0	1834	89067.792208890854	4383.9650132017
0	1842	89385.466219115063	4765.7871341045
0	1850	89701.992599425767	4914.2981529595
0	1856	89995.753218868446	4068.7977120071
0	1870	90499.707259701294	3453.4225371996
0	1884	91206.516045450287	4534.4909177789
0	1890	91533.781593532772	4286.9923830214
0	1908	93634.939672683268	6133.3441135358
0	1959	96129.167771074816	5753.6191583368
0	1968	96842.615327198567	2917.9534635017
0	1988	97594.701019448008	5030.5916181766
0	1996	97867.411658205694	3705.6470842855
0	2004	98124.540939537742	3786.1717549164
0	2021	99080.037561842637	4096.2309420137
0	2044	100244.658132294555	4735.2208474335
0	2076	101922.671710667142	4994.7296623721
0	2098	102874.32751561344	4814.6501499813
0	2103	103109.686764058213	4105.3636204648
0	2123	104263.559855197412	3189.6233793531
0	2140	104892.306026630513	5286.738007887
0	2148	105202.591683912455	4005.3976502214
0	2163	106170.351857031843	4452.5070298395
0	2172	106921.619727049841	5175.3610822455
0	2188	107638.731436090464	4378.886495215
0	2197	108379.776965896319	4125.7341902924
0	2215	110293.716400432213	5395.8130315777
0	2226	112612.225235767774	5604.3260720867
0	2271	116375.644875836859	6774.8580364033
0	2296	117925.137987803916	3349.4081498835
0	2305	118217.496206931937	5207.5602135139
0	2313	118526.396697758081	3858.8208799483
0	2331	120130.439724887608	3048.7116190961
0	2340	120695.179394653753	5764.4655888503
0	2349	122051.301651997629	4703.4298590996
0	2396	125462.706495381727	6663.7302504355
0	2418	126367.870333295888	4288.6151205603
0	2430	126832.283497465618	3510.559769861
0	2500	129510.06472140328	4585.060904177
0	2511	129781.447116036171	6236.5348639209
0	2517	130071.027787064035	4759.8952904608
0	2522	130342.414932672652	4867.2100436834
0	2527	130640.950350822347	3814.0588429275
0	2550	131418.723234778124	3976.1564117912
0	2555	131705.087225906868	4388.3952128416
0	2564	131985.367031905295	4603.3640446686
0	2575	132262.562571513106	4606.2767524067
0	2603	133154.148617302123	5302.9333632425
0	2732	137434.482146653838	8614.9836221968
0	2760	138333.150428840729	6301.0005625228
0	2769	138620.952629022072	7876.2426473684
0	2777	138918.009457202652	6809.0093045825
0	2791	139233.45794985031	6119.6717050037
0	2833	140623.17074163496	7491.2048041424
0	2844	140964.558857656442	8043.3996115388
0	2850	141260.637512440743	8012.6055741106
0	2855	141576.478625603679	7788.9066987384
0	2860	141838.572461707309	7943.6246475374
0	2869	142114.76425256299	8046.5864672882
0	2874	142438.815936569986	7795.4575566151
0	2879	142683.310131091311	7748.7560184049
0	2897	142950.312512186136	7768.6063305366
0	2952	145021.079968437678	8866.0961664647
0	2963	145661.386323603438	9602.6136461679
0	2971	145959.703680150169	9289.4508404771
0	2994	146571.043400684191	9376.417153811
0	2999	146847.484618993706	9109.5407912356
0	3008	147131.067415204047	7872.0194522518
0	3016	147400.721863922397	7979.3536421075
0	3021	147733.737657200208	8519.5449136503
0	3030	148006.365032814634	8005.2108036441
0	3035	148347.903309222433	4937.3504387104
0	3040	148654.066357207001	5686.1970012693
0	3046	148930.115013506128	6043.1399918584
0	3054	149222.21702412583	5467.5199753389
0	3059	149476.603931502746	5560.2161697236
0	3068	149704.834913178956	5410.0942931801
0	3081	150349.969505343519	5586.1204519564
0	3108	152939.761635909579	7201.8057811189
0	3122	153812.591400713652	4283.5341472965
0	3140	155598.780211452382	5480.2476589625
0	3149	156272.959835820408	4404.1069015838
0	3162	157663.011731430899	4913.0206757227
0	3218	160692.807205182664	6146.7233852193
0	3278	162629.863823408961	5158.7879593422
0	3286	162945.310644576966	5261.1974740441
0	3291	163222.414430327738	5348.380496276
0	3297	163520.244587902907	4622.0645492061
0	3302	163810.450898815331	4625.0808291271
0	3320	164300.037460293962	4295.7841845568
0	3342	165181.376389525889	4413.6261169314
0	3347	165447.187913538934	4554.5981886586
0	3361	165722.893355205643	4771.9637538636
0	3403	167159.004235394741	6179.793008421
0	3414	167786.526716758448	3580.8319848993
0	3419	168048.267456087862	6729.3464708554
0	3428	168606.251532049939	4042.1420669307
0	3437	169437.866427822905	3848.8766372407
0	3445	169709.217162577119	4104.2426557101
0	3456	170004.463755765223	3928.0581543118
0	3470	170620.459962856899	4434.628949932
0	3513	172967.054252326752	6092.4366372325
0	3533	174375.276980680675	4420.8950463883
0	3558	175315.870160957428	4013.7649596515
0	3573	175617.011048411021	4115.2484101375
0	3592	176504.976859151325	4332.1733191356
0	3597	176755.81622009527	4336.0092921088
0	3629	177938.632070942738	4646.7646490915
0	3642	178487.163194047275	4194.7787013552
0	3651	178847.253415397522	3444.9485594237
0	3659	179169.140832584346	4727.117151027
0	3679	180130.397130661267	4516.1914238703
0	3690	180682.572293883489	3801.5354239741
0	3699	181738.402882200258	4483.3736711798
0	3707	182090.76163297287	4226.9863500515
0	3725	183358.046301803485	4284.1468844558
0	3763	185961.313945062752	6057.2838117415
0	3780	186598.727137372559	2973.8695881524
0	3796	187242.739960381475	4693.4226459091
0	3827	188455.682786255277	4688.065219157
0	3839	189115.29518938039	4660.4080689972
0	3872	190350.152111969427	4419.6493281018
0	3877	190650.534520822423	3675.4154866088
0	3889	191054.810960575092	4559.0790403594
0	3894	191352.572493533485	4089.7466027581
0	3906	192306.239339151138	4512.0868328317
0	3915	192568.750845127552	3825.7470679346
0	3920	192878.257368692074	3664.6946330861
0	3976	197287.523218998668	3549.5499953688
0	3988	197594.500756392609	7974.8453936973
0	3998	198123.002625298713	4282.725773549
0	4014	199740.899201303328	5886.1374820566
0	4061	201488.889273550429	5065.7335147046
0	4066	201813.694076587817	5242.5611927789
0	4078	202641.929630063326	5180.1798214646
0	4084	202958.790584160552	3306.0587513556
0	4092	203568.740247479223	3817.8510666872
0	4104	203876.052619995117	4157.9153305459
0	4109	204169.087322492418	4250.0810810559
0	4173	208252.726972255192	8179.8600480205
0	4181	208515.707136293718	3887.0352077022
0	4190	208835.800182638803	3643.5304722501
0	4195	209177.411900830473	4090.5546122489
0	4203	209428.289679325755	3970.2303725346
0	4229	210818.046096176844	4453.2535518546
0	4258	212920.945538411433	5855.9706671187
0	4278	213551.737837473014	4015.9098329157
0	4329	215644.393715268612	5427.7410353527
0	4345	216317.029213294413	4320.8740079542
0	4351	216636.844175343911	4559.7340148528
0	4359	216879.841784873152	4150.5065560259
0	4367	217181.046210693425	3804.8128941026
0	4379	217421.47349153666	4013.8414565799
0	4401	218342.408070645086	4650.4191645358
0	4406	218621.63204426809	4627.1471289351
0	4418	219001.179274085377	4675.305540915
0	4449	220693.45485103682	5081.6899143121
0	4468	221415.112090108993	4022.3319677976
0	4485	222021.628332487138	4494.9746027537
0	4493	222304.280006864188	3484.5576556306
0	4516	223294.393218118565	4031.7736361547
0	4524	223785.075315077711	4383.0613317428
0	4533	224160.950914514388	3355.9322770546
0	4573	225912.541501163317	4499.4336504488
0	4611	227434.920310799294	5140.4834835626
0	4620	227729.714292914836	5093.8776829695
0	4628	228033.196963813165	3831.3052542894
0	4645	228639.604507133043	4135.1838740671
0	4665	229537.93877228866	3727.0872853488
0	4670	229858.207442753023	4524.809779634
0	4679	230188.490236296353	4098.9841676151
0	4684	230436.769385295263	4284.2852241602
0	4704	231170.217991782707	4530.4884188066
0	4726	232065.098986132645	4184.7304558133
0	4772	234532.674305646071	6091.5746463672
0	4780	234840.05484737677	4335.5648332901
0	4785	235148.110958855231	4098.806485107
0	4797	235981.10902343741	4659.8292478481
0	4806	236282.936418410802	3175.2205550125
0	4823	237221.779402019212	3845.7107168481
0	4828	237499.171565567524	4236.583093667
0	4847	239614.153031035907	5872.2597290458
0	4884	241275.756051683492	5133.3034153502
0	4914	242849.235580413881	4807.9954380597
0	4923	243237.587926161385	3425.1357609429
0	4943	244354.29562368553	4261.1214766682
0	4952	244646.518078131327	3596.2706485853
0	4957	244933.062219732575	4540.347524621
0	4965	245469.653770075008	4067.547367856
0	4991	246855.271077912295	5022.7118753734
0	5001	248805.19762351657	5124.9713352065
0	5018	249499.85811290347	3775.1824101443
0	5069	252233.842712895893	6104.0889684137
0	5087	253223.7902796474	4343.7588668919
0	5102	254118.297758035147	3705.2659803905
0	5118	254718.994016657012	5148.1563424712
0	5124	254995.346220933864	4012.9223226948
0	5129	255336.31516511788	4024.1174094624
0	5149	256152.260256664264	4574.7668719279
0	5163	257096.428713518903	4511.3885901248
0	5192	258560.808949330241	4545.4017957638
0	5197	258825.128024112953	3444.879505573
0	5218	260480.521042537376	4412.332137138
0	5240	261380.357706751616	4270.0475107493
0	5277	263355.908086638874	5476.6859263244
0	5297	264031.855240802154	4174.4960485555
0	5308	264630.796352865724	4337.3843274736
0	5323	265490.847590398295	4879.6535914345
0	5331	265794.511451974023	3839.205335268
0	5345	266377.923488359469	3977.1891130772
0	5350	266624.988468013139	4003.2006640353
0	5359	267029.745726183375	3876.5645207806
0	5416	269861.665233553003	6162.7527894616
0	5444	271464.996935669274	5687.3352036108
0	5459	272033.463869463307	3667.7630313209
0	5464	272332.880697510352	4222.1127978204
0	5475	272639.556667125641	4435.9161999606
0	5509	273899.241771342497	5101.5887447361
0	5520	274200.888241175124	4538.377926234
0	5531	274840.232169870144	5954.6196746039
0	5539	275123.20559321196	5334.568951232
0	5571	276341.659018047943	6079.8186582054
0	5581	276970.816309360755	4345.8581154843
0	5593	277288.527746436992	4783.7582218597
0	5618	278223.977873104454	5225.8978000262
0	5640	279150.239816285906	5180.891229339
0	5645	279391.610973753421	4292.4351954588
0	5654	279800.739939248189	3991.4635269691
0	5673	280417.113736100126	3321.3932554231
0	5707	281769.388509480904	5513.4711013826
0	5715	282065.646133994054	3959.5747313306
0	5724	282346.132243287072	5156.0695726662
0	5740	282978.149387887046	4788.970117538
0	5768	283936.473531761689	4122.8446243197
0	5782	284484.813586707165	3619.2702572009
0	5788	284842.939287356164	4513.2801834789
0	5804	285596.147110048894	4695.3417371288
0	5816	286451.013771548216	3711.9919487232
0	5822	286716.469757408906	4474.551417309
0	5839	287516.586585283899	4430.5397384982
0	5856	288314.31415365603	4672.6202744535
0	5874	289967.260927694662	5098.6857815563
0	5891	291400.980531811471	4677.8081090397
0	5908	292286.715277207559	4527.0145910557
0	5927	294369.12516865097	5447.0333211783
0	5935	295046.479345678569	4913.0934553431
0	5953	296286.233895766628	4578.2020074268
0	5999	299373.868964366172	6380.1779354915
0	6034	301320.695191909709	6157.5711867025
0	6042	301620.109826305576	3673.2212960616
0	6051	301965.353888815696	3828.8124758519
0	6056	302320.733376334298	3882.5947477029
0	6073	302778.243685016347	4143.8626272352
0	6084	303414.938771077694	3802.2501317483
0	6093	303725.762532481734	4435.8888667895
0	6120	306251.998341246519	6399.5229535534
0	6145	307098.958452761061	4532.0179136463
0	6150	307403.128884167989	3851.6172801964
0	6171	309434.972602493982	5239.6968979003
0	6177	309698.878047057346	3490.5483746586
0	6196	310457.690098149087	3933.725756579
0	6229	313177.103617454342	5624.1082722775
0	6240	313618.933222486891	3761.9830971542
0	6263	315532.942916294942	3272.9286048785
0	6275	315922.284150367854	5689.0780382758
0	6297	317151.609370806484	4859.5092333249
0	6306	317539.9096671869	4077.6984870188
0	6316	319203.724933121576	5235.5602783547
0	6341	320451.849538325252	4708.7507289395
0	6376	322908.879290930431	6345.1277429713
0	6385	323327.542188258802	3928.0376767193
0	6419	324847.620121812064	5101.3091068818
0	6463	326661.163577977777	4614.5847313973
0	6475	326966.598747809742	5800.8152556616
0	6503	327823.717273386825	5756.6457644522
0	6508	328132.964961848573	3974.3732808719
0	6517	328481.882878990037	3869.6249466874
0	6525	328765.007937478515	4878.5670023077
0	6536	329131.903425821512	4494.0640209726
0	6547	329723.296744965517	4976.3305455995
0	6552	330029.506032530451	5027.729040721
0	6564	330360.85584111466	4661.3246987468
0	6569	330657.691820854707	3826.3798950369
0	6612	332772.756921260446	5882.9953219894
0	6629	334212.66434725911	5147.7414086429
0	6638	334763.494145089861	3154.0278430641
0	6646	335281.942549547496	4138.1292078236
0	6655	335687.049654278171	3969.0402204631
0	6667	336524.789155870668	4481.1170977194
0	6731	339569.185858236365	6398.2227387002
0	6740	339991.033293510813	3522.9881884329
0	6755	340683.533328327244	3734.0029125447
0	6760	341004.28986745544	3530.8483360722
0	6766	341339.006408946575	3892.7893904945
0	6777	341941.521402864879	3870.6429436328
0	6786	342225.595686170105	4651.4215718317
0	6851	346099.816181781292	7115.213508096
0	6872	347397.944515631041	5259.545441722
0	6883	347673.734448372227	3431.3240142622
0	6900	348197.639252488994	4856.8623471371
0	6905	348450.683855038835	4043.7656122685
0	6913	348764.550008298951	4348.1619575431
0	6935	349581.880059752201	4820.4970690265
0	6972	350764.088582042003	5333.0032083888
0	6980	351042.868408285037	4248.9553753188
0	6997	351656.077099975215	4038.8046219393
0	7002	351934.368915821795	3283.3610858285
0	7011	352839.300269058824	4062.4095757597
0	7019	353196.929429055403	3593.9473675026
0	7028	353565.019752548586	3720.5988272294
0	7039	353922.206858055268	4290.8584814625
0	7073	357672.357141406362	6715.3561971109
0	7123	360999.776601331681	4137.8534126439
0	7142	361572.124091538946	7739.8755370463
0	7167	362764.389726828586	5873.632648904
0	7178	363140.114354023644	4085.8909139132
0	7195	363785.186449572473	4053.8733361506
0	7203	364050.278792739747	4203.4035560246
0	7217	364671.343392753619	4438.274233215
0	7231	365075.530965209928	3564.3123801187
0	7237	365406.614274650571	3987.431739286
0	7242	365731.070657744608	4916.0695256885
0	7260	367218.626144273575	5667.669254572
0	7271	367522.196312187399	4518.6502067944
0	7303	369932.160621534384	6003.7951293255
0	7320	370897.540418460926	4350.1039017473
0	7343	371762.606288414785	4271.1177042395
0	7362	372551.886917640006	4561.6115268655
0	7394	374187.847889245569	5920.5615680823
0	7405	374743.538059022882	4668.1771835597
0	7416	375235.792158504289	4131.6724661768
0	7422	375523.017774784131	3908.4024034111
0	7431	376364.649485800566	4337.9664462656
0	7447	377065.919616116681	3714.4587136619
0	7456	377711.879711216365	4183.1913721812
0	7474	379306.252984523556	5146.5603191351
0	7495	381476.871331208936	4995.7893605865
0	7518	383183.580894392691	5049.294660444
0	7547	384864.756523571901	5344.2255806973
0	7564	385521.759941928526	4299.1094073795
0	7578	386503.426745163018	4517.1645793161
0	7587	387176.020795485237	3812.0461570718
0	7607	388281.175034536023	4671.2398316592
0	7621	388830.049957147779	3989.4440542664
0	7647	390879.41035143684	5575.062327674
0	7656	391411.386210839439	3688.1315574588
0	7693	393204.59103613275	3518.8872200809
0	7699	393533.410795097053	5379.8447211452
0	7742	395307.935302337952	3313.4844829695
0	7769	396460.197300656176	6574.1298076021
0	7777	396760.385372468772	4688.2436575529
0	7786	397058.458891724244	4509.8596159672
0	7794	397365.909959825181	3712.1477530205
0	7808	397981.901347201054	4184.9918909307
0	7826	398881.414303593255	3625.832872786
0	7845	399852.50302272201	5557.7094625821
0	7853	400138.165773157467	5130.4054687705
0	7862	400435.04992342409	4684.2786096304
0	7876	402003.646268267817	4929.9933638097
0	7886	402878.935492263723	4075.2400314617
0	7895	403835.751615162918	4952.0198409119
0	7968	408275.77539424691	7879.0693720474
0	7979	408935.105865981867	4536.0059072297
0	7987	409234.038088837805	4487.4544646214
0	7995	409586.898244345372	4896.5918616916
0	8006	410165.872480164553	4983.4847649835
0	8018	411222.162167699061	5011.4421845674
0	8055	412489.441550274145	4845.6394339298
0	8068	413074.171273694132	4822.4037052814
0	8091	414056.44458701357	4601.2600869349
0	8099	414777.548193928804	3559.9405083415
0	8122	415480.873226902171	3961.1976448908
0	8133	416098.664693010121	4762.8516210531
0	8141	416460.146437086395	4107.098132981
0	8150	416806.785737294506	3764.6505506495
0	8187	418903.606208076843	5564.2575450259
0	8196	419207.360238301359	4349.6790829061
0	8247	421360.539404082748	3685.7829714222
0	8286	422829.863379193073	7619.5694528398
0	8314	423617.276446275198	5909.1198737932
0	8325	423873.379392725696	6070.476773423
0	8336	424498.443648080663	5384.0110444747
0	8344	424788.315504800822	4507.6092813508
0	8353	425132.298085952518	5036.8575823746
0	8361	425471.728363490391	4879.0762848312
0	8372	425744.177134693831	4449.1756880165
0	8397	426651.328639828848	5329.4043474814
0	8406	426908.222319143332	5542.1666265893
0	8416	427510.590520697239	4985.6215793594
0	8422	427848.614401402018	6446.658625753
0	8427	428146.572378607082	5291.1245138336
0	8452	429046.674986224502	5316.6987693759
0	8460	429362.597085285814	3829.0109430683
0	8486	431018.829591207289	5305.5346177538
0	8506	431896.630533112866	5131.8522308854
0	8512	432143.834819577028	3916.1221653781
0	8521	433435.282282252236	5181.2985161427
0	8541	434056.0280929951	3917.5791917788
0	8546	434362.326016203717	4205.2214089074
0	8590	437237.302027645963	6183.4336644744
0	8607	438493.866640297596	5005.5769055493
0	8622	438873.332331852617	3932.5208679511
0	8672	440651.823177947984	4732.5282705913
0	8697	441517.018137127921	5370.4054401605
0	8710	442083.182147164431	5560.8671745624
0	8719	442384.481765682914	3790.7346795772
0	8727	442664.935735899238	5088.5670276042
0	8735	442948.198194985069	4187.5219474508
0	8741	443214.804418270924	4175.4681911677
0	8811	445381.694320370973	5959.0585781977
0	8839	446353.546094543542	6376.158625365
0	8856	446952.808760315103	6333.5779246986
0	8864	447239.750305163317	6330.2611833973
0	8881	447803.829637867158	4427.3885771161
0	8886	448043.833055369494	6635.6989252286
0	8892	448342.596014830281	4601.85165777
0	8900	448638.502322994146	4699.0446036532
0	8908	448942.661902948847	5398.4529667062
0	8920	449258.267972992571	4934.1127538179
0	8930	449872.089411414153	5264.1718160596
0	8939	450201.702856662891	5028.3621494612
0	8944	450485.589510355589	4842.8172920721
0	8950	450839.864261894886	4791.8945749206
0	8959	452010.112189841881	4958.7701616893
0	9005	456788.825158492269	7702.3099713012
0	9013	457474.271121165035	4601.1007610953
0	9040	459407.726842252244	4794.1361757583
0	9048	459844.927616540273	4374.9808413424
0	9110	462344.711530785963	6112.5790395324
0	9115	462616.922615766921	4850.0107450301
0	9130	463288.318050937063	4511.1841471794
0	9144	463904.361781955709	3967.8218285932
0	9164	464550.300507990816	4412.0939464044
0	9172	464892.824385152049	3986.4629494404
0	9180	465225.930162590635	4303.0189949789
0	9191	465734.936623210752	4347.7499371687
0	9208	466344.130676650387	4742.8291813516
0	9225	467280.924640101878	4128.5756033881
0	9238	468921.803217895925	5238.3900568632
0	9246	469222.526471241102	4132.2560277036
0	9251	469487.24694257038	3633.8689303583
0	9323	473553.164724895524	7208.3975472017
0	9334	473848.851288880345	3433.3634369919
0	9345	474451.905263135133	4278.5653415729
0	9354	474921.902466123724	4360.9068297927
0	9369	476032.38578300217	3382.6238637126
0	9383	476572.735496153501	5065.3316574027
0	9394	476874.6821262455	4556.3806875547
0	9405	477415.82737799135	4486.671904378
0	9414	478702.425489912196	5111.8273746344
0	9432	480255.254351872135	4348.1236050186
0	9458	482358.152344745018	5585.2977337006
0	9474	483614.012838356309	4822.5364186957
0	9535	485991.385571504491	5576.5121380118
0	9547	486700.002777780514	6283.1216537269
0	9572	487597.415948361407	4166.7010425482
0	9580	487910.356626736072	4090.8790687003
0	9588	488167.927574530051	4143.9035276803
0	9597	488509.058312077038	4557.726238153
0	9625	489341.359292400028	4996.7809109578
0	9638	489976.171668953404	4950.3267117564
0	9644	490258.520909651112	5016.1264785307
0	9658	490768.138506800596	4350.4389857863
0	9694	492053.07551613115	5228.2481790308
0	9702	492411.148341438054	4129.5889197844
0	9781	494724.700468378289	6215.5577237977
0	9789	495035.709143417644	4569.022343083
0	9801	495348.483512505448	6015.1286964254
0	9843	496643.307395114876	5890.3916834621
0	9862	497520.738780767368	6353.4086148357
0	9870	497818.363342243279	6616.3462458577
0	9879	498124.423146945178	5668.4063222515
0	9892	498620.417290094118	6072.8100177059
0	9898	498935.204902241161	6455.1252845927
0	9903	499246.307513145504	6001.4291783326
0	9915	499560.255863634863	6577.7697536334
0	9926	499862.659316418665	6425.5466909911
0	10012	502771.514984806189	9259.7426058707
0	10018	503063.199217975922	7841.4111239604
0	10026	503377.276450002526	7942.6207305082
0	10049	504022.82855992527	8715.9701754605
0	10054	504292.940308903808	7741.0998689963
0	10059	504599.299487333132	7904.1203447054
0	10071	504897.487154870745	7039.4191375552
0	10082	505170.733507985543	5152.092320654
0	10099	505798.445306719253	5238.1200037122
0	10112	506354.319015235428	6777.7313289406
0	10118	506691.701076119882	6461.5095424524
0	10123	507025.091174274641	6142.7156286913
0	10129	507288.230814396203	6289.6756322999
0	10137	507520.411755641005	6278.6849813207
0	10187	509411.222233300976	7834.565592107
0	10192	509729.21040454418	7559.7847603772
0	10198	509999.407240864188	6862.5685702105
0	10206	510266.872347103314	5122.4702167577
0	10254	511749.786694035826	6082.7523324539
0	10259	512068.427185225519	4754.1089168011
0	10265	512368.531669196824	4817.1778708205
0	10273	512691.678104225329	4929.9241771073
0	10281	512983.438747400692	4482.6304499805
0	10287	513301.865639070451	4611.5200274091
0	10304	513876.395126970667	3440.6538881162
0	10323	514797.428323808824	4769.0212014991
0	10332	515084.20071506174	4437.6003897013
0	10347	516932.996593384303	3059.2106119424
0	10372	517774.503165698073	7031.1137107912
0	10400	518948.184393478766	4900.4025439944
0	10426	520251.493391531276	5401.5230402848
0	10434	520607.613603372212	3648.975966609
0	10459	521473.906066996947	3540.2969655302
0	10465	521804.891469535761	4789.7932624793
0	10487	522428.002559166756	4229.8464589464
0	10498	523019.676235988525	4151.4328198059
0	10518	523793.276911409848	3365.8812787107
0	10523	524069.697039923249	5040.9346301622
0	10541	525210.449383733019	4336.557605563
0	10549	525779.347492375744	3894.8837912142
0	10561	526592.953785502639	4241.6798049492
0	10575	527449.456591217237	4352.0012236118
0	10643	530562.715009190239	6453.1737962895
0	10663	531597.634147616858	5296.5767159174
0	10671	531871.272073505564	3975.0255758782
0	10680	532122.597589529416	3938.5080462019
0	10714	533056.188553517299	4180.2574320705
0	10747	534252.302107082599	5949.3628751379
0	10761	534838.442564126067	5442.4651164413
0	10780	535427.654947493271	5958.3559028245
0	10800	536017.123979157866	6184.6084462782
0	10825	536911.960750201935	6237.8865370888
0	10878	538781.163046259379	6745.8913059841
0	10890	539046.764906791411	6685.9121613838
0	10903	539672.490574949949	6695.9131377882
0	10909	540001.62746479453	6901.1982342092
0	10920	540387.240876695374	6989.3723472122
0	10935	540704.645204005681	6747.6744432128
0	10954	541619.164768855641	6964.0353572973
0	10965	541875.338895462194	5984.9308248516
0	10987	542809.21877872312	7510.0492273547
0	10995	543128.685604774175	6971.9503068862
0	11009	543730.756935640608	6998.8272216463
0	11018	544043.239899054826	6923.5256792731
0	11023	544389.012258945489	6899.039828694
0	11031	544656.998522433202	6918.1786449407
0	11076	546178.572977821662	8245.8217005745
0	11081	546431.689997069801	5914.653902877
0	11087	546735.820860118843	7901.3487389712
0	11092	546996.994902921927	5123.3602461455
0	11100	547322.822398754123	6805.3984257151
0	11111	547921.993454046152	5824.1328679492
0	11125	548230.747973759454	3611.7252666676
0	11148	548843.642871335073	6023.9037127093
0	11167	549755.069048191239	4853.73158348
0	11192	550585.370909717029	5607.2876754995
0	11206	551164.580017987532	5731.8391990325
0	11251	552748.396765990468	5458.7949678498
0	11265	553055.790351183366	5013.1992993239
0	11279	553645.613395144262	5067.5730119461
0	11284	553959.317523309651	4098.0555142377
0	11298	554249.509800738362	5667.9025039641
0	11358	556020.727682993542	6331.9062312653
0	11380	556908.059166871032	6434.6117235242
0	11436	558625.029624672747	7481.3959881861
0	11441	558896.246669433271	7402.4012946786
0	11452	559176.014490571334	7679.2935186139
0	11469	559821.513932274508	8143.7451302588
0	11480	560168.868614550077	7176.2529072723
0	11497	560777.247428837757	6811.4385814943
0	11505	561083.917255587255	6156.4743896329
0	11511	561414.960114761476	7162.0654965459
0	11519	561762.479239914209	7292.444188902
0	11530	562390.858233908177	6602.3941415126
0	11538	562641.906121682658	7279.8456705967
0	11544	562930.433992414022	6282.6082585896
0	11555	563274.575618819113	7363.3547806764
0	11566	563870.181236364157	7012.6377530849
0	11571	564191.457156086637	6761.0149599284
0	11576	564492.811307482184	7323.8352021645
0	11582	564726.368966611326	7285.6699385427
0	11587	565004.158296830476	6012.9984479348
0	11595	565383.758236020004	5342.9658741993
0	11622	567441.357381941144	5853.0256520897
0	11631	568209.809116978955	5246.9016103599
0	11649	570112.541969670825	4680.3015284656
0	11678	571974.993445944825	5169.0691583802
0	11713	574176.090715170813	5746.052773203
0	11721	574444.421989615689	4078.5544932872
0	11741	575146.976967021502	3794.3779404441
0	11763	576073.879505722914	4229.8531404285
0	11780	576966.385421191551	4277.271409343
0	11788	577301.740246598559	3807.7189401114
0	11802	577907.220172524166	3501.212574128
0	11811	578515.03447122705	3698.5000066315
0	11820	579362.640517890291	4215.390766526
0	11837	580194.168758002253	4409.31078031
0	11856	582793.569945269908	5803.7879795482
0	11890	584825.85992302455	5252.4043408398
0	11911	585939.257271919964	4035.7485256607
0	11931	586941.508447138944	4029.4419303394
0	11941	587621.86509247557	4154.7304329513
0	11950	588339.989793432696	4678.6490162106
0	11962	588948.086482847182	3603.0293301936
0	11977	590415.977201674168	4500.6301627954
0	12036	593000.293821981422	6315.4405046831
0	12051	594370.469679773475	5548.3216653484
0	12091	595520.149010651714	4680.4790577855
0	12096	595865.74587685935	4927.4074466435
0	12105	596197.476602870057	4350.9488978036
0	12130	597073.428185277164	4989.6056972136
0	12143	597701.250442198094	6457.2772808267
0	12160	598324.168571363182	6057.8040312709
0	12165	598607.598278423156	4074.8034800145
0	12177	598962.477447137682	4677.2896370781
0	12190	599495.306827665643	4696.1284813632
0	12196	599790.902097165393	3789.2045319812
0	12208	600587.685412687222	4199.0846141371
0	12213	600905.17343540341	4070.3284276059
0	12231	602492.376108630067	4817.2884939025
0	12261	604808.193739352306	6072.7554560357
0	12283	606375.800148048248	4453.6652137871
0	12292	607002.347583493036	3675.0600469041
0	12304	608044.910451708749	3550.6056611521
0	12310	608320.36883459199	4883.1102564666
0	12357	612187.110761816208	7325.4293829221
0	12369	612472.599915519738	3703.8785538471
0	12382	613114.976998519586	4338.1297603132
0	12388	613353.090502345243	3882.1105156877
0	12407	615862.035519583314	5544.4704112611
0	12441	618171.411096930603	5791.486340445
0	12482	620487.002507007522	6184.325092664
0	12487	620800.496701040062	4197.5305953639
0	12493	621098.065745795406	4530.0831199224
0	12505	622154.058100382556	2863.5542336215
0	12525	622885.256586200821	5819.2097006325
0	12544	623808.866823251508	4510.6839042454
0	12553	625146.792300509206	5671.4506937306
0	12566	626318.976085440559	4378.6933785663
0	12571	626598.814695199492	3864.0789676017
0	12593	631916.721919452413	9154.8099674317
0	12646	636051.501393104839	7476.8688548173
0	12658	636465.441771790848	4103.7828394449
0	12674	637152.16582722357	4385.678372953
0	12680	637467.500162416222	4087.4554511836
0	12688	638000.576726149725	3787.6000297128
0	12706	639083.399767084555	3681.395379072
0	12760	642292.870098017028	5855.0280481783
0	12766	642615.040596506451	4138.7542048404
0	12775	643280.083740521853	4122.6213661025
0	12783	643650.017634164833	3806.9168041897
0	12795	644657.714060295506	3975.4608594201
0	12809	645165.686844396334	3843.9521865657
0	12847	647841.266838574842	6296.6205101921
0	12886	649541.563640665579	5182.3194563869
0	12897	650008.721292371266	4308.7534058768
0	12903	650316.08942164072	3979.1447524901
0	12917	650886.826223436218	3680.8060958702
0	12962	652434.082550936129	4731.9842968676
0	13001	653872.18823266626	5539.9967704118
0	13024	654503.786232181267	6131.6937065778
0	13077	656341.094728256801	7496.8680264671
0	13085	656622.293778677276	5943.2911408723
0	13096	656893.356037805409	6002.1156649571
0	13102	657228.569097960576	6175.4894480659
0	13110	657469.73629679272	6167.2661548177
0	13130	658097.10174040217	5669.1243062345
0	13138	658376.93306172338	5835.7316846178
0	13147	658706.372343277637	5872.2268131624
0	13152	658982.835518376184	6108.2724266781
0	13157	659291.054637391025	5563.8585787426
0	13163	659607.824320562972	5337.404630859
0	13168	659914.696707846916	5172.767790334
0	13173	660249.86714460844	5852.2215570558
0	13182	660554.327093562861	5561.2499735641
0	13195	661161.29025567634	5592.9967357632
0	13226	664351.448763115261	3854.1872975939
0	13232	664639.69526722913	7304.8577256809
0	13241	665771.254102688902	4336.4382911832
0	13289	670040.258750681245	7881.9990095244
0	13312	671497.540679176718	4595.9961223973
0	13320	672166.073028573233	3749.7942821493
0	13329	672606.307525575289	3663.3549725589
0	13349	673795.024216714604	4777.3144908465
0	13383	675009.659807148222	5169.0757363228
0	13414	676768.610671720804	3514.287469989
0	13422	677111.123920481123	6206.4659396127
0	13431	677472.140458380811	3775.9229334814
0	13448	678264.320514065672	4033.9881461468
0	13470	679126.796040391856	5056.699795448
0	13476	679405.506723619776	4502.082734788
0	13481	679708.572270925774	4395.7692469364
0	13535	682073.122608011908	6368.2963356516
0	13540	682361.830329377983	4206.019835603
0	13552	683160.123312838567	4925.623345685
0	13589	684320.270424256668	4066.3330011068
0	13600	684682.419953020406	4183.1067351713
0	13622	685548.88514850405	5026.7425560566
0	13647	686486.719143232394	5682.7680100595
0	13777	690280.945864199109	8886.3346528968
0	13785	690572.192401928672	7721.7815329182
0	13793	690886.991742467804	7652.0396956696
0	13805	691143.550764098748	6683.8297603254
0	13858	692695.252290713865	7861.4933207248
0	13864	692993.81848063897	9277.5471038995
0	13869	693267.856769124746	7852.7463087503
0	13874	693522.709777076172	7237.4637829772
0	13880	693809.049833709901	8146.7066258021
0	13885	694098.638884728761	7564.2555541899
0	13896	694415.236044715907	7766.4122399437
0	13916	694984.247412121167	8272.151574156
0	13921	695289.57745905501	8527.921443696
0	13933	695569.878910517411	8376.3669801937
0	13949	696435.835912451358	8452.5025087567
0	13957	696775.725626256433	8436.8167905442
0	13968	697366.807006499057	10035.606788233
0	13973	697688.758229873573	9091.0941059567
0	13982	697983.170007116062	8861.7429429089
0	13987	698252.82523597926	7256.7074809369
0	13998	698554.830916489623	9243.5424256083
0	14032	699763.826334298465	8054.6106930797
0	14048	700318.687456023297	8915.1200274897
0	14070	701243.679580363186	9206.5815460826
0	14084	701861.966237390088	7741.604040594
0	14092	702123.365503755891	6817.8248937782
0	14101	702421.017422376397	7073.4432664928
0	14126	703038.814121915741	4539.0192440309
0	14154	704242.819524110409	7758.660532837
0	14165	704603.762488483426	5830.362414694
0	14176	705139.357407082135	6421.5844507692
0	14181	705432.54413510646	5741.8964508416
0	14190	705762.30001032067	5603.6879285962
0	14198	706082.974352785971	5559.0207537998
0	14218	706755.960311305333	5604.2857757881
0	14229	707007.434237993057	4068.6947247221
0	14265	708364.726993950782	6066.3119863551
0	14270	708641.272679937968	5670.2719772189
0	14278	708923.834195840305	5727.913887441
0	14295	709530.457737448103	5058.1424480171
0	14300	709852.093240159324	4017.0255688226
0	14315	710635.291089950862	3860.6739969289
0	14337	711477.784266610791	4694.5520571318
0	14346	711744.747679949503	4704.9654018405
0	14351	712058.65795781875	4494.5019177304
0	14377	713445.806123688589	4630.9135775524
0	14397	714661.059588103503	4034.9812352002
0	14419	715534.698232636824	4908.5537709895
0	14439	716482.223179019385	4261.0765205731
0	14444	716765.426384982402	3911.5439314371
0	14465	718338.108472694823	3948.6165587298
0	14490	719287.943264801497	5757.8242898843
0	14496	719588.459310016327	4675.7401057656
0	14523	721140.759475245457	5156.7413622738
0	14561	722558.64001904862	4407.4260107847
0	14572	723246.629381424332	5594.2874835165
0	14580	723623.738506302412	5255.73348049
0	14592	723977.724149293873	3480.4195319618
0	14609	724798.772855158487	3784.2688885494
0	14654	726263.673438784503	5280.2270069397
0	14662	726620.807110994626	5517.4474636321
0	14679	727193.359035177288	5497.1896638487
0	14707	728118.034451782775	5568.0659689291
0	14720	728694.298724218859	4718.5135063476
0	14729	728971.689555481189	4189.4816390226
0	14737	729272.952922554755	4469.9744417941
0	14748	729890.117345464113	4952.1186284877
0	14759	730219.304886672549	3648.6157051579
0	14765	730497.768986373709	5165.7252038937
0	14776	730994.125126521661	3993.6651714681
0	14793	731617.507771123252	4320.3443299581
0	14821	732669.233260297496	4785.8089812774
0	14849	734425.088834623198	3532.6662151056
0	14864	734769.564655594666	5729.5768862289
0	14874	735352.31892714769	3873.15233549
0	14892	735888.892080584518	3462.344364954
0	14911	736775.598741958701	5091.4572599848
0	14916	737074.688222843388	4572.9137070907
0	14933	737878.297248029171	4744.5357634921
0	14951	739269.638475875665	3555.955037442
0	14962	739551.406537612143	4783.461548536
0	14993	740862.722273344798	4766.8418690726
0	15001	741576.665183781829	4249.2781992011
0	15025	743071.021409496891	4797.9539685375
0	15039	743611.574095086429	4206.0197712283
0	15044	743899.337196864013	3956.5250277906
0	15053	744765.119484725636	4699.1290434713
0	15112	747363.248440067006	5568.2603027868
0	15121	748253.922743459954	5347.7714624555
0	15130	748592.20944266593	3369.2125658124
0	15148	749352.732354634783	3541.9145199708
0	15156	749615.416951850541	4042.9523373797
0	15183	750721.595548504716	5048.9705918062
0	15194	750993.384574508223	4869.3584405285
0	15239	753073.789776079773	6415.8286916865
0	15250	753494.953668130129	4056.0549931692
0	15262	753794.326706387015	3931.1306115028
0	15287	754701.78153559513	4657.1024057958
0	15295	754977.739902048099	4192.0443612972
0	15315	755648.302736540104	4679.9938952804
0	15329	756180.936470847331	5078.9433499209
0	15337	756450.503647655189	4300.158296325
0	15348	757012.67801926356	4654.1811978086
0	15368	758088.221838415238	4544.1070755052
0	15373	758373.24125051179	4654.2024921562
0	15401	759352.783775080544	4597.045937909
0	15407	759579.138777091354	4193.6542392435
0	15418	760340.121301118824	3927.5240775828
0	15432	761268.857294096899	3973.7755159657
0	15441	762112.50815520427	3682.5901025473
0	15484	764281.055661658534	5526.4490284466
0	15516	765689.062570868696	5359.216303121
0	15552	766904.17852811849	4495.5873870386
0	15566	767510.538353867367	4412.5996990881
0	15597	768419.668385095316	5374.7375584162
0	15614	769114.203332632416	5441.6369146849
0	15622	769409.624258862725	4962.2978216093
0	15695	771778.549243785383	7134.3575010755
0	15703	772098.953613872916	6467.3350098315
0	15712	772449.556722516092	6775.3420738607
0	15717	772748.988257625544	6557.0721895221
0	15725	773016.374935237742	5545.1998129065
0	15731	773302.283045308208	6422.3761035588
0	15742	773594.342422905605	5914.5829870556
0	15750	773922.212581030331	5613.9786134329
0	15759	774213.369123682815	4954.8706403021
0	15767	774469.929155875858	5046.2887829394
0	15781	775042.736816029709	5148.6512583941
0	15794	775670.102922577792	6236.8008166595
0	15813	776611.614912021378	6669.2044120361
0	15819	777018.307221614459	6719.2449996054
0	15827	777405.123173266931	6837.3278009208
0	15839	778367.688128562864	3981.8505762593
0	15856	779161.782713699057	3558.9819185386
0	15862	779451.4944919219	4484.231440178
0	15913	781962.788945516718	5998.9383253101
0	15928	782817.762415899672	4602.3214534785
0	15933	783114.94268846742	3648.6449359985
0	15938	783399.279694225039	3883.832169631
0	15951	784394.072855013971	4505.6308442711
0	15968	785230.947810912607	4544.5503026017
0	16002	787684.026920241795	6362.4576185058
0	16064	789860.496373925728	5479.1153784552
0	16072	790188.561375743026	4551.661408883
0	16081	790501.451312685449	5458.2259900661
0	16091	791046.265208240498	5093.0491889611
0	16109	791623.06995277189	3551.3776469803
0	16126	792264.485892839177	4757.7142846985
0	16131	792560.880330317399	4012.9965715546
0	16137	792925.409372293534	4697.560863338
0	16142	793266.963591597911	4580.4509785158
0	16151	794365.892369060308	5435.9747954877
0	16163	794749.827340121231	4519.1448852083
0	16191	798138.867774889777	6703.8537675695
0	16219	799316.457881020426	4842.0247600866
0	16247	801310.173328574833	5932.0173886139
0	16256	802245.503581703367	4396.2113988867
0	16276	802998.836899742654	4295.1721673618
0	16282	803272.539427537754	4115.0501751736
0	16290	804004.089738041506	4844.0871576247
0	16317	806384.638969658827	5604.4555664327
0	16405	809324.277027329678	6906.3185708076
0	16446	810836.651071197454	6476.8523835109
0	16452	811115.704095008706	5328.0184176917
0	16460	811363.691709025857	4824.8599225743
0	16474	811660.256023369652	5033.3233048847
0	16497	812264.948435378016	5602.5053191155
0	16519	813159.809844849447	5742.5134979391
0	16531	813459.090082816531	5941.4263685868
0	16572	814993.185882870827	8156.5187769284
0	16578	815275.596834131315	7462.806160871
0	16586	815544.410384177239	7353.647776703
0	16591	815831.784448297117	6621.3990159117
0	16600	816146.11543090228	6935.3340950668
0	16616	816760.632953893867	7370.0965878003
0	16645	817771.71102274544	8277.0157014975
0	16653	818126.275509087202	6720.8586011961
0	16658	818397.158694052254	6370.7996345328
0	16664	818695.802924557468	5453.7069329295
0	16669	818974.22870202411	6945.0332256268
0	16674	819267.74414892451	5574.4846485681
0	16680	819628.641054833676	5757.5057198285
0	16685	819922.609239272384	6030.3399545478
0	16705	820590.806393411021	4118.6689874838
0	16710	820849.314266001605	4703.2612467576
0	16753	823160.185121656698	6411.9075326517
0	16790	824727.613804823996	4737.3125674337
0	16809	825330.892490378203	3912.3062936368
0	16815	825620.422013534225	4166.9531481002
0	16823	825909.001124325977	4343.1303365294
0	16840	826634.773608035722	4047.2011983467
0	16845	826913.25207487362	3529.8297442038
0	16860	827661.060927338749	3815.0305592566
0	16871	828317.454921367101	4117.5516188408
0	16883	829257.286294162683	4675.3457341098
0	16947	831620.691281506233	5870.4254958857
0	16973	832576.555266311791	5080.3607634957
0	16987	833190.369705863587	4118.0629774248
0	16998	833495.233138345313	4167.7668456733
0	17006	833770.002652250247	4391.811358424
0	17012	834067.159452221364	4100.367835707
0	17017	834406.685226345731	4708.193968586
0	17022	834683.782625257248	4807.2345017895
0	17031	835387.337060736089	4715.6157279036
0	17043	836125.030509258905	4108.597493104
0	17090	839943.130404231513	7575.757445137
0	17099	840309.769405398049	4484.6887097991
0	17110	840852.668646790024	4679.6185213731
0	17120	842703.715448067707	6083.5204519383
0	17129	844112.22697179119	4770.1941814659
0	17174	847953.307383238255	7975.8143649538
0	17199	849242.208585106574	4742.053402644
0	17208	849574.16766114431	4509.7384676227
0	17237	851215.00548111194	4812.7455810123
0	17253	851836.169246678034	4458.5199268383
0	17259	852176.134896991852	3882.4336505902
0	17276	852881.465347621223	4298.2941550025
0	17284	853296.171768442572	3711.9827284143
0	17294	854627.167396524447	4261.3385813491
0	17305	855071.379455286541	4122.6469583784
0	17330	858391.71299709842	6184.8839300893
0	17349	861122.325408736748	6339.4335255382
0	17375	862958.893065916129	5241.4393734432
0	17406	865642.235261101959	6514.311167072
0	17411	865972.51715020775	3967.3526151127
0	17423	866646.538469214414	4497.5220536044
0	17428	866980.351862132832	3609.7758241316
0	17481	870853.016588956909	7332.7077458758
0	17540	873301.906551072008	6081.3108207198
0	17549	873642.623636316197	4293.7524743741
0	17562	874154.751327492235	4680.9837695796
0	17576	874708.802217007089	5087.0167040359
0	17581	874990.408559404788	5327.2288688059
0	17599	875367.44935654591	3607.9454208027
0	17616	876053.974627765125	4488.0542522938
0	17621	876372.052558953091	4569.9910694677
0	17629	876680.766304344296	5097.6349627405
0	17660	877827.37328407322	5806.6410059108
0	17665	878114.594564893501	4760.4188673426
0	17693	879289.085391450146	5300.2627534462
0	17699	879602.292036919605	4519.395501303
0	17719	880221.279359523814	3838.1820386807
0	17724	880577.118679658622	3656.8160925226
0	17736	881527.263153361239	4404.545149049
0	17741	881864.164428604397	3535.1732409797
0	17767	883385.322502553723	4812.0486056958
0	17794	885441.970001193581	3071.0819351627
0	17805	886003.708460154671	6368.5174094942
0	17839	887350.384359039852	4979.0455650055
0	17853	887915.130737975675	4083.0333974442
0	17877	889731.669488624435	5521.7523755408
0	17896	890335.601809141905	4445.43403457
0	17907	890941.895627835563	4771.5664314669
0	17921	891261.799607103953	4499.1122003361
0	17937	892123.821247789841	4815.1019357863
0	17957	892844.43754666312	4549.3420716919
0	17963	893160.291409331471	3532.2956177485
0	17991	894667.356691823849	4630.7428730721
0	18000	895003.974091829374	3921.6771932095
0	18005	895260.622077695972	4070.1441371503
0	18026	896950.13420980783	4666.6753451534
0	18043	897521.837647895169	3777.579423748
0	18082	899315.281669165572	5263.304522533
0	18099	899996.888543548771	3662.2668090021
0	18118	900689.906541617524	3898.5039187362
0	18127	901010.18884926417	3352.4103378526
0	18135	901315.186932255647	3933.5188768294
0	18149	901934.312207700625	4024.160349413
0	18161	902670.965564593181	4560.1954685122
0	18175	903270.327460864341	3849.4602688854
0	18184	904442.199140026488	4378.0589466901
0	18209	905816.905299787038	4579.8496374787
0	18228	907955.928234882685	5325.1534122084
0	18236	908308.1069364029	3601.0166136025
0	18274	910466.069771821235	5715.9862746439
0	18291	911477.445102617193	4599.7819148893
0	18317	912873.248010739122	4450.0029182703
0	18325	913153.629870878671	3760.2357566358
0	18339	913672.658770934831	4089.9800256942
0	18356	914412.931487825548	3980.5242542608
0	18364	915186.495497609183	3946.2183404582
0	18377	916607.427314980886	4771.1179483961
0	18399	917487.483863505707	4610.9197782075
0	18438	920446.27302342781	6654.0108539978
0	18443	920737.565379131202	4373.8356577437
0	18462	922917.253763672024	6075.1736075463
0	18476	923538.245054243905	4399.5998923038
0	18498	924401.037934051481	5048.534896056
0	18543	926048.942547422201	6619.9096556379
0	18574	927264.445483954016	4505.7267223408
0	18582	927526.754388204484	4287.3855652931
0	18590	927827.931591443885	3470.4445497794
0	18599	928144.130605178636	4552.1197966451
0	18607	928450.354163370076	3915.418142627
0	18612	928759.662104525196	3596.8821683241
0	18632	929589.385116437583	3819.5311549991
0	18641	929849.207986749775	4577.5860880091
0	18646	930107.42798161769	4112.7922914564
0	18687	932528.805150920658	6113.9093833456
0	18720	933776.361151693727	4835.712459834
0	18751	934957.321242151095	4659.6935702066
0	18759	935236.272476344117	4641.9187332756
0	18776	935812.257791186924	4736.2387975174
0	18784	936133.198750311744	3800.3964080532
0	18792	936412.587143716318	4002.3210051388
0	18820	937361.836950229769	4608.3239328558
0	18834	937936.074126230345	4071.4080143463
0	18842	938253.494409451646	4771.6383477591
0	18848	938502.068042493962	4454.7450862498
0	18885	940269.135330029245	5088.3259533892
0	18893	940584.855125689392	4388.5779976487
0	18899	940938.843081131157	4265.229644089
0	18935	942593.456585253266	5439.3786829155
0	18947	942879.974691510498	3776.5650519956
0	18957	943428.494754540338	4066.0151026337
0	18969	944060.28786272793	4514.1074871232
0	18994	945061.8817054466	3604.8036322172
0	19000	945370.927301409834	4409.1595066931
0	19009	946102.779229278181	4144.0413467587
0	19090	949066.66455293425	5025.4921328284
0	19098	949371.663995045507	6643.8932615316
0	19104	949694.989263611454	5292.1618338277
0	19112	950039.974989849867	3856.4896695516
0	19120	950299.356578257638	3984.8170544148
1	941	50924.047629743386	144.74425410248
1	949	51260.498804296499	427.67184582083
1	958	51538.245995852443	632.14529216194
1	966	51864.316334269623	390.02511609267
1	977	52119.402962906564	515.63346299356
1	986	52449.824931470037	417.74843373999
1	994	52771.808710998049	723.18041802393
1	1003	53109.864309677438	296.88563759781
1	1028	53997.732077756276	216.30710450883
1	1058	55203.306689205109	128.3133181507
1	1105	56969.696864955534	247.20007421329
1	1116	57266.55115178269	141.48266197828
1	1135	58112.2755150013	309.56261189294
1	1171	60776.695272352605	0
1	1187	61519.350821538386	254.48997625416
1	1196	61893.146537785203	0
1	1205	62757.485753166706	0
1	1214	63340.075737955085	0
1	1222	63641.242463648815	88.205549847567
1	1239	64243.084071447261	276.82901027105
1	1255	64769.395095154917	21.835833316693
1	1270	65053.605888918154	145.71297278607
1	1278	65406.443061359859	396.50098430932
1	1286	65735.259181620131	660.82458313679
1	1300	66310.027636652179	234.61932633309
1	1333	67411.99791670928	173.54963089053
1	1358	68367.397924759919	37.962790104552
1	1397	69922.777356927247	220.39184158085
1	1406	70324.340956711429	0
1	1422	70914.412300971243	0
1	1440	72476.052427596925	0
1	1474	73883.656082565356	0
1	1482	74222.799912022607	0
1	1491	75129.291113019152	0
1	1517	76675.261902616726	135.30969410393
1	1528	76963.286016056503	88.932522031755
1	1537	77273.704421963917	49.143747519083
1	1559	78263.936345401811	0
1	1568	79081.457630957765	0
1	1576	79356.562821481853	228.45554597467
1	1610	80876.817552641518	0
1	1621	81142.690488171439	72.286344921431
1	1635	81774.100078009762	231.86433903822
1	1663	82876.517720279325	238.33072904804
1	1669	83132.281377234137	258.81539850778
1	1677	83440.701875493192	0
1	1702	84351.699281733637	146.74732548395
1	1710	84621.981249250277	2.302164239762
1	1725	84950.616823684271	266.78962799513
1	1730	85213.105574608406	425.41112814216
1	1752	86077.280381551289	150.32487468994
1	1780	86928.591555300681	256.5664276293
1	1788	87238.431065662593	192.14634316093
1	1800	87535.419684271565	288.63047376015
1	1808	87837.536026250654	335.94046710316
1	1872	90499.707259701294	124.1586469633
1	1896	92564.109401271415	0
1	1913	93924.661863696899	0
1	1922	94220.915931441538	59.151357521389
1	1930	94501.260344242907	162.89115962153
1	1939	94983.806619828894	0
1	1947	95509.437284861022	0
1	1973	96927.942048295063	0
1	2006	98124.540939537742	64.86357390563
1	2023	99080.037561842637	75.714418249185
1	2032	99605.568018743541	0
1	2050	101073.936475844315	0
1	2061	101315.826420703466	118.6323870124
1	2078	101922.671710667142	204.82688347484
1	2083	102212.165440044035	465.90679523966
1	2108	103259.844940875454	0
1	2125	104263.559855197412	9.517079593478
1	2150	105202.591683912455	304.68831505791
1	2177	107007.899163681029	0
1	2204	109600.786839433524	0
1	2232	113009.935993417992	0
1	2241	114575.72983792042	0
1	2250	114836.791283853898	169.21546604411
1	2258	115166.122314041292	235.40850823784
1	2276	117081.72810579152	0
1	2285	117347.871792898007	0
1	2318	118798.976244946212	0
1	2354	122079.255212735601	0
1	2364	123321.723727604589	0
1	2372	123598.385483771991	53.473231656716
1	2382	124925.00381722633	0
1	2398	125462.706495381727	151.57399877853
1	2407	125761.900488288055	286.69559929876
1	2432	126832.283497465618	5.391989570749
1	2440	127316.692013065226	0
1	2452	127598.090004945974	216.08701770925
1	2466	127911.203935323783	468.63711233681
1	2471	128225.404434058235	569.11861495184
1	2480	128552.517285066691	701.30203100712
1	2488	128884.482112454795	64.983587997771
1	2532	130744.709981653683	0
1	2577	132262.562571513106	230.41270519514
1	2585	132552.69811314095	443.69796052079
1	2605	133154.148617302123	232.98937118448
1	2614	133466.828138968218	353.0418941216
1	2619	133745.691318784989	613.72538129238
1	2636	134075.088280041963	827.05634171181
1	2642	134343.494394527905	555.92246766266
1	2647	134619.117294551969	724.16948038209
1	2655	134906.301960853034	838.12417557828
1	2667	135191.870949123429	548.51256916856
1	2675	135499.451467123311	564.89735443688
1	2683	135806.604230385385	624.89804873586
1	2698	136168.953242019098	110.18056458356
1	2703	136487.236654738738	332.25285276577
1	2717	136798.338331293634	128.08549162058
1	2734	137434.482146653838	239.85589978061
1	2749	137739.557733233445	1.613905475306
1	2793	139233.45794985031	19.265206300404
1	2805	139487.296244687076	228.24828173483
1	2816	139802.879323021383	381.51110120648
1	2824	140069.432148838986	68.277919668443
1	2899	142950.312512186136	63.33749053845
1	2907	143217.35794164851	249.4885857108
1	2915	143485.254646859607	74.701776347552
1	2924	143770.418367599938	15.721318812968
1	2932	144046.643796924485	130.25603514533
1	2940	144315.396518413676	20.655898414851
1	2954	145021.079968437678	257.2309150506
1	2973	145959.703680150169	221.74782535951
1	3070	149704.834913178956	175.77765976178
1	3083	150349.969505343519	231.43695285365
1	3093	151868.852934236607	0
1	3110	152939.761635909579	189.77058020139
1	3128	154546.083819963337	0
1	3164	157663.011731430899	191.93586736409
1	3175	157968.762673192794	284.64950265994
1	3181	158255.592428682069	381.55849463033
1	3189	158898.180038696782	0
1	3198	159202.303150537119	16.933080848884
1	3207	160004.253275737134	0
1	3223	160767.750272594539	0
1	3238	161052.502642732916	159.91291785256
1	3252	161355.245913146776	404.31631180473
1	3261	161687.582871384203	708.3716444105
1	3266	161977.534212842952	658.61322761047
1	3322	164300.037460293962	94.342728434852
1	3330	164583.693874040143	19.584408920868
1	3363	165722.893355205643	133.90356462343
1	3369	165993.600692568324	388.62618570128
1	3380	166289.824515114687	213.41891366131
1	3385	166605.845815498191	420.01480257325
1	3405	167159.004235394741	284.38662030047
1	3458	170004.463755765223	50.081821472869
1	3476	171302.10520130597	0
1	3484	171595.00385449437	93.241216220852
1	3493	172172.803540015745	0
1	3504	172449.192318641436	29.385390654996
1	3518	173291.867421851222	0
1	3535	174375.276980680675	82.892487988601
1	3544	174685.602149026762	243.57846746942
1	3575	175617.011048411021	214.70619243717
1	3580	175931.82524412891	317.61953733795
1	3602	176881.036869909401	0
1	3611	177255.029211020456	0
1	3631	177938.632070942738	74.85678802133
1	3661	179169.140832584346	95.241415236708
1	3681	180130.397130661267	226.36699734004
1	3713	182549.31731447238	0
1	3730	183624.857549220125	0
1	3739	183903.452568368472	135.83500127022
1	3747	184454.887120383173	0
1	3765	185961.313945062752	30.811161195119
1	3782	186598.727137372559	102.99521715688
1	3798	187242.739960381475	267.62092616786
1	3810	187562.159359498172	299.33346872278
1	3818	187820.337820446041	26.185314126586
1	3841	189115.29518938039	372.29141218742
1	3849	189402.801762876146	189.23902727014
1	3860	189713.018477991361	93.363115296071
1	3926	193737.973223629855	0
1	3937	194091.720798999717	251.44394725005
1	3943	194358.232055676305	503.47033642957
1	3953	196423.155758845824	0
1	3961	196719.68388701763	148.55100320876
1	3990	197594.500756392609	132.75094779391
1	4016	199740.899201303328	88.167368498343
1	4030	200011.585353351395	293.44806390213
1	4039	200296.250284630482	545.36110383847
1	4044	200634.771554181811	715.76531274527
1	4049	200906.417274434444	833.55035019971
1	4115	204628.671928591489	0
1	4123	205086.857288581532	0
1	4132	205399.044767210344	206.77505682168
1	4140	205655.965730833543	197.90642404243
1	4149	206364.792544322288	0
1	4158	207064.974871292776	0
1	4208	209535.828004557276	0
1	4217	210216.652679915891	0
1	4235	211996.155205340203	0
1	4244	212332.821874345326	255.71171385418
1	4260	212920.945538411433	191.61030956421
1	4280	213551.737837473014	175.50452088221
1	4289	213859.864128219235	452.23209326247
1	4297	214168.720301346062	476.73139523678
1	4305	214454.465352046908	459.98043671393
1	4311	214746.666687049272	420.79295387892
1	4331	215644.393715268612	32.628778543862
1	4381	217421.47349153666	28.693369225281
1	4389	217691.464892058297	164.8111623249
1	4420	219001.179274085377	181.45692285174
1	4428	219295.977094760065	33.357512796218
1	4436	219540.966056419744	138.95207308482
1	4454	220805.018637459758	0
1	4470	221415.112090108993	2.004239394496
1	4495	222304.280006864188	9.843179627469
1	4507	222662.021061854164	26.184451908855
1	4538	224201.89170952376	0
1	4546	224504.420633065911	0
1	4555	225333.397663119064	0
1	4575	225912.541501163317	101.69001422346
1	4586	226212.239200001239	122.73313131996
1	4591	226518.470691671475	365.98653053643
1	4600	226842.230634727326	202.50106175126
1	4630	228033.196963813165	152.82843349378
1	4647	228639.604507133043	198.50484785422
1	4689	230504.490014086653	0
1	4706	231170.217991782707	120.91351803451
1	4717	231512.901411383458	191.62163579414
1	4732	233107.71586339832	0
1	4743	233460.650031830541	198.06155993003
1	4749	233690.838793129489	314.7701079584
1	4757	233976.128249163624	234.23494717349
1	4808	236282.936418410802	140.48378207754
1	4834	238041.240142354221	0
1	4852	239812.452165218529	0
1	4860	240093.174147017316	0
1	4869	240438.130283468765	45.415588357177
1	4886	241275.756051683492	225.50862213742
1	4894	241585.739841732136	183.6334395131
1	4902	241924.232025169864	91.672822630953
1	4928	243680.226288310089	0
1	4971	245724.675702759141	0
1	4979	246129.753744482174	0
1	5006	248880.031412755488	0
1	5023	249570.837674185823	0
1	5032	250413.031777644693	0
1	5041	250982.423898239067	0
1	5049	251312.197755655451	0
1	5058	251607.165590077708	29.672205341381
1	5075	252585.0401233941	0
1	5104	254118.297758035147	102.89060446869
1	5134	255380.248518539906	0
1	5151	256152.260256664264	84.071351264893
1	5168	257110.310196002269	0
1	5177	257879.222160314451	0
1	5203	259857.359192246665	0
1	5220	260480.521042537376	187.10901714523
1	5228	260776.098654151649	164.90465518787
1	5246	261955.30611670599	0
1	5254	262400.7343752823	0
1	5263	262713.105926274626	91.318122296829
1	5279	263355.908086638874	202.72688123607
1	5299	264031.855240802154	332.9427967108
1	5333	265794.511451974023	16.849719915598
1	5365	268110.767899689955	0
1	5373	268329.85237362625	126.21190646116
1	5385	268626.456275195008	260.75543705259
1	5396	268934.370316705744	136.71729009936
1	5401	269218.205785360105	332.59329009387
1	5418	269861.665233553003	199.1549186119
1	5423	270184.629908169424	395.99326618946
1	5432	270489.843025916464	228.00266607394
1	5477	272639.556667125641	134.78714254838
1	5486	272974.285850902324	349.3276570259
1	5494	273261.770827364799	263.69075428658
1	5522	274200.888241175124	231.5396542282
1	5541	275123.20559321196	24.029814917328
1	5550	275809.276412279108	0
1	5573	276341.659018047943	85.741609949595
1	5595	277288.527746436992	192.80726576
1	5603	277579.746106497282	389.68343587638
1	5620	278223.977873104454	117.90647044102
1	5628	278551.426846521935	362.24757617292
1	5659	279813.628907441991	0
1	5675	280417.113736100126	87.454632222897
1	5684	280865.54332950623	0
1	5695	281199.071064314905	298.26569139483
1	5726	282346.132243287072	104.21390318717
1	5742	282978.149387887046	239.12756506199
1	5754	283295.280710021107	209.23386323545
1	5770	283936.473531761689	294.77965255912
1	5793	284868.575146138336	0
1	5827	286723.17242277181	0
1	5844	287759.700686151889	0
1	5861	288922.091847472635	0
1	5879	290133.385890335473	0
1	5897	291708.031888339799	0
1	5914	292993.691028874668	0
1	5941	295163.124005207219	0
1	5960	297946.888530244024	0
1	5968	298198.698170210742	62.15675724691
1	5980	298532.875928003935	94.737299372549
1	5988	298734.403897601961	100.0228398208
1	6001	299373.868964366172	83.995298673976
1	6010	299633.11651033316	20.427871003782
1	6018	299891.461351440288	38.985963747212
1	6075	302778.243685016347	211.30314590161
1	6095	303725.762532481734	174.25092851018
1	6103	304195.275704593676	0
1	6122	306251.998341246519	43.668668847753
1	6130	306531.556137693618	7.591796123572
1	6155	307552.995345176846	0
1	6182	309856.950125332715	0
1	6198	310457.690098149087	224.48398605702
1	6209	312260.014311416424	0
1	6220	312612.474923875507	320.3747863939
1	6242	313618.933222486891	156.7220423188
1	6251	313968.164654766903	0
1	6277	315922.284150367854	179.1853409821
1	6286	316563.751547959097	0
1	6321	319399.504511539454	0
1	6329	319746.311014930218	0
1	6347	321165.783492148116	0
1	6356	322046.578846580441	0
1	6364	322346.755990037122	279.68448110251
1	6390	323886.440935170857	0
1	6398	324158.591680976675	0
1	6421	324847.620121812064	235.36218950939
1	6433	325119.671714680221	481.83230983129
1	6438	325441.057317484136	694.09111811815
1	6449	325742.773770253625	740.99677844413
1	6455	326017.239592779537	317.7084504117
1	6477	326966.598747809742	135.28682199192
1	6488	327298.748579434205	408.98698016319
1	6538	329131.903425821512	66.980487205281
1	6575	331143.81334172392	0
1	6583	331609.466302025741	0
1	6592	331882.730208240913	164.72077442588
1	6603	332204.42084866248	160.74879051119
1	6617	333170.963119536122	0
1	6669	336524.789155870668	56.744050792771
1	6677	336949.530415782521	0
1	6686	337446.217018452033	0
1	6697	337784.183682525426	310.7421511422
1	6706	338126.343591677391	552.169477339
1	6711	338413.880249346828	343.00179011476
1	6720	338984.602673685282	0
1	6788	342225.595686170105	87.196612261065
1	6797	343340.776905351903	0
1	6806	344242.410434110012	0
1	6817	344571.109640152441	164.19139738208
1	6826	344880.807675736868	464.41962498107
1	6831	345172.304988128852	410.92199740311
1	6839	345464.859545852798	33.77417219958
1	6857	346793.913032966244	0
1	6885	347673.734448372227	56.461970336281
1	6915	348764.550008298951	113.54217830564
1	6926	348986.458999281642	209.56830598251
1	6940	349602.982061552803	0
1	6955	349868.416692848352	237.06831625559
1	6960	350192.466831525455	348.04590620624
1	6982	351042.868408285037	85.867463989525
1	7041	353922.206858055268	89.95830356265
1	7053	356861.923188687792	0
1	7064	357111.306910443599	220.54983251906
1	7079	359054.223440110472	0
1	7088	359731.313113421877	0
1	7099	359986.991133217502	140.11589650237
1	7111	360335.584651455007	102.51549191637
1	7125	360999.776601331681	184.77546927559
1	7144	361572.124091538946	152.94155617433
1	7150	361868.139300087955	356.92071499674
1	7158	362165.47225325543	614.51536355383
1	7180	363140.114354023644	136.56824863064
1	7205	364050.278792739747	121.91330053088
1	7248	366547.436516713668	0
1	7273	367522.196312187399	30.707728012135
1	7282	367990.275390774489	0
1	7290	368342.253773400325	74.967452237007
1	7308	370075.360875463173	0
1	7325	371104.119692327477	0
1	7345	371762.606288414785	147.99091704171
1	7353	372032.111771896093	5.428732361148
1	7368	373351.460902454788	0
1	7379	373651.660207437045	122.97186840189
1	7396	374187.847889245569	28.15522385712
1	7436	376481.081970622437	0
1	7462	378134.286233948697	0
1	7479	379520.530942874577	0
1	7497	381476.871331208936	254.22079665992
1	7506	381986.262165846891	0
1	7524	383363.974638413399	0
1	7532	383667.17653475385	57.241331877003
1	7549	384864.756523571901	24.150620690564
1	7566	385521.759941928526	217.41191816568
1	7593	387723.254653380611	0
1	7609	388281.175034536023	127.6089605842
1	7627	389685.703816051897	0
1	7635	389962.804738199771	76.737245145691
1	7662	391994.450819368424	0
1	7670	392336.125277272899	263.983562357
1	7678	392609.775876180179	61.176600423169
1	7704	393653.762206804709	0
1	7712	393894.779534716724	97.870078446338
1	7720	394294.793560139891	0
1	7744	395307.935302337952	300.17499795094
1	7749	395584.756588972197	329.17515816491
1	7757	395855.805233641986	105.03391984833
1	7796	397365.909959825181	292.25705536705
1	7828	398881.414303593255	77.718842791243
1	7836	399193.566071432622	309.83429718165
1	7864	400435.04992342409	38.34390122453
1	7900	404399.099958752136	0
1	7912	404751.108845831234	60.802463177423
1	7917	405065.029632001954	318.44600778554
1	7925	405409.463827051747	227.07611187072
1	7934	406210.719983131622	0
1	7944	407643.802116344345	0
1	7970	408275.77539424691	24.007825834177
1	7997	409586.898244345372	131.71374426674
1	8020	411222.162167699061	4.554482111803
1	8032	411524.071618772904	188.25854681586
1	8040	411863.214533834038	343.53895182265
1	8057	412489.441550274145	136.39324616873
1	8070	413074.171273694132	32.036087049132
1	8079	413364.697486455703	25.348823404734
1	8105	414857.68115539529	0
1	8124	415480.873226902171	270.57930054892
1	8156	417674.756432660582	0
1	8170	417957.835671819621	249.67909933759
1	8179	418282.347252259174	479.4446329565
1	8198	419207.360238301359	92.927634695406
1	8207	420095.440503577907	0
1	8215	420428.981182282257	148.27495883221
1	8229	420757.58980479824	164.93772613906
1	8249	421360.539404082748	65.537957405407
1	8260	421652.941781932059	331.01748958459
1	8266	421892.720970084783	526.66527753072
1	8274	422218.611745445144	816.65596979612
1	8288	422829.863379193073	304.89443785527
1	8299	423125.130995078963	269.68313030551
1	8327	423873.379392725696	143.40317587713
1	8374	425744.177134693831	210.59099247629
1	8386	425997.670146359023	284.37517290556
1	8408	426908.222319143332	143.44401691585
1	8432	428227.712654198954	0
1	8440	428483.76696479803	229.78319868851
1	8466	430138.448901216252	0
1	8475	430402.533508405464	245.42890110911
1	8491	431053.868363171525	0
1	8526	433488.289734748295	0
1	8552	434940.811463901477	0
1	8561	435919.294907356668	0
1	8570	436240.692040004073	94.07934303664
1	8581	436566.967054455138	44.652081853061
1	8595	437576.368708295041	0
1	8624	438873.332331852617	279.58524574688
1	8632	439185.738874234359	425.0626267001
1	8643	439452.123342259534	412.78711515628
1	8652	439775.34431015492	352.70856798163
1	8660	440100.793089441202	123.40562026264
1	8674	440651.823177947984	32.592342331442
1	8682	440956.524754231595	47.035632465567
1	8699	441517.018137127921	108.88400698703
1	8746	443376.441060751057	0
1	8760	443619.385162147413	75.176225904756
1	8768	443898.030591385596	157.28623432536
1	8780	444143.352881160218	203.89516181924
1	8791	444447.648389886504	123.49317071182
1	8799	444741.19934414696	133.28174879245
1	8813	445381.694320370973	208.35361316925
1	8822	445739.541774266925	96.769555983448
1	8841	446353.546094543542	305.57640756923
1	8866	447239.750305163317	188.40827701077
1	8922	449258.267972992571	171.75278580148
1	8965	452873.170360069704	0
1	8975	454613.59066649394	0
1	8984	455469.946775197907	0
1	8993	456232.132491253526	0
1	9019	457766.911870736856	0
1	9028	458777.133903757683	0
1	9053	459936.539953362475	0
1	9062	460209.869638982348	71.663077395906
1	9070	460906.361435711648	0
1	9082	461255.051189611756	332.14002200002
1	9090	461575.547287171099	188.36060112908
1	9098	461829.933454251556	228.63195895276
1	9132	463288.318050937063	135.96901422324
1	9146	463904.361781955709	220.94862092296
1	9182	465225.930162590635	135.65971905311
1	9196	465853.378012212113	0
1	9213	466344.76717769379	0
1	9257	470173.339921562242	0
1	9266	470480.692619533553	65.204767645075
1	9274	470744.870184184276	183.87454785328
1	9283	471507.403838750814	0
1	9292	472318.301438690807	0
1	9300	472649.76191928954	0
1	9308	472945.033745221392	15.878271608054
1	9336	473848.851288880345	258.25317360254
1	9371	476032.38578300217	125.25503614864
1	9396	476874.6821262455	101.82751520113
1	9419	478791.476419660634	0
1	9437	480414.873433492712	0
1	9446	480753.023435578292	336.14231152465
1	9476	483614.012838356309	183.29793254312
1	9484	483902.355004131399	82.877446095645
1	9496	484244.034698330089	292.70262440603
1	9504	484489.056537319231	465.03249046944
1	9509	484778.005386767483	433.4270053253
1	9518	485061.849422855344	36.004465658369
1	9526	485362.116483638298	119.72205251791
1	9549	486700.002777780514	282.3032567662
1	9560	486961.246781777316	136.41944467693
1	9599	488509.058312077038	227.49889042341
1	9613	488791.383408485279	282.24066390472
1	9627	489341.359292400028	8.004476319939
1	9660	490768.138506800596	301.451706466
1	9666	491019.803168551758	266.88745689897
1	9677	491301.547346563218	134.2171806316
1	9685	491606.538142287704	404.52104590211
1	9707	492456.016824693662	0
1	9722	492705.123915290834	225.04429764237
1	9730	492994.419560183598	446.81228779541
1	9738	493282.112295889823	299.62618588833
1	9750	493576.062292206127	331.18395739325
1	9758	493859.820125513533	422.70750008592
1	9769	494114.405528408551	602.63314947302
1	9803	495348.483512505448	126.6954184899
1	9811	495691.700833478293	384.84244901353
1	9819	496050.900935620326	616.24521612605
1	9845	496643.307395114876	91.466955207327
1	9853	496957.198511410122	262.01936878241
1	9881	498124.423146945178	266.3551296296
1	9928	499862.659316418665	286.07163012383
1	9936	500155.362744625397	136.72155729387
1	9948	500427.776603634201	197.58506996676
1	9956	500732.616624202968	172.29132119592
1	9964	500986.260501251286	103.88495566791
1	9979	501296.436363447767	297.88118135143
1	9984	501560.737718410094	319.01094408977
1	9992	501867.191518509918	290.53487731593
1	10001	502184.370518655956	14.944874488953
1	10028	503377.276450002526	240.43777934885
1	10084	505170.733507985543	26.331377639887
1	10101	505798.445306719253	131.41094513733
1	10139	507520.411755641005	206.09348721658
1	10150	507815.085474145295	263.73167576901
1	10156	508149.21892732615	387.4650002081
1	10167	508501.604559322003	0.796261901841
1	10175	508815.452471030782	125.10685936942
1	10208	510266.872347103314	238.46522479354
1	10216	510530.795458880049	95.05422002557
1	10231	510823.812764941566	177.21243958116
1	10239	511117.720292794872	374.33083788801
1	10306	513876.395126970667	2.609145528804
1	10315	514187.970720976576	140.18887149221
1	10334	515084.20071506174	234.23036381528
1	10352	516958.637636763226	0
1	10360	517201.205277778393	186.10707072196
1	10377	517933.609101466777	0
1	10385	518261.631678334797	63.475578114408
1	10402	518948.184393478766	79.940977296183
1	10410	519198.52288983502	169.76048007398
1	10436	520607.613603372212	180.21797067308
1	10444	520908.039588057026	34.147809887055
1	10470	521884.463701161568	0
1	10489	522428.002559166756	76.728578613362
1	10503	523097.455367605468	0
1	10528	524109.541212900744	0
1	10563	526592.953785502639	291.89635380322
1	10581	527896.246497627344	0
1	10589	528225.01446192368	40.924918596161
1	10597	528554.952566151207	252.01333420651
1	10606	528887.44248710134	11.511365654524
1	10614	529395.977447684765	0
1	10626	529689.422950892479	220.12390622376
1	10634	529937.30939931945	104.79386643979
1	10648	530674.0742131131	0
1	10682	532122.597589529416	87.325849254123
1	10693	532468.293988206279	107.44124279868
1	10716	533056.188553517299	79.611116355508
1	10724	533338.762344543435	238.33311395807
1	10732	533573.149313792367	175.2807843092
1	10749	534252.302107082599	295.33134628971
1	10763	534838.442564126067	183.31315256776
1	10782	535427.654947493271	128.48539612485
1	10802	536017.123979157866	126.71590854731
1	10810	536290.494353310629	133.75905542264
1	10827	536911.960750201935	180.03103620759
1	10839	537213.974205597745	94.259985816031
1	10847	537524.930884288764	34.95845403731
1	10858	537818.345159834375	79.525282341866
1	10867	538134.354628712971	201.60335146585
1	10892	539046.764906791411	212.29278564379
1	10937	540704.645204005681	187.60910981285
1	10945	541023.211885065059	505.78791202599
1	10967	541875.338895462194	1.704238685768
1	10978	542204.831102051866	106.97051595491
1	10997	543128.685604774175	308.94644614845
1	11033	544656.998522433202	37.975815341303
1	11042	544917.049915418501	15.712450707284
1	11053	545210.149838783124	232.06660456561
1	11064	545532.995830211892	100.25501125686
1	11102	547322.822398754123	33.220600613415
1	11127	548230.747973759454	188.15692189999
1	11150	548843.642871335073	265.60248813693
1	11156	549170.152364935084	588.54506816078
1	11169	549755.069048191239	66.247596462985
1	11178	550053.839937111757	192.57792803979
1	11194	550585.370909717029	111.92346637021
1	11208	551164.580017987532	20.946381500909
1	11216	551493.845374754646	0
1	11228	551788.701429226599	291.98045726918
1	11236	552095.619354243652	417.85055222799
1	11267	553055.790351183366	63.174643905635
1	11300	554249.509800738362	283.70095339491
1	11312	554572.726526018821	319.83190780328
1	11320	554893.237336430271	423.20228541804
1	11329	555148.822033377667	221.37916742331
1	11340	555423.536250035332	61.475798949419
1	11360	556020.727682993542	232.26359059794
1	11365	556335.387607243608	424.16676910089
1	11382	556908.059166871032	260.23343304657
1	11393	557169.771334081366	312.22785080213
1	11404	557505.389630788655	336.41352547093
1	11413	557749.874125413645	319.43192925541
1	11418	558053.438765477731	612.73973740909
1	11454	559176.014490571334	184.85464167565
1	11482	560168.868614550077	128.07625272934
1	11521	561762.479239914209	174.14751006277
1	11557	563274.575618819113	311.66811220006
1	11601	565432.240441205254	0
1	11610	566805.924287564657	0
1	11636	568430.037941967849	0
1	11654	570365.867496328524	0
1	11663	571352.599026577451	0
1	11680	571974.993445944825	130.9670806504
1	11689	572689.114011848578	0
1	11698	573494.021306487205	0
1	11723	574444.421989615689	38.414391219534
1	11743	575146.976967021502	330.44250242597
1	11751	575472.427192491155	325.17744112686
1	11765	576073.879505722914	289.02152803068
1	11790	577301.740246598559	311.95828087689
1	11825	579573.455582184786	0
1	11844	581903.508746259219	0
1	11861	582912.066516799567	0
1	11870	583467.134659524263	0
1	11878	583773.68284206068	112.34206483862
1	11896	585345.057152653625	0
1	11913	585939.257271919964	23.910233041204
1	11933	586941.508447138944	256.65512984066
1	11964	588948.086482847182	125.93846842215
1	11982	590839.669952866237	0
1	11991	591137.980446767359	199.6420165515
1	11999	591441.84713022605	197.87396885466
1	12007	591846.527705066472	0
1	12016	592164.69929982544	80.876811761908
1	12027	592432.033615853043	165.66907576075
1	12053	594370.469679773475	85.281869713905
1	12062	594684.130844823438	151.33604641474
1	12076	594969.976450561063	170.79810425858
1	12107	596197.476602870057	195.77903768582
1	12115	596498.416865420155	109.81606687005
1	12132	597073.428185277164	238.58317747967
1	12145	597701.250442198094	26.162827470561
1	12179	598962.477447137682	227.03916382109
1	12219	601922.134934261128	0
1	12237	603327.287536588921	0
1	12245	603632.255948556614	194.99737043117
1	12263	604808.193739352306	313.88894879563
1	12271	605109.078076680943	247.39669778683
1	12315	608768.721361672648	0
1	12324	609026.274054427605	249.42681622121
1	12332	609470.979986657515	0
1	12341	610317.565108322243	0
1	12371	612472.599915519738	92.675159034174
1	12394	614302.677414343541	0
1	12412	616567.982625873035	0
1	12421	616880.110886436857	277.14478076073
1	12429	617169.946307832357	103.89942226406
1	12448	619290.50386676105	0
1	12462	619587.073506614187	288.89058760812
1	12467	619865.362212773315	390.02060599474
1	12507	622154.058100382556	213.77539350832
1	12527	622885.256586200821	150.52085860304
1	12535	623213.765459072988	451.85350705227
1	12578	628574.632538287529	0
1	12599	632361.658932345967	0
1	12607	632766.487454270537	0
1	12616	633380.044711232601	0
1	12625	634212.97669643696	0
1	12634	635402.004388012592	0
1	12660	636465.441771790848	27.599721952134
1	12694	638476.28639166602	0
1	12711	639157.462374419331	0
1	12720	639843.100829975138	0
1	12729	640682.25320087538	0
1	12737	641321.734657830654	0
1	12749	641656.715329360322	112.06900097757
1	12797	644657.714060295506	298.46987601678
1	12814	645699.967886494494	0
1	12823	646336.944669150654	0
1	12832	647206.020127566063	0
1	12849	647841.266838574842	139.16858450636
1	12857	648332.191462254509	0
1	12866	648619.795283953613	247.70275835017
1	12877	648932.135528314189	87.908826524515
1	12919	650886.826223436218	207.82358563124
1	12931	651200.159315161432	308.91894231317
1	12942	651482.615679601808	429.53602970711
1	12948	651810.617427055129	508.14728508007
1	12964	652434.082550936129	6.105116768487
1	12973	652715.698134031805	174.49675692619
1	12984	652998.229478616219	164.08394850103
1	12989	653338.016231052542	463.45313935449
1	13003	653872.18823266626	144.99217401787
1	13026	654503.786232181267	233.36654247728
1	13040	654793.459685870624	395.81409831796
1	13048	655116.148649030114	374.21973151716
1	13057	655421.854770444678	428.77765044589
1	13068	655763.648560561988	195.35504064883
1	13112	657469.73629679272	134.89875524449
1	13184	660554.327093562861	57.065628041469
1	13201	661434.815811505677	0
1	13210	662158.259741156859	0
1	13247	666901.544556779435	0
1	13257	668416.278746423967	0
1	13266	668942.952553016388	0
1	13274	669286.696712703104	268.98698683498
1	13291	670040.258750681245	199.67467985582
1	13300	670904.657980868455	0
1	13335	673254.323201731786	0
1	13351	673795.024216714604	98.806691815233
1	13360	674077.508601275654	7.412356331769
1	13371	674329.339489571545	99.007121652712
1	13385	675009.659807148222	106.23581831649
1	13393	675312.803023989337	0
1	13401	675704.826272360303	0
1	13450	678264.320514065672	108.51002029068
1	13462	678557.009509881955	322.50954272836
1	13487	680253.937423149823	0
1	13498	680546.376564475378	47.063346626233
1	13507	680870.611308993591	348.46871654615
1	13512	681188.43987320019	384.48874002732
1	13520	681549.524381860198	154.91317055785
1	13554	683160.123312838567	309.71244382809
1	13563	683472.290282789049	237.33823599085
1	13571	683794.822067808195	78.55069106871
1	13602	684682.419953020406	222.69894924708
1	13610	685018.044562167971	184.28559217891
1	13624	685548.88514850405	133.77468812962
1	13632	685823.869650530351	161.52644262254
1	13649	686486.719143232394	201.47314913338
1	13669	686809.093601600522	274.71027106161
1	13678	687098.721867859687	449.89806308743
1	13689	687366.422554002082	654.3267160369
1	13694	687651.736694344548	890.08067898558
1	13700	687941.606081531417	748.09415120769
1	13714	688241.751246174491	910.55102790877
1	13725	688507.634227707634	524.30082401293
1	13734	688861.517609710499	522.60877399826
1	13745	689135.064681036903	537.40055712001
1	13753	689412.989198356557	291.56213414943
1	13765	689706.763784622453	395.47529374118
1	13807	691143.550764098748	147.43300905634
1	13815	691445.376676219241	41.809247685637
1	13829	691789.034545187316	79.818903968509
1	13844	692073.849974267968	36.751939987392
1	13898	694415.236044715907	294.87384791985
1	13935	695569.878910517411	264.33830053971
1	13940	695865.51479270187	517.94063681832
1	13959	696775.725626256433	291.56663498305
1	14000	698554.830916489623	55.036038604816
1	14015	698856.161149838975	138.38819352609
1	14020	699171.093367129502	397.69329334012
1	14034	699763.826334298465	73.17865003356
1	14050	700318.687456023297	160.07537429878
1	14059	700632.857609445716	108.90401045955
1	14072	701243.679580363186	92.005044845983
1	14103	702421.017422376397	122.60241478075
1	14128	703038.814121915741	100.07460864477
1	14137	703350.377916690363	379.37721397125
1	14145	703622.360465510201	426.44015711086
1	14167	704603.762488483426	131.44719905244
1	14200	706082.974352785971	247.90668144923
1	14231	707007.434237993057	232.81714497108
1	14242	707293.253822797444	510.02161331845
1	14248	707563.470122179417	523.68784407042
1	14256	707849.484837193694	285.32879710532
1	14280	708923.834195840305	108.9416497041
1	14317	710635.291089950862	9.212737047578
1	14329	710969.542930180086	343.39846853276
1	14356	712221.146658446267	0
1	14365	712853.882453545309	0
1	14382	713530.118974917237	0
1	14399	714661.059588103503	271.56767413847
1	14407	714950.569162783276	37.849958532572
1	14425	715984.018112971633	0
1	14451	717652.341897907826	0
1	14467	718338.108472694823	186.89446443091
1	14479	718674.447374196117	306.44234838375
1	14502	720497.30461733203	0
1	14525	721140.759475245457	157.31304340067
1	14530	721436.628670033073	422.12470342394
1	14541	721723.982164434244	620.62251707174
1	14550	722026.532051047436	330.36267971889
1	14563	722558.64001904862	8.671536194972
1	14594	723977.724149293873	1.938931422623
1	14611	724798.772855158487	16.564938699939
1	14625	725109.972844089794	306.99436332912
1	14637	725423.515757264011	485.51704028761
1	14645	725684.908364450694	352.86458197066
1	14664	726620.807110994626	50.11792947997
1	14681	727193.359035177288	192.89908012377
1	14692	727545.189088675547	248.02564751039
1	14709	728118.034451782775	234.61017276265
1	14739	729272.952922554755	232.96515318894
1	14778	730994.125126521661	101.70250700404
1	14795	731617.507771123252	138.34117946558
1	14803	731904.806113553035	220.66463157913
1	14823	732669.233260297496	242.68554466695
1	14828	732963.44455004129	461.67003428863
1	14837	733267.75022448186	133.98873994483
[...]
7	13460	678557.009509881955	1
7	13465	678857.524146391073	2
7	13496	680546.376564475378	3
7	13505	680870.611308993591	4
7	13510	681188.43987320019	5
7	13518	681549.524381860198	6
7	13522	681575.512230032422	5
7	13526	681782.017789488891	4
7	13530	681822.252916331762	5
7	13543	682824.660880825137	4
7	13561	683472.290282789049	5
7	13569	683794.822067808195	6
7	13573	683924.430390797805	5
7	13576	683965.436303879638	4
7	13579	683987.740717461301	3
7	13583	684034.122066621852	4
7	13596	684487.075872632467	3
7	13608	685018.044562167971	4
7	13614	685290.563968408131	5
7	13630	685823.869650530351	6
7	13634	685945.667295475023	5
7	13639	686157.117264624764	6
7	13657	686680.644981000805	5
7	13667	686809.093601600522	6
7	13672	686874.631033199702	5
7	13676	687098.721867859687	6
7	13687	687366.422554002082	7
7	13692	687651.736694344548	8
7	13698	687941.606081531417	9
7	13702	687957.668075981789	8
7	13708	688050.345342222813	7
7	13712	688241.751246174491	8
7	13719	688501.054737284995	7
7	13723	688507.634227707634	8
7	13732	688861.517609710499	9
7	13736	688968.131054301258	8
7	13743	689135.064681036903	9
7	13751	689412.989198356557	10
7	13756	689503.046512854398	9
7	13759	689590.619998501469	8
7	13763	689706.763784622453	9
7	13768	689967.866923430027	10
7	13772	690191.694719830902	9
7	13781	690504.101382758253	8
7	13789	690763.891119902005	7
7	13797	690895.233305287542	6
7	13813	691445.376676219241	7
7	13817	691467.773155267113	6
7	13823	691710.108168634546	5
7	13827	691789.034545187316	6
7	13831	691800.650397320385	5
7	13834	691817.862953496982	4
7	13842	692073.849974267968	5
7	13846	692269.674332250166	4
7	13849	692356.932165422594	3
7	13853	692380.051153083165	4
7	13892	694385.875346727477	3
7	13902	694727.123040186151	4
7	13906	694798.393687066262	3
7	13909	694806.673058788167	2
7	13912	694924.834309456729	1
7	13938	695865.51479270187	2
7	13943	696149.987569131667	3
7	13962	697066.692503897081	4
7	13977	697808.650272669638	3
7	13994	698524.257130955424	2
7	14008	698822.716696382304	1
7	14013	698856.161149838975	2
7	14018	699171.093367129502	3
7	14023	699482.648169262757	4
7	14036	700058.529418330473	3
7	14040	700072.468166768796	4
7	14057	700632.857609445716	5
7	14062	700913.551238418269	6
7	14076	701550.052249772519	7
7	14080	701729.552922718621	6
7	14088	701916.908304043457	5
7	14105	702594.459800355705	4
7	14108	702701.77943375093	3
7	14112	702729.225354789554	4
7	14116	702819.340346390478	3
7	14135	703350.377916690363	4
7	14139	703466.263578648625	3
7	14143	703622.360465510201	4
7	14148	703938.37782330405	5
7	14158	704252.653269202863	4
7	14171	704821.179005300491	5
7	14185	705563.055857196255	4
7	14202	706229.837742569083	3
7	14205	706397.431105650568	2
7	14209	706401.557060377862	3
7	14214	706721.810172989417	2
7	14236	707220.249379745772	1
7	14240	707293.253822797444	2
7	14246	707563.470122179417	3
7	14254	707849.484837193694	4
7	14259	708129.041905455645	5
7	14283	709192.161786094707	4
7	14287	709225.505158540541	5
7	14291	709309.139726123981	4
7	14303	710321.238601114228	3
7	14320	710833.370642411311	2
7	14323	710950.163415171034	1
7	14327	710969.542930180086	2
7	14332	711226.688670777012	3
7	14341	711494.286754421978	2
7	14359	712485.347730225838	3
7	14367	712938.949844266596	2
7	14371	713148.47257436102	3
7	14385	713827.163855683724	4
7	14388	714339.5908707136	3
7	14405	714950.569162783276	4
7	14409	714992.126249985006	3
7	14414	715250.160182249146	4
7	14427	716075.791582221903	3
7	14431	716232.901693621494	4
7	14435	716410.344581924937	3
7	14454	717972.742038927624	4
7	14456	718056.813764731551	3
7	14473	718535.513506418324	2
7	14477	718674.447374196117	3
7	14482	718952.482985977486	4
7	14486	718960.877747690787	3
7	14505	720781.018440674031	4
7	14507	720844.26809283149	3
7	14528	721436.628670033073	4
7	14532	721481.431479551397	3
7	14539	721723.982164434244	4
7	14543	721754.956318487901	3
7	14548	722026.532051047436	4
7	14553	722279.126122039847	5
7	14567	722873.726084827229	6
7	14574	723316.800011404745	5
7	14583	723720.041321362407	4
7	14597	724255.226559600737	5
7	14599	724443.600920829892	4
7	14619	725076.358502712993	3
7	14623	725109.972844089794	4
7	14631	725352.900381973199	3
7	14635	725423.515757264011	4
7	14639	725427.673236033858	3
7	14643	725684.908364450694	4
7	14648	725996.451954555216	5
7	14667	726924.01724668015	6
7	14674	727036.736090272623	5
7	14686	727433.215249270924	4
7	14690	727545.189088675547	5
7	14694	727681.88786268654	4
7	14698	727848.234064138009	5
7	14711	728239.716789918293	4
7	14715	728401.944850016928	5
7	14725	728799.720176599202	4
7	14742	729556.476416538986	5
7	14750	729956.822378038537	4
7	14755	730076.408610245384	3
7	14767	730716.817052557491	2
7	14780	731075.457028241672	1
7	14784	731296.238627706451	2
7	14801	731904.806113553035	3
7	14807	732208.392947362895	4
7	14809	732379.129671649209	3
7	14826	732963.44455004129	4
7	14835	733267.75022448186	5
7	14840	733546.948452575065	6
7	14843	734139.91931869643	5
7	14851	734466.512231735417	4
7	14856	734708.730872949333	3
7	14869	735060.578736499983	4
7	14876	735594.705343683289	3
7	14885	735771.364350923403	2
7	14888	735818.535706078253	1
7	14900	736177.879312236634	2
7	14906	736485.984541577502	3
7	14924	737408.356042878673	2
7	14928	737607.916203155568	3
7	14942	738517.10499572848	4
7	14944	739014.695853053485	3
7	14953	739289.727819846762	2
7	14967	739809.584008306018	3
7	14975	739965.838212022411	2
7	14982	740215.901157270693	3
7	14987	740498.619925683427	4
7	14995	741275.141705185615	3
7	15010	742110.538983783016	4
7	15013	742764.650860753983	3
7	15021	742918.158749916899	2
7	15029	743302.140735652651	1
7	15034	743338.29860390583	2
7	15047	744491.211559674026	1
7	15062	745541.309862770374	2
7	15076	745870.880110751457	3
7	15081	746041.507096730545	2
7	15088	746194.325236573445	3
7	15093	746463.051620861816	4
7	15102	746767.317416206764	5
7	15107	747060.952816679413	6
7	15115	747942.993039707671	5
7	15123	748267.728788716903	4
7	15132	749008.942207429819	3
7	15137	749027.005846950898	2
7	15141	749313.231695397114	1
7	15144	749314.79044653019	0
7	15164	749917.073494267173	1
7	15173	750196.756739392326	2
7	15178	750458.568990529203	3
7	15203	751299.543301635725	4
7	15208	751576.129955731787	5
7	15214	751870.848103352309	6
7	15225	752484.401696972516	7
7	15229	752644.321278940161	6
7	15234	752781.244810485531	7
7	15241	753125.83595121043	6
7	15246	753181.489981240045	5
7	15266	753889.873606503673	4
7	15270	754075.510923169243	5
7	15274	754385.117385747217	4
7	15278	754390.771884800736	5
7	15283	754600.997172541766	4
7	15299	755100.739256415767	3
7	15302	755253.171430185641	2
7	15307	755295.055746384346	3
7	15320	755925.909935005975	4
7	15324	756055.370172199089	3
7	15342	756747.296231924066	4
7	15356	757559.413567263954	5
7	15358	757807.542840094736	4
7	15364	758075.003787264235	3
7	15381	758688.912539082584	4
7	15389	758808.847958311091	3
7	15393	759074.569243872593	4
7	15397	759101.335301516029	3
7	15409	760077.604231684582	2
7	15424	760636.430558833445	3
7	15426	760982.553312339677	2
7	15435	761778.447379697859	1
7	15450	762687.905807598971	2
7	15462	763381.922716653935	3
7	15469	763678.93390028216	2
7	15473	763692.648403378105	3
7	15479	764009.76224602932	4
7	15496	764776.876554686633	5
7	15501	765090.75462386337	6
7	15503	765351.322216618298	5
7	15521	765986.670474002642	6
7	15528	766257.874987687326	5
7	15532	766302.166834315583	6
7	15536	766353.262440889878	5
7	15541	766609.257961866137	6
7	15545	766781.344650284022	5
7	15557	767186.546413527157	6
7	15570	767515.379024598214	5
7	15577	767829.412347840197	6
7	15581	767951.682012672858	5
7	15586	768124.487889228101	6
7	15593	768367.550862450048	5
7	15602	768777.6709121521	6
7	15607	769073.65824055694	5
7	15610	769107.296288583712	4
7	15633	769730.982329756378	5
7	15641	769924.481080437632	4
7	15648	769997.585318367349	5
7	15653	770272.622465246451	6
7	15660	770432.298521607599	5
7	15667	770611.428747007766	6
7	15672	770793.082905280487	5
7	15676	770878.516890395622	6
7	15681	771238.576689960788	7
7	15685	771404.161181157166	6
7	15689	771497.560067012498	7
7	15699	772096.819933551806	6
7	15707	772373.431836746897	5
7	15721	772886.995825271866	4
7	15735	773319.456710640484	3
7	15738	773448.636867922223	2
7	15746	773913.447222122373	1
7	15754	773976.714938072577	0
7	15772	774775.120757655011	1
7	15786	775355.274879258755	2
7	15803	775991.421261558171	3
7	15808	776287.734183523605	4
7	15821	777074.459943441064	3
7	15830	778091.201399632067	2
7	15845	778692.050619946599	3
7	15847	778803.897064679577	2
7	15852	778966.756813214378	1
7	15873	779753.757528754226	2
7	15881	780028.596333555266	3
7	15887	780307.903431605403	4
7	15896	781024.307772280992	5
7	15903	781632.969625220213	4
7	15907	781633.885492115178	5
7	15915	782530.401725817742	4
7	15921	782689.691972008712	3
7	15924	782725.478208937952	2
7	15941	784050.802234510175	1
7	15956	784657.881265978863	2
7	15958	784902.039844712063	1
7	15973	785506.96394795787	2
7	15984	785981.445877992336	3
7	15990	786273.862377375823	4
7	15993	787362.555876292294	3
7	16008	788038.44180890792	4
7	16019	788355.107943873624	5
7	16023	788461.469689965646	4
7	16029	788567.48689621152	3
7	16034	788642.364421857816	4
7	16038	788660.629011134888	3
7	16048	788948.580690606223	4
7	16053	789242.936262267935	5
7	16059	789527.075971309829	6
7	16068	790115.487809132252	5
7	16086	790787.960777603306	6
7	16094	791290.562833745568	5
7	16102	791494.637322130386	4
7	16105	791514.981919824949	3
7	16113	791663.027113239254	2
7	16116	791794.631348139514	1
7	16120	791932.263936332912	2
7	16145	794068.237235352068	1
7	16153	794435.067818889825	0
7	16168	794990.156791891593	1
7	16177	795668.046289657849	2
7	16181	797810.600922036172	1
7	16196	798463.994564214394	2
7	16203	798730.280341558273	1
7	16208	799018.317201001945	2
7	16224	799591.883882348686	3
7	16230	799822.945556470111	4
7	16238	800907.168239502486	3
7	16242	801040.204142316552	4
7	16250	801923.642498939461	3
7	16264	802441.11793564719	2
7	16267	802671.055549356495	1
7	16271	802718.092346471493	2
7	16284	803722.507139331964	1
7	16299	804615.5631903243	2
7	16308	805797.173109809595	1
7	16312	806058.7439297308	2
7	16335	806892.248416154671	3
7	16340	807210.198051506251	4
7	16344	807347.394010449743	3
7	16352	807489.011551823884	4
7	16360	807795.484527433169	5
7	16368	808081.336346384217	6
7	16377	808370.531166417134	7
7	16382	808638.208816225937	8
7	16386	808823.404046079997	7
7	16390	808961.022680532109	8
7	16401	809309.759319553135	7
7	16416	809637.938574359534	8
7	16421	809930.31390161161	9
7	16427	810254.976334198226	10
7	16431	810521.152442207413	9
7	16435	810565.328680909345	10
7	16439	810616.860186475719	9
7	16442	810814.855059053591	8
7	16456	811299.881561540286	7
7	16464	811401.831643369266	6
7	16470	811417.501657913941	5
7	16479	811901.598535520099	4
7	16482	811916.158567570671	3
7	16486	811936.510637630548	4
7	16501	812466.439986650592	3
7	16505	812555.731476112518	4
7	16510	812757.439972292818	3
7	16514	812861.806667266996	4
7	16526	813390.570136840334	3
7	16539	813777.712886930438	4
7	16550	814088.302359267586	5
7	16556	814352.763122600513	6
7	16561	814666.552096584536	7
7	16565	814929.611675610575	6
7	16568	814953.904320353998	5
7	16582	815382.078722856208	4
7	16605	816441.73351992434	5
7	16621	816875.825466193332	4
7	16624	816934.336352230628	3
7	16627	817027.846030408622	2
7	16631	817086.937792788114	3
7	16635	817350.589925393114	2
7	16639	817435.68897594773	3
7	16649	818107.960269791298	2
7	16692	819996.751170734319	1
7	16696	820256.928748281756	2
7	16701	820439.578627216456	1
7	16725	821711.501319254907	2
7	16731	822003.4546952566	3
7	16736	822294.910161163763	4
7	16744	822881.855108562647	3
7	16748	822890.69586979322	4
7	16762	823712.683129746211	5
7	16770	824152.784718955713	6
7	16777	824233.423691480582	5
7	16781	824453.506467820064	6
7	16794	824765.344516772328	5
7	16797	824958.422549187678	4
7	16801	825016.018435286971	5
7	16805	825278.63692187218	4
7	16828	826265.870837154499	5
7	16831	826330.670706001098	4
7	16836	826550.714114256667	3
7	16848	827286.421115424939	2
7	16853	827418.234157650103	1
7	16865	827961.54433165399	2
7	16874	828994.672512161362	1
7	16894	829550.018203415698	2
7	16903	829823.870692053175	3
7	16913	830012.043043053995	2
7	16917	830127.484169640311	3
7	16922	830396.136832914372	4
7	16931	830720.501678323124	5
7	16936	831020.29673469423	6
7	16941	831280.462505335571	7
7	16954	832118.154691845412	6
7	16959	832289.036752712035	7
7	16966	832472.438521122079	6
7	16969	832498.836711132459	5
7	16978	832833.057877709678	6
7	16982	833100.98358603402	5
7	16991	833347.855107740556	4
7	16994	833420.445734206602	3
7	17002	833757.910110574507	2
7	17025	835072.80004842438	1
7	17034	835792.01889662083	0
7	17051	836378.442425861761	1
7	17060	836658.666267681278	2
7	17065	836961.132061432231	3
7	17075	839344.299064842044	2
7	17078	839450.36770147823	1
7	17082	839606.633034171518	2
7	17086	839622.632319572018	1
7	17104	840536.39150599316	2
7	17113	842457.100420907805	1
7	17123	843793.894994938083	0
7	17138	844737.531797473948	1
7	17147	845451.269406317564	2
7	17156	846658.409840271639	3
7	17164	847391.034018396555	2
7	17168	847661.153662609639	3
7	17181	848442.093224777727	2
7	17189	848592.041354610093	3
7	17194	848899.11023651553	4
7	17201	849279.278504770146	3
7	17216	849857.488788537915	4
7	17225	850688.059084814551	5
7	17227	850854.716474201126	4
7	17241	851342.244309809983	3
7	17244	851398.807650007702	2
7	17248	851530.082753987248	3
7	17267	852535.688103983222	4
7	17269	852549.303793180011	3
7	17278	853031.488986034284	2
7	17287	854362.775739859528	1
7	17296	854771.44736007516	0
7	17311	855442.669330965143	1
7	17321	858035.152161478955	0
7	17325	858052.638986261519	1
7	17339	859398.724771869821	2
7	17343	860843.459939118102	1
7	17357	862035.096290199556	0
7	17365	862340.38970613095	1
7	17370	862672.049008337644	2
7	17387	863691.404736686301	3
7	17393	863973.014154041633	4
7	17396	865325.954526282551	3
7	17401	865525.624877480452	2
7	17413	866353.922464950691	1
7	17419	866546.430783920503	0
7	17437	867543.5918047573	1
7	17453	869656.042702377506	2
7	17462	869913.100917933831	3
7	17466	870039.311088025602	2
7	17470	870220.16465536066	3
7	17475	870574.714663974058	4
7	17499	871857.921628032118	5
7	17507	872101.950595707211	6
7	17511	872304.383801509832	5
7	17515	872364.268188731462	6
7	17519	872392.718210942507	5
7	17524	872677.047367588922	6
7	17528	872861.663235140648	5
7	17532	872986.934052028942	6
7	17536	873011.97886293648	5
7	17554	873900.785374424112	6
7	17568	874394.915324091995	7
7	17572	874539.358432453427	6
7	17584	875040.786808273648	5
7	17592	875254.738684523984	4
7	17595	875293.278825672408	3
7	17603	875415.630835899781	2
7	17607	875724.083455921336	3
7	17612	876019.192406353877	2
7	17638	876960.938317669648	3
7	17642	877037.098149570378	2
7	17649	877241.005497097603	3
7	17654	877526.188489826617	4
7	17677	878611.023906972992	5
7	17681	878721.880842254707	4
7	17685	878978.922361737371	5
7	17689	879233.119269356377	4
7	17706	879894.96565079479	3
7	17710	879911.334540612831	4
7	17715	880171.399115584359	3
7	17727	881256.483288860449	2
7	17732	881286.025367601264	1
7	17753	882696.240962220343	2
7	17758	882881.720920767816	1
7	17762	883061.863570817853	2
7	17776	884128.229094036623	3
7	17785	884452.923168299462	4
7	17787	885132.270098746079	3
7	17796	885653.056071697109	2
7	17814	886325.689211851654	3
7	17819	886627.967354896382	4
7	17826	886813.166728470177	3
7	17831	887051.529275664852	4
7	17843	887552.978915268448	3
7	17847	887621.820811516179	4
7	17861	888583.882619946541	5
7	17864	889397.246160289673	4
7	17869	889515.728517189556	3
7	17881	889854.190200173693	2
7	17885	890033.730342648053	3
7	17892	890267.782770953534	2
7	17902	890632.107599348783	3
7	17917	891203.965746430202	2
7	17927	891566.073046690681	3
7	17932	891872.639676030903	4
7	17945	892407.011295452376	3
7	17949	892530.511608145081	4
7	17953	892674.065103203896	3
7	17972	894018.035459487724	4
7	17979	894285.381877169157	3
7	17983	894366.290581216398	4
7	17987	894646.619130540177	3
7	17996	894986.663082732235	2
7	18014	896535.517704661136	1
7	18018	896629.75957161093	2
7	18030	897126.768943472329	1
7	18034	897240.335418776516	2
7	18051	897819.726490905187	3
7	18062	898120.040196783733	4
7	18068	898373.132912115731	5
7	18073	898691.822001496967	6
7	18076	899023.793045332531	5
7	18089	899498.283025463579	4
7	18093	899731.033883205661	5
7	18106	900147.568896239676	4
7	18110	900373.946380049848	5
7	18114	900638.472780666042	4
7	18123	900974.932743170134	3
7	18141	901597.201029460212	4
7	18143	901633.54664343736	3
7	18151	902362.905434744899	2
7	18165	902800.03706918784	1
7	18169	902973.820825973323	2
7	18177	904086.934491265737	1
7	18196	905013.940767058572	2
7	18201	905315.181156975032	3
7	18203	905576.167509631612	2
7	18219	907157.90540769514	3
7	18222	907638.231165089235	2
7	18230	908029.012119581714	1
7	18245	908747.671595058111	2
7	18257	909775.196026036388	3
7	18261	909840.664596334081	2
7	18266	910105.01051026075	3
7	18279	910752.40909196128	4
7	18282	911160.086718135769	3
7	18296	911772.360794392138	4
7	18305	912172.003405341039	5
7	18307	912635.611673203772	4
7	18313	912768.075640904986	3
7	18329	913344.207376296952	2
7	18333	913397.731786463456	3
7	18347	914105.194446737178	4
7	18349	914118.862709425767	3
7	18358	914847.599660689109	2
7	18368	916327.201969834412	1
7	18385	916897.893825960148	2
7	18389	916943.306721204216	1
7	18394	917231.613501376952	2
7	18411	919393.281559954083	1
7	18418	919454.892931452387	2
7	18423	919685.100627328023	1
7	18427	919764.785609248892	2
7	18432	920090.827703824905	3
7	18447	922597.208381409031	2
7	18452	922686.683273831459	1
7	18458	922785.506200301919	0
7	18468	923195.412853994141	1
7	18485	923825.782912727583	2
7	18490	924097.029779582553	3
7	18507	924687.456282682318	4
7	18512	924974.822388895891	5
7	18522	925291.744536143791	4
7	18526	925490.477323718311	5
7	18532	925726.738501071292	6
7	18547	926332.449029153964	5
7	18551	926336.88961568252	6
7	18560	926652.063847865871	7
7	18564	926821.066875932508	6
7	18568	926954.83594282769	7
7	18578	927490.232958471665	6
7	18586	927674.571649130604	5
7	18594	928014.957590071977	4
7	18603	928354.615683768123	3
7	18621	929201.127890965415	4
7	18623	929318.30537622311	3
7	18628	929427.278484013905	2
7	18636	929667.631855973279	1
7	18654	930575.304025676003	2
7	18663	930908.14840305546	3
7	18671	931383.417205872073	4
7	18674	932262.586702590899	3
7	18695	932851.546740360668	4
7	18700	933103.755743720059	5
7	18706	933411.721009905112	6
7	18708	933455.249811870942	5
7	18713	933456.854154815438	4
7	18732	934065.506887648935	5
7	18736	934237.276036645377	4
7	18740	934406.725799279749	5
7	18745	934693.524519943287	6
7	18763	935478.921519101182	5
7	18767	935515.212578295448	6
7	18771	935592.628742855136	5
7	18780	935921.476881078605	4
7	18801	936740.642359939475	5
7	18806	937034.620989457586	6
7	18808	937058.423338077497	5
7	18813	937143.95247483151	4
7	18824	937375.98067038521	3
7	18829	937653.175085920482	4
7	18838	938005.144680640099	3
7	18856	939351.398811555046	2
7	18863	939371.218186585841	3
7	18871	939645.143236884528	4
7	18875	939790.805546855142	3
7	18879	939954.463337497699	4
7	18889	940557.300275616204	3
7	18907	941254.715443659979	4
7	18916	941768.057059849512	5
7	18923	942178.158691264323	4
7	18927	942304.946849975166	5
7	18931	942343.650417481035	4
7	18943	942812.114807058619	3
7	18952	943140.427399261127	4
7	18960	943733.115425570464	3
7	18975	944352.579357791211	4
7	18983	944661.226632121435	5
7	18985	944760.419713902936	4
7	18990	944761.839070607393	3
7	19002	945791.483637783564	2
7	19023	946460.679781832235	3
7	19028	946791.138388383724	4
7	19043	947113.659663083675	5
7	19047	947143.553767765429	4
7	19050	947230.169015313005	3
7	19054	947502.17511047731	4
7	19060	947818.977450520399	5
7	19068	948143.620606270182	6
7	19076	948400.089178615335	7
7	19082	948727.096491091713	8
7	19086	949036.292722951289	7
7	19094	949133.142817449055	6
7	19108	949793.530856661519	5
7	19116	950130.78804043564	4
